MODEL 1
REMARK VINA RESULT:      -7.7      0.000      0.000
REMARK  9 active torsions:
REMARK  status: ('A' for Active; 'I' for Inactive)
REMARK    1  A    between atoms: O_28  and  C_3 
REMARK    2  A    between atoms: C_20  and  C_18 
REMARK    3  A    between atoms: N_25  and  C_18 
REMARK    4  A    between atoms: C_23  and  C_19 
REMARK    5  A    between atoms: N_26  and  C_19 
REMARK    6  A    between atoms: C_24  and  C_20 
REMARK    7  A    between atoms: C_23  and  C_21 
REMARK    8  A    between atoms: C_24  and  C_22 
REMARK    9  A    between atoms: O_28  and  C_23 
ROOT
HETATM    1  C   UNK N   1      35.582  16.024  10.443  0.00  0.00     0.302 C 
HETATM    2  C   UNK N   1      36.798  14.210   9.711  0.00  0.00     0.302 C 
HETATM    3  C   UNK N   1      35.529  15.532  11.894  0.00  0.00     0.302 C 
HETATM    4  C   UNK N   1      36.797  13.506  11.049  0.00  0.00     0.302 C 
HETATM    5  N   UNK N   1      35.514  14.847   9.610  0.00  0.00     0.092 N 
HETATM    6  N   UNK N   1      36.374  14.350  12.197  0.00  0.00     0.094 N 
ENDROOT
BRANCH   5   7
HETATM    7  C   UNK N   1      35.158  15.093   8.225  0.00  0.00     0.284 C 
BRANCH   7   8
HETATM    8  C   UNK N   1      34.006  16.116   8.167  0.00  0.00     0.085 C 
HETATM    9  C   UNK N   1      32.619  15.495   8.348  0.00  0.00     0.020 C 
BRANCH   8  10
HETATM   10  C   UNK N   1      34.153  17.064   6.990  0.00  0.00     0.165 C 
HETATM   11  O   UNK N   1      34.656  18.157   7.210  0.00  0.00    -0.292 OA
BRANCH  10  12
HETATM   12  C   UNK N   1      33.702  16.760   5.592  0.00  0.00     0.010 A 
HETATM   13  C   UNK N   1      34.163  15.594   4.959  0.00  0.00     0.015 A 
HETATM   14  C   UNK N   1      33.770  15.288   3.652  0.00  0.00     0.001 A 
HETATM   15  C   UNK N   1      32.904  16.138   2.963  0.00  0.00     0.000 A 
HETATM   16  C   UNK N   1      32.428  17.295   3.582  0.00  0.00     0.001 A 
HETATM   17  C   UNK N   1      32.824  17.603   4.885  0.00  0.00     0.015 A 
ENDBRANCH  10  12
ENDBRANCH   8  10
ENDBRANCH   7   8
ENDBRANCH   5   7
BRANCH   6  18
HETATM   18  C   UNK N   1      35.545  13.529  13.091  0.00  0.00     0.309 C 
BRANCH  18  19
HETATM   19  C   UNK N   1      36.330  12.902  14.251  0.00  0.00     0.182 C 
BRANCH  19  20
HETATM   20  C   UNK N   1      36.329  13.757  15.485  0.00  0.00    -0.028 A 
HETATM   21  C   UNK N   1      35.529  13.423  16.590  0.00  0.00     0.010 A 
HETATM   22  C   UNK N   1      35.564  14.202  17.749  0.00  0.00     0.001 A 
HETATM   23  C   UNK N   1      36.396  15.323  17.810  0.00  0.00     0.000 A 
HETATM   24  C   UNK N   1      37.195  15.662  16.715  0.00  0.00     0.001 A 
HETATM   25  C   UNK N   1      37.168  14.878  15.558  0.00  0.00     0.010 A 
ENDBRANCH  19  20
BRANCH  19  26
HETATM   26  O   UNK N   1      35.829  11.619  14.513  0.00  0.00    -0.380 OA
BRANCH  26  27
HETATM   27  C   UNK N   1      34.674  11.504  13.737  0.00  0.00     0.164 C 
HETATM   28  C   UNK N   1      33.595  10.801  14.535  0.00  0.00     0.033 C 
ENDBRANCH  26  27
ENDBRANCH  19  26
ENDBRANCH  18  19
ENDBRANCH   6  18
TORSDOF 9
ENDMDL
MODEL 2
REMARK VINA RESULT:      -7.5      1.986      2.913
REMARK  9 active torsions:
REMARK  status: ('A' for Active; 'I' for Inactive)
REMARK    1  A    between atoms: O_28  and  C_3 
REMARK    2  A    between atoms: C_20  and  C_18 
REMARK    3  A    between atoms: N_25  and  C_18 
REMARK    4  A    between atoms: C_23  and  C_19 
REMARK    5  A    between atoms: N_26  and  C_19 
REMARK    6  A    between atoms: C_24  and  C_20 
REMARK    7  A    between atoms: C_23  and  C_21 
REMARK    8  A    between atoms: C_24  and  C_22 
REMARK    9  A    between atoms: O_28  and  C_23 
ROOT
HETATM    1  C   UNK N   1      35.713  16.333  10.897  0.00  0.00     0.302 C 
HETATM    2  C   UNK N   1      36.160  14.447   9.652  0.00  0.00     0.302 C 
HETATM    3  C   UNK N   1      35.838  15.601  12.239  0.00  0.00     0.302 C 
HETATM    4  C   UNK N   1      36.248  13.523  10.846  0.00  0.00     0.302 C 
HETATM    5  N   UNK N   1      35.126  15.392   9.972  0.00  0.00     0.092 N 
HETATM    6  N   UNK N   1      36.349  14.209  12.160  0.00  0.00     0.094 N 
ENDROOT
BRANCH   5   7
HETATM    7  C   UNK N   1      34.563  15.980   8.771  0.00  0.00     0.284 C 
BRANCH   7   8
HETATM    8  C   UNK N   1      33.032  16.078   8.919  0.00  0.00     0.085 C 
HETATM    9  C   UNK N   1      32.324  14.721   8.927  0.00  0.00     0.020 C 
BRANCH   8  10
HETATM   10  C   UNK N   1      32.441  17.122   7.988  0.00  0.00     0.165 C 
HETATM   11  O   UNK N   1      33.204  17.665   7.200  0.00  0.00    -0.292 OA
BRANCH  10  12
HETATM   12  C   UNK N   1      31.003  17.545   7.988  0.00  0.00     0.010 A 
HETATM   13  C   UNK N   1      30.488  18.231   9.100  0.00  0.00     0.015 A 
HETATM   14  C   UNK N   1      29.148  18.629   9.137  0.00  0.00     0.001 A 
HETATM   15  C   UNK N   1      28.306  18.356   8.058  0.00  0.00     0.000 A 
HETATM   16  C   UNK N   1      28.804  17.685   6.940  0.00  0.00     0.001 A 
HETATM   17  C   UNK N   1      30.141  17.284   6.906  0.00  0.00     0.015 A 
ENDBRANCH  10  12
ENDBRANCH   8  10
ENDBRANCH   7   8
ENDBRANCH   5   7
BRANCH   6  18
HETATM   18  C   UNK N   1      35.534  13.467  13.132  0.00  0.00     0.309 C 
BRANCH  18  19
HETATM   19  C   UNK N   1      36.353  12.847  14.272  0.00  0.00     0.182 C 
BRANCH  19  20
HETATM   20  C   UNK N   1      36.371  13.701  15.508  0.00  0.00    -0.028 A 
HETATM   21  C   UNK N   1      37.193  14.836  15.584  0.00  0.00     0.010 A 
HETATM   22  C   UNK N   1      37.175  15.646  16.723  0.00  0.00     0.001 A 
HETATM   23  C   UNK N   1      36.337  15.323  17.794  0.00  0.00     0.000 A 
HETATM   24  C   UNK N   1      35.517  14.195  17.725  0.00  0.00     0.001 A 
HETATM   25  C   UNK N   1      35.527  13.388  16.582  0.00  0.00     0.010 A 
ENDBRANCH  19  20
BRANCH  19  26
HETATM   26  O   UNK N   1      35.875  11.558  14.543  0.00  0.00    -0.380 OA
BRANCH  26  27
HETATM   27  C   UNK N   1      34.708  11.427  13.787  0.00  0.00     0.164 C 
HETATM   28  C   UNK N   1      33.649  10.719  14.607  0.00  0.00     0.033 C 
ENDBRANCH  26  27
ENDBRANCH  19  26
ENDBRANCH  18  19
ENDBRANCH   6  18
TORSDOF 9
ENDMDL
MODEL 3
REMARK VINA RESULT:      -6.9      1.399      1.919
REMARK  9 active torsions:
REMARK  status: ('A' for Active; 'I' for Inactive)
REMARK    1  A    between atoms: O_28  and  C_3 
REMARK    2  A    between atoms: C_20  and  C_18 
REMARK    3  A    between atoms: N_25  and  C_18 
REMARK    4  A    between atoms: C_23  and  C_19 
REMARK    5  A    between atoms: N_26  and  C_19 
REMARK    6  A    between atoms: C_24  and  C_20 
REMARK    7  A    between atoms: C_23  and  C_21 
REMARK    8  A    between atoms: C_24  and  C_22 
REMARK    9  A    between atoms: O_28  and  C_23 
ROOT
HETATM    1  C   UNK N   1      35.846  15.851  11.047  0.00  0.00     0.302 C 
HETATM    2  C   UNK N   1      36.649  14.047   9.860  0.00  0.00     0.302 C 
HETATM    3  C   UNK N   1      35.710  15.060  12.353  0.00  0.00     0.302 C 
HETATM    4  C   UNK N   1      36.519  13.071  11.007  0.00  0.00     0.302 C 
HETATM    5  N   UNK N   1      35.525  14.934   9.979  0.00  0.00     0.092 N 
HETATM    6  N   UNK N   1      36.295  13.696  12.336  0.00  0.00     0.094 N 
ENDROOT
BRANCH   5   7
HETATM    7  C   UNK N   1      35.210  15.556   8.707  0.00  0.00     0.284 C 
BRANCH   7   8
HETATM    8  C   UNK N   1      33.946  16.424   8.861  0.00  0.00     0.085 C 
HETATM    9  C   UNK N   1      32.667  15.617   9.097  0.00  0.00     0.020 C 
BRANCH   8  10
HETATM   10  C   UNK N   1      33.860  17.491   7.784  0.00  0.00     0.165 C 
HETATM   11  O   UNK N   1      34.526  18.505   7.945  0.00  0.00    -0.292 OA
BRANCH  10  12
HETATM   12  C   UNK N   1      33.000  17.396   6.559  0.00  0.00     0.010 A 
HETATM   13  C   UNK N   1      33.607  17.374   5.292  0.00  0.00     0.015 A 
HETATM   14  C   UNK N   1      32.834  17.298   4.130  0.00  0.00     0.001 A 
HETATM   15  C   UNK N   1      31.442  17.232   4.218  0.00  0.00     0.000 A 
HETATM   16  C   UNK N   1      30.823  17.242   5.469  0.00  0.00     0.001 A 
HETATM   17  C   UNK N   1      31.597  17.323   6.629  0.00  0.00     0.015 A 
ENDBRANCH  10  12
ENDBRANCH   8  10
ENDBRANCH   7   8
ENDBRANCH   5   7
BRANCH   6  18
HETATM   18  C   UNK N   1      35.325  12.875  13.074  0.00  0.00     0.309 C 
BRANCH  18  19
HETATM   19  C   UNK N   1      35.974  11.771  13.919  0.00  0.00     0.182 C 
BRANCH  19  20
HETATM   20  C   UNK N   1      35.741  11.951  15.392  0.00  0.00    -0.028 A 
HETATM   21  C   UNK N   1      35.185  13.140  15.891  0.00  0.00     0.010 A 
HETATM   22  C   UNK N   1      34.936  13.284  17.258  0.00  0.00     0.001 A 
HETATM   23  C   UNK N   1      35.247  12.243  18.137  0.00  0.00     0.000 A 
HETATM   24  C   UNK N   1      35.801  11.057  17.647  0.00  0.00     0.001 A 
HETATM   25  C   UNK N   1      36.042  10.908  16.278  0.00  0.00     0.010 A 
ENDBRANCH  19  20
BRANCH  19  26
HETATM   26  O   UNK N   1      35.524  10.519  13.477  0.00  0.00    -0.380 OA
BRANCH  26  27
HETATM   27  C   UNK N   1      34.184  10.706  13.130  0.00  0.00     0.164 C 
HETATM   28  C   UNK N   1      33.867   9.907  11.882  0.00  0.00     0.033 C 
ENDBRANCH  26  27
ENDBRANCH  19  26
ENDBRANCH  18  19
ENDBRANCH   6  18
TORSDOF 9
ENDMDL
MODEL 4
REMARK VINA RESULT:      -6.9     16.743     20.171
REMARK  9 active torsions:
REMARK  status: ('A' for Active; 'I' for Inactive)
REMARK    1  A    between atoms: O_28  and  C_3 
REMARK    2  A    between atoms: C_20  and  C_18 
REMARK    3  A    between atoms: N_25  and  C_18 
REMARK    4  A    between atoms: C_23  and  C_19 
REMARK    5  A    between atoms: N_26  and  C_19 
REMARK    6  A    between atoms: C_24  and  C_20 
REMARK    7  A    between atoms: C_23  and  C_21 
REMARK    8  A    between atoms: C_24  and  C_22 
REMARK    9  A    between atoms: O_28  and  C_23 
ROOT
HETATM    1  C   UNK N   1      30.976  24.393  -3.621  0.00  0.00     0.302 C 
HETATM    2  C   UNK N   1      29.931  22.957  -2.154  0.00  0.00     0.302 C 
HETATM    3  C   UNK N   1      29.658  24.934  -4.189  0.00  0.00     0.302 C 
HETATM    4  C   UNK N   1      28.533  23.288  -2.624  0.00  0.00     0.302 C 
HETATM    5  N   UNK N   1      30.753  22.996  -3.332  0.00  0.00     0.092 N 
HETATM    6  N   UNK N   1      28.431  24.504  -3.472  0.00  0.00     0.094 N 
ENDROOT
BRANCH   5   7
HETATM    7  C   UNK N   1      31.956  22.204  -3.160  0.00  0.00     0.284 C 
BRANCH   7   8
HETATM    8  C   UNK N   1      31.934  21.019  -4.145  0.00  0.00     0.085 C 
HETATM    9  C   UNK N   1      33.096  20.039  -3.959  0.00  0.00     0.020 C 
BRANCH   8  10
HETATM   10  C   UNK N   1      31.681  21.475  -5.571  0.00  0.00     0.165 C 
HETATM   11  O   UNK N   1      32.454  22.299  -6.041  0.00  0.00    -0.292 OA
BRANCH  10  12
HETATM   12  C   UNK N   1      30.541  21.007  -6.424  0.00  0.00     0.010 A 
HETATM   13  C   UNK N   1      29.485  21.889  -6.706  0.00  0.00     0.015 A 
HETATM   14  C   UNK N   1      28.401  21.480  -7.489  0.00  0.00     0.001 A 
HETATM   15  C   UNK N   1      28.362  20.185  -8.010  0.00  0.00     0.000 A 
HETATM   16  C   UNK N   1      29.408  19.299  -7.748  0.00  0.00     0.001 A 
HETATM   17  C   UNK N   1      30.488  19.707  -6.962  0.00  0.00     0.015 A 
ENDBRANCH  10  12
ENDBRANCH   8  10
ENDBRANCH   7   8
ENDBRANCH   5   7
BRANCH   6  18
HETATM   18  C   UNK N   1      27.458  24.239  -4.541  0.00  0.00     0.309 C 
BRANCH  18  19
HETATM   19  C   UNK N   1      26.162  25.048  -4.404  0.00  0.00     0.182 C 
BRANCH  19  20
HETATM   20  C   UNK N   1      26.383  26.529  -4.515  0.00  0.00    -0.028 A 
HETATM   21  C   UNK N   1      26.958  27.084  -5.670  0.00  0.00     0.010 A 
HETATM   22  C   UNK N   1      27.125  28.467  -5.780  0.00  0.00     0.001 A 
HETATM   23  C   UNK N   1      26.723  29.303  -4.735  0.00  0.00     0.000 A 
HETATM   24  C   UNK N   1      26.150  28.758  -3.583  0.00  0.00     0.001 A 
HETATM   25  C   UNK N   1      25.974  27.375  -3.475  0.00  0.00     0.010 A 
ENDBRANCH  19  20
BRANCH  19  26
HETATM   26  O   UNK N   1      25.228  24.595  -5.347  0.00  0.00    -0.380 OA
BRANCH  26  27
HETATM   27  C   UNK N   1      25.916  23.676  -6.141  0.00  0.00     0.164 C 
HETATM   28  C   UNK N   1      25.693  24.003  -7.604  0.00  0.00     0.033 C 
ENDBRANCH  26  27
ENDBRANCH  19  26
ENDBRANCH  18  19
ENDBRANCH   6  18
TORSDOF 9
ENDMDL
MODEL 5
REMARK VINA RESULT:      -6.8     16.334     20.548
REMARK  9 active torsions:
REMARK  status: ('A' for Active; 'I' for Inactive)
REMARK    1  A    between atoms: O_28  and  C_3 
REMARK    2  A    between atoms: C_20  and  C_18 
REMARK    3  A    between atoms: N_25  and  C_18 
REMARK    4  A    between atoms: C_23  and  C_19 
REMARK    5  A    between atoms: N_26  and  C_19 
REMARK    6  A    between atoms: C_24  and  C_20 
REMARK    7  A    between atoms: C_23  and  C_21 
REMARK    8  A    between atoms: C_24  and  C_22 
REMARK    9  A    between atoms: O_28  and  C_23 
ROOT
HETATM    1  C   UNK N   1      29.966  24.545  -3.426  0.00  0.00     0.302 C 
HETATM    2  C   UNK N   1      28.115  23.551  -2.482  0.00  0.00     0.302 C 
HETATM    3  C   UNK N   1      29.138  25.500  -4.293  0.00  0.00     0.302 C 
HETATM    4  C   UNK N   1      27.116  24.337  -3.301  0.00  0.00     0.302 C 
HETATM    5  N   UNK N   1      29.225  23.307  -3.360  0.00  0.00     0.092 N 
HETATM    6  N   UNK N   1      27.680  25.514  -4.012  0.00  0.00     0.094 N 
ENDROOT
BRANCH   5   7
HETATM    7  C   UNK N   1      29.992  22.153  -2.929  0.00  0.00     0.284 C 
BRANCH   7   8
HETATM    8  C   UNK N   1      31.125  21.885  -3.938  0.00  0.00     0.085 C 
HETATM    9  C   UNK N   1      30.692  21.051  -5.146  0.00  0.00     0.020 C 
BRANCH   8  10
HETATM   10  C   UNK N   1      32.399  21.430  -3.248  0.00  0.00     0.165 C 
HETATM   11  O   UNK N   1      32.463  21.580  -2.035  0.00  0.00    -0.292 OA
BRANCH  10  12
HETATM   12  C   UNK N   1      33.582  20.836  -3.952  0.00  0.00     0.010 A 
HETATM   13  C   UNK N   1      34.483  21.684  -4.617  0.00  0.00     0.015 A 
HETATM   14  C   UNK N   1      35.590  21.162  -5.293  0.00  0.00     0.001 A 
HETATM   15  C   UNK N   1      35.818  19.785  -5.305  0.00  0.00     0.000 A 
HETATM   16  C   UNK N   1      34.939  18.929  -4.640  0.00  0.00     0.001 A 
HETATM   17  C   UNK N   1      33.831  19.451  -3.969  0.00  0.00     0.015 A 
ENDBRANCH  10  12
ENDBRANCH   8  10
ENDBRANCH   7   8
ENDBRANCH   5   7
BRANCH   6  18
HETATM   18  C   UNK N   1      27.054  25.593  -5.340  0.00  0.00     0.309 C 
BRANCH  18  19
HETATM   19  C   UNK N   1      25.978  26.681  -5.445  0.00  0.00     0.182 C 
BRANCH  19  20
HETATM   20  C   UNK N   1      26.502  28.054  -5.135  0.00  0.00    -0.028 A 
HETATM   21  C   UNK N   1      27.494  28.641  -5.937  0.00  0.00     0.010 A 
HETATM   22  C   UNK N   1      27.949  29.934  -5.664  0.00  0.00     0.001 A 
HETATM   23  C   UNK N   1      27.418  30.646  -4.586  0.00  0.00     0.000 A 
HETATM   24  C   UNK N   1      26.431  30.068  -3.784  0.00  0.00     0.001 A 
HETATM   25  C   UNK N   1      25.969  28.778  -4.061  0.00  0.00     0.010 A 
ENDBRANCH  19  20
BRANCH  19  26
HETATM   26  O   UNK N   1      25.386  26.630  -6.715  0.00  0.00    -0.380 OA
BRANCH  26  27
HETATM   27  C   UNK N   1      25.876  25.465  -7.308  0.00  0.00     0.164 C 
HETATM   28  C   UNK N   1      25.923  25.642  -8.811  0.00  0.00     0.033 C 
ENDBRANCH  26  27
ENDBRANCH  19  26
ENDBRANCH  18  19
ENDBRANCH   6  18
TORSDOF 9
ENDMDL
MODEL 6
REMARK VINA RESULT:      -6.8      2.402      9.303
REMARK  9 active torsions:
REMARK  status: ('A' for Active; 'I' for Inactive)
REMARK    1  A    between atoms: O_28  and  C_3 
REMARK    2  A    between atoms: C_20  and  C_18 
REMARK    3  A    between atoms: N_25  and  C_18 
REMARK    4  A    between atoms: C_23  and  C_19 
REMARK    5  A    between atoms: N_26  and  C_19 
REMARK    6  A    between atoms: C_24  and  C_20 
REMARK    7  A    between atoms: C_23  and  C_21 
REMARK    8  A    between atoms: C_24  and  C_22 
REMARK    9  A    between atoms: O_28  and  C_23 
ROOT
HETATM    1  C   UNK N   1      33.823  12.550   8.630  0.00  0.00     0.302 C 
HETATM    2  C   UNK N   1      35.741  13.783   8.958  0.00  0.00     0.302 C 
HETATM    3  C   UNK N   1      33.007  13.756   8.152  0.00  0.00     0.302 C 
HETATM    4  C   UNK N   1      35.105  15.107   8.597  0.00  0.00     0.302 C 
HETATM    5  N   UNK N   1      34.722  13.041   9.647  0.00  0.00     0.092 N 
HETATM    6  N   UNK N   1      33.782  15.002   7.928  0.00  0.00     0.094 N 
ENDROOT
BRANCH   5   7
HETATM    7  C   UNK N   1      35.301  12.022  10.501  0.00  0.00     0.284 C 
BRANCH   7   8
HETATM    8  C   UNK N   1      36.203  12.690  11.558  0.00  0.00     0.085 C 
HETATM    9  C   UNK N   1      37.499  11.923  11.838  0.00  0.00     0.020 C 
BRANCH   8  10
HETATM   10  C   UNK N   1      35.415  13.118  12.783  0.00  0.00     0.165 C 
HETATM   11  O   UNK N   1      34.926  14.239  12.770  0.00  0.00    -0.292 OA
BRANCH  10  12
HETATM   12  C   UNK N   1      35.219  12.273  14.006  0.00  0.00     0.010 A 
HETATM   13  C   UNK N   1      34.235  11.271  14.000  0.00  0.00     0.015 A 
HETATM   14  C   UNK N   1      34.020  10.473  15.129  0.00  0.00     0.001 A 
HETATM   15  C   UNK N   1      34.792  10.661  16.276  0.00  0.00     0.000 A 
HETATM   16  C   UNK N   1      35.781  11.645  16.295  0.00  0.00     0.001 A 
HETATM   17  C   UNK N   1      35.993  12.444  15.169  0.00  0.00     0.015 A 
ENDBRANCH  10  12
ENDBRANCH   8  10
ENDBRANCH   7   8
ENDBRANCH   5   7
BRANCH   6  18
HETATM   18  C   UNK N   1      32.917  16.069   8.450  0.00  0.00     0.309 C 
BRANCH  18  19
HETATM   19  C   UNK N   1      32.158  16.831   7.356  0.00  0.00     0.182 C 
BRANCH  19  20
HETATM   20  C   UNK N   1      30.829  17.353   7.824  0.00  0.00    -0.028 A 
HETATM   21  C   UNK N   1      29.641  16.972   7.180  0.00  0.00     0.010 A 
HETATM   22  C   UNK N   1      28.407  17.432   7.645  0.00  0.00     0.001 A 
HETATM   23  C   UNK N   1      28.352  18.279   8.755  0.00  0.00     0.000 A 
HETATM   24  C   UNK N   1      29.530  18.663   9.401  0.00  0.00     0.001 A 
HETATM   25  C   UNK N   1      30.766  18.196   8.942  0.00  0.00     0.010 A 
ENDBRANCH  19  20
BRANCH  19  26
HETATM   26  O   UNK N   1      32.968  17.860   6.856  0.00  0.00    -0.380 OA
BRANCH  26  27
HETATM   27  C   UNK N   1      33.402  17.417   5.604  0.00  0.00     0.164 C 
HETATM   28  C   UNK N   1      32.279  17.563   4.598  0.00  0.00     0.033 C 
ENDBRANCH  26  27
ENDBRANCH  19  26
ENDBRANCH  18  19
ENDBRANCH   6  18
TORSDOF 9
ENDMDL
MODEL 7
REMARK VINA RESULT:      -6.7      7.343     11.508
REMARK  9 active torsions:
REMARK  status: ('A' for Active; 'I' for Inactive)
REMARK    1  A    between atoms: O_28  and  C_3 
REMARK    2  A    between atoms: C_20  and  C_18 
REMARK    3  A    between atoms: N_25  and  C_18 
REMARK    4  A    between atoms: C_23  and  C_19 
REMARK    5  A    between atoms: N_26  and  C_19 
REMARK    6  A    between atoms: C_24  and  C_20 
REMARK    7  A    between atoms: C_23  and  C_21 
REMARK    8  A    between atoms: C_24  and  C_22 
REMARK    9  A    between atoms: O_28  and  C_23 
ROOT
HETATM    1  C   UNK N   1      29.055  14.133   4.831  0.00  0.00     0.302 C 
HETATM    2  C   UNK N   1      29.961  14.562   2.757  0.00  0.00     0.302 C 
HETATM    3  C   UNK N   1      27.610  14.298   4.347  0.00  0.00     0.302 C 
HETATM    4  C   UNK N   1      28.632  14.846   2.093  0.00  0.00     0.302 C 
HETATM    5  N   UNK N   1      29.846  15.087   4.089  0.00  0.00     0.092 N 
HETATM    6  N   UNK N   1      27.441  14.429   2.878  0.00  0.00     0.094 N 
ENDROOT
BRANCH   5   7
HETATM    7  C   UNK N   1      31.150  15.377   4.654  0.00  0.00     0.284 C 
BRANCH   7   8
HETATM    8  C   UNK N   1      31.220  16.866   5.046  0.00  0.00     0.085 C 
HETATM    9  C   UNK N   1      32.086  17.712   4.108  0.00  0.00     0.020 C 
BRANCH   8  10
HETATM   10  C   UNK N   1      31.486  17.047   6.529  0.00  0.00     0.165 C 
HETATM   11  O   UNK N   1      32.625  16.836   6.923  0.00  0.00    -0.292 OA
BRANCH  10  12
HETATM   12  C   UNK N   1      30.449  17.440   7.538  0.00  0.00     0.010 A 
HETATM   13  C   UNK N   1      29.108  17.084   7.320  0.00  0.00     0.015 A 
HETATM   14  C   UNK N   1      28.114  17.445   8.235  0.00  0.00     0.001 A 
HETATM   15  C   UNK N   1      28.449  18.159   9.387  0.00  0.00     0.000 A 
HETATM   16  C   UNK N   1      29.778  18.511   9.625  0.00  0.00     0.001 A 
HETATM   17  C   UNK N   1      30.769  18.154   8.708  0.00  0.00     0.015 A 
ENDBRANCH  10  12
ENDBRANCH   8  10
ENDBRANCH   7   8
ENDBRANCH   5   7
BRANCH   6  18
HETATM   18  C   UNK N   1      26.403  15.458   2.721  0.00  0.00     0.309 C 
BRANCH  18  19
HETATM   19  C   UNK N   1      26.054  16.180   4.029  0.00  0.00     0.182 C 
BRANCH  19  20
HETATM   20  C   UNK N   1      26.405  17.640   4.001  0.00  0.00    -0.028 A 
HETATM   21  C   UNK N   1      27.631  18.094   4.516  0.00  0.00     0.010 A 
HETATM   22  C   UNK N   1      27.965  19.449   4.451  0.00  0.00     0.001 A 
HETATM   23  C   UNK N   1      27.077  20.359   3.874  0.00  0.00     0.000 A 
HETATM   24  C   UNK N   1      25.856  19.915   3.359  0.00  0.00     0.001 A 
HETATM   25  C   UNK N   1      25.523  18.558   3.415  0.00  0.00     0.010 A 
ENDBRANCH  19  20
BRANCH  19  26
HETATM   26  O   UNK N   1      24.697  15.983   4.323  0.00  0.00    -0.380 OA
BRANCH  26  27
HETATM   27  C   UNK N   1      24.631  15.874   5.714  0.00  0.00     0.164 C 
HETATM   28  C   UNK N   1      23.184  15.940   6.159  0.00  0.00     0.033 C 
ENDBRANCH  26  27
ENDBRANCH  19  26
ENDBRANCH  18  19
ENDBRANCH   6  18
TORSDOF 9
ENDMDL
MODEL 8
REMARK VINA RESULT:      -6.7      8.835     12.738
REMARK  9 active torsions:
REMARK  status: ('A' for Active; 'I' for Inactive)
REMARK    1  A    between atoms: O_28  and  C_3 
REMARK    2  A    between atoms: C_20  and  C_18 
REMARK    3  A    between atoms: N_25  and  C_18 
REMARK    4  A    between atoms: C_23  and  C_19 
REMARK    5  A    between atoms: N_26  and  C_19 
REMARK    6  A    between atoms: C_24  and  C_20 
REMARK    7  A    between atoms: C_23  and  C_21 
REMARK    8  A    between atoms: C_24  and  C_22 
REMARK    9  A    between atoms: O_28  and  C_23 
ROOT
HETATM    1  C   UNK N   1      24.180  15.545   4.552  0.00  0.00     0.302 C 
HETATM    2  C   UNK N   1      24.717  14.888   6.694  0.00  0.00     0.302 C 
HETATM    3  C   UNK N   1      25.632  15.866   4.177  0.00  0.00     0.302 C 
HETATM    4  C   UNK N   1      26.188  15.215   6.563  0.00  0.00     0.302 C 
HETATM    5  N   UNK N   1      24.029  15.902   5.943  0.00  0.00     0.092 N 
HETATM    6  N   UNK N   1      26.653  15.452   5.172  0.00  0.00     0.094 N 
ENDROOT
BRANCH   5   7
HETATM    7  C   UNK N   1      22.658  16.050   6.395  0.00  0.00     0.284 C 
BRANCH   7   8
HETATM    8  C   UNK N   1      22.141  14.695   6.916  0.00  0.00     0.085 C 
HETATM    9  C   UNK N   1      21.277  13.934   5.906  0.00  0.00     0.020 C 
BRANCH   8  10
HETATM   10  C   UNK N   1      21.566  14.811   8.316  0.00  0.00     0.165 C 
HETATM   11  O   UNK N   1      20.903  15.808   8.569  0.00  0.00    -0.292 OA
BRANCH  10  12
HETATM   12  C   UNK N   1      21.778  13.806   9.408  0.00  0.00     0.010 A 
HETATM   13  C   UNK N   1      23.077  13.342   9.674  0.00  0.00     0.015 A 
HETATM   14  C   UNK N   1      23.308  12.396  10.678  0.00  0.00     0.001 A 
HETATM   15  C   UNK N   1      22.243  11.908  11.437  0.00  0.00     0.000 A 
HETATM   16  C   UNK N   1      20.948  12.366  11.194  0.00  0.00     0.001 A 
HETATM   17  C   UNK N   1      20.718  13.307  10.188  0.00  0.00     0.015 A 
ENDBRANCH  10  12
ENDBRANCH   8  10
ENDBRANCH   7   8
ENDBRANCH   5   7
BRANCH   6  18
HETATM   18  C   UNK N   1      27.614  16.563   5.191  0.00  0.00     0.309 C 
BRANCH  18  19
HETATM   19  C   UNK N   1      27.362  17.573   6.318  0.00  0.00     0.182 C 
BRANCH  19  20
HETATM   20  C   UNK N   1      28.546  17.740   7.227  0.00  0.00    -0.028 A 
HETATM   21  C   UNK N   1      29.803  17.226   6.871  0.00  0.00     0.010 A 
HETATM   22  C   UNK N   1      30.907  17.419   7.705  0.00  0.00     0.001 A 
HETATM   23  C   UNK N   1      30.761  18.125   8.902  0.00  0.00     0.000 A 
HETATM   24  C   UNK N   1      29.513  18.639   9.263  0.00  0.00     0.001 A 
HETATM   25  C   UNK N   1      28.409  18.454   8.425  0.00  0.00     0.010 A 
ENDBRANCH  19  20
BRANCH  19  26
HETATM   26  O   UNK N   1      26.960  18.798   5.766  0.00  0.00    -0.380 OA
BRANCH  26  27
HETATM   27  C   UNK N   1      27.669  18.917   4.568  0.00  0.00     0.164 C 
HETATM   28  C   UNK N   1      27.054  20.013   3.723  0.00  0.00     0.033 C 
ENDBRANCH  26  27
ENDBRANCH  19  26
ENDBRANCH  18  19
ENDBRANCH   6  18
TORSDOF 9
ENDMDL
MODEL 9
REMARK VINA RESULT:      -6.7      2.188      9.477
REMARK  9 active torsions:
REMARK  status: ('A' for Active; 'I' for Inactive)
REMARK    1  A    between atoms: O_28  and  C_3 
REMARK    2  A    between atoms: C_20  and  C_18 
REMARK    3  A    between atoms: N_25  and  C_18 
REMARK    4  A    between atoms: C_23  and  C_19 
REMARK    5  A    between atoms: N_26  and  C_19 
REMARK    6  A    between atoms: C_24  and  C_20 
REMARK    7  A    between atoms: C_23  and  C_21 
REMARK    8  A    between atoms: C_24  and  C_22 
REMARK    9  A    between atoms: O_28  and  C_23 
ROOT
HETATM    1  C   UNK N   1      35.899  11.036  10.995  0.00  0.00     0.302 C 
HETATM    2  C   UNK N   1      37.331  12.426  12.145  0.00  0.00     0.302 C 
HETATM    3  C   UNK N   1      35.401  12.149  10.066  0.00  0.00     0.302 C 
HETATM    4  C   UNK N   1      36.924  13.676  11.397  0.00  0.00     0.302 C 
HETATM    5  N   UNK N   1      36.130  11.650  12.281  0.00  0.00     0.092 N 
HETATM    6  N   UNK N   1      36.137  13.435  10.160  0.00  0.00     0.094 N 
ENDROOT
BRANCH   5   7
HETATM    7  C   UNK N   1      36.225  10.727  13.396  0.00  0.00     0.284 C 
BRANCH   7   8
HETATM    8  C   UNK N   1      34.931  10.797  14.231  0.00  0.00     0.085 C 
HETATM    9  C   UNK N   1      33.667  10.445  13.441  0.00  0.00     0.020 C 
BRANCH   8  10
HETATM   10  C   UNK N   1      34.858  12.071  15.053  0.00  0.00     0.165 C 
HETATM   11  O   UNK N   1      34.641  13.114  14.452  0.00  0.00    -0.292 OA
BRANCH  10  12
HETATM   12  C   UNK N   1      35.059  12.138  16.537  0.00  0.00     0.010 A 
HETATM   13  C   UNK N   1      34.933  13.374  17.194  0.00  0.00     0.015 A 
HETATM   14  C   UNK N   1      35.126  13.473  18.575  0.00  0.00     0.001 A 
HETATM   15  C   UNK N   1      35.438  12.335  19.322  0.00  0.00     0.000 A 
HETATM   16  C   UNK N   1      35.557  11.098  18.687  0.00  0.00     0.001 A 
HETATM   17  C   UNK N   1      35.369  11.001  17.307  0.00  0.00     0.015 A 
ENDBRANCH  10  12
ENDBRANCH   8  10
ENDBRANCH   7   8
ENDBRANCH   5   7
BRANCH   6  18
HETATM   18  C   UNK N   1      35.089  14.461  10.073  0.00  0.00     0.309 C 
BRANCH  18  19
HETATM   19  C   UNK N   1      34.537  14.654   8.655  0.00  0.00     0.182 C 
BRANCH  19  20
HETATM   20  C   UNK N   1      33.550  15.782   8.561  0.00  0.00    -0.028 A 
HETATM   21  C   UNK N   1      33.986  17.103   8.369  0.00  0.00     0.010 A 
HETATM   22  C   UNK N   1      33.059  18.141   8.245  0.00  0.00     0.001 A 
HETATM   23  C   UNK N   1      31.691  17.866   8.316  0.00  0.00     0.000 A 
HETATM   24  C   UNK N   1      31.250  16.555   8.507  0.00  0.00     0.001 A 
HETATM   25  C   UNK N   1      32.176  15.513   8.623  0.00  0.00     0.010 A 
ENDBRANCH  19  20
BRANCH  19  26
HETATM   26  O   UNK N   1      35.602  14.827   7.759  0.00  0.00    -0.380 OA
BRANCH  26  27
HETATM   27  C   UNK N   1      35.296  14.024   6.658  0.00  0.00     0.164 C 
HETATM   28  C   UNK N   1      35.089  14.897   5.437  0.00  0.00     0.033 C 
ENDBRANCH  26  27
ENDBRANCH  19  26
ENDBRANCH  18  19
ENDBRANCH   6  18
TORSDOF 9
ENDMDL
