MODEL 1
REMARK VINA RESULT:      -7.3      0.000      0.000
REMARK  7 active torsions:
REMARK  status: ('A' for Active; 'I' for Inactive)
REMARK    1  A    between atoms: C_17  and  C_14 
REMARK    2  A    between atoms: N_25  and  C_14 
REMARK    3  A    between atoms: C_20  and  C_15 
REMARK    4  A    between atoms: N_25  and  C_15 
REMARK    5  A    between atoms: C_21  and  C_16 
REMARK    6  A    between atoms: N_23  and  C_19 
REMARK       I    between atoms: N_26  and  C_20 
REMARK    7  A    between atoms: O_28  and  C_21 
ROOT
HETATM    1  C   UNK N   1      33.804   9.832  11.978  0.00  0.00     0.004 A 
HETATM    2  C   UNK N   1      34.516   9.925  10.782  0.00  0.00     0.024 A 
HETATM    3  C   UNK N   1      34.072  10.720  13.020  0.00  0.00     0.030 A 
HETATM    4  C   UNK N   1      35.762  11.815  11.658  0.00  0.00     0.018 A 
HETATM    5  C   UNK N   1      35.495  10.906  10.616  0.00  0.00     0.044 A 
HETATM    6  C   UNK N   1      35.053  11.715  12.876  0.00  0.00     0.043 A 
HETATM    7 Cl   UNK N   1      36.374  10.969   9.096  0.00  0.00    -0.084 Cl
ENDROOT
BRANCH   4   8
HETATM    8  C   UNK N   1      36.832  12.877  11.502  0.00  0.00     0.315 C 
BRANCH   8   9
HETATM    9  N   UNK N   1      36.475  14.015  10.638  0.00  0.00     0.097 N 
HETATM   10  C   UNK N   1      37.582  14.502   9.822  0.00  0.00     0.310 C 
BRANCH   9  11
HETATM   11  C   UNK N   1      35.985  15.125  11.439  0.00  0.00     0.374 C 
BRANCH  11  12
HETATM   12  C   UNK N   1      35.411  16.213  10.569  0.00  0.00     0.248 C 
HETATM   13  N   UNK N   1      34.289  16.014   9.810  0.00  0.00    -0.347 N 
HETATM   14  C   UNK N   1      33.813  17.093   8.951  0.00  0.00     0.152 C 
HETATM   15  C   UNK N   1      33.579  14.737   9.890  0.00  0.00     0.152 C 
HETATM   16  C   UNK N   1      32.655  16.657   8.056  0.00  0.00     0.187 C 
HETATM   17  O   UNK N   1      31.765  15.878   8.799  0.00  0.00    -0.388 OA
HETATM   18  C   UNK N   1      32.406  14.640   8.912  0.00  0.00     0.187 C 
HETATM   19  O   UNK N   1      35.994  17.290  10.527  0.00  0.00    -0.271 OA
ENDBRANCH  11  12
ENDBRANCH   9  11
ENDBRANCH   8   9
ENDBRANCH   4   8
BRANCH   6  20
HETATM   20  N   UNK N   1      35.339  12.651  13.916  0.00  0.00    -0.336 N 
HETATM   21  C   UNK N   1      35.989  12.438  15.014  0.00  0.00     0.150 C 
ATOM     22  HN  UNK N   1      34.991  13.599  13.777  1.00  0.00     0.168 HD
BRANCH  21  23
HETATM   23  C   UNK N   1      36.127  13.540  15.989  0.00  0.00     0.015 A 
HETATM   24  C   UNK N   1      37.033  14.584  15.761  0.00  0.00     0.016 A 
HETATM   25  C   UNK N   1      37.170  15.615  16.697  0.00  0.00     0.001 A 
HETATM   26  C   UNK N   1      36.406  15.606  17.867  0.00  0.00     0.000 A 
HETATM   27  C   UNK N   1      35.501  14.567  18.102  0.00  0.00     0.001 A 
HETATM   28  C   UNK N   1      35.362  13.539  17.167  0.00  0.00     0.016 A 
ENDBRANCH  21  23
BRANCH  21  29
HETATM   29  O   UNK N   1      36.537  11.233  15.284  0.00  0.00    -0.345 OA
HETATM   30  H   UNK N   1      37.209  11.138  15.931  0.00  0.00     0.219 HD
ENDBRANCH  21  29
ENDBRANCH   6  20
TORSDOF 7
ENDMDL
MODEL 2
REMARK VINA RESULT:      -7.2      1.250      1.949
REMARK  7 active torsions:
REMARK  status: ('A' for Active; 'I' for Inactive)
REMARK    1  A    between atoms: C_17  and  C_14 
REMARK    2  A    between atoms: N_25  and  C_14 
REMARK    3  A    between atoms: C_20  and  C_15 
REMARK    4  A    between atoms: N_25  and  C_15 
REMARK    5  A    between atoms: C_21  and  C_16 
REMARK    6  A    between atoms: N_23  and  C_19 
REMARK       I    between atoms: N_26  and  C_20 
REMARK    7  A    between atoms: O_28  and  C_21 
ROOT
HETATM    1  C   UNK N   1      33.648   9.677  11.953  0.00  0.00     0.004 A 
HETATM    2  C   UNK N   1      34.277   9.809  10.714  0.00  0.00     0.024 A 
HETATM    3  C   UNK N   1      33.954  10.560  12.988  0.00  0.00     0.030 A 
HETATM    4  C   UNK N   1      35.513  11.731  11.536  0.00  0.00     0.018 A 
HETATM    5  C   UNK N   1      35.209  10.826  10.500  0.00  0.00     0.044 A 
HETATM    6  C   UNK N   1      34.889  11.591  12.795  0.00  0.00     0.043 A 
HETATM    7 Cl   UNK N   1      35.984  10.939   8.927  0.00  0.00    -0.084 Cl
ENDROOT
BRANCH   4   8
HETATM    8  C   UNK N   1      36.533  12.831  11.326  0.00  0.00     0.315 C 
BRANCH   8   9
HETATM    9  N   UNK N   1      36.321  13.676  10.138  0.00  0.00     0.097 N 
HETATM   10  C   UNK N   1      37.445  14.555   9.836  0.00  0.00     0.310 C 
BRANCH   9  11
HETATM   11  C   UNK N   1      35.137  14.502  10.309  0.00  0.00     0.374 C 
BRANCH  11  12
HETATM   12  C   UNK N   1      34.380  14.643   9.014  0.00  0.00     0.248 C 
HETATM   13  N   UNK N   1      34.212  15.858   8.405  0.00  0.00    -0.347 N 
HETATM   14  C   UNK N   1      33.426  15.933   7.177  0.00  0.00     0.152 C 
HETATM   15  C   UNK N   1      34.838  17.049   8.980  0.00  0.00     0.152 C 
HETATM   16  C   UNK N   1      33.201  17.372   6.718  0.00  0.00     0.187 C 
HETATM   17  O   UNK N   1      34.388  18.093   6.863  0.00  0.00    -0.388 OA
HETATM   18  C   UNK N   1      34.476  18.336   8.236  0.00  0.00     0.187 C 
HETATM   19  O   UNK N   1      33.880  13.639   8.523  0.00  0.00    -0.271 OA
ENDBRANCH  11  12
ENDBRANCH   9  11
ENDBRANCH   8   9
ENDBRANCH   4   8
BRANCH   6  20
HETATM   20  N   UNK N   1      35.211  12.522  13.829  0.00  0.00    -0.336 N 
HETATM   21  C   UNK N   1      36.074  12.379  14.782  0.00  0.00     0.150 C 
ATOM     22  HN  UNK N   1      34.700  13.405  13.814  1.00  0.00     0.168 HD
BRANCH  21  23
HETATM   23  C   UNK N   1      36.214  13.453  15.787  0.00  0.00     0.015 A 
HETATM   24  C   UNK N   1      35.467  13.421  16.973  0.00  0.00     0.016 A 
HETATM   25  C   UNK N   1      35.593  14.451  17.912  0.00  0.00     0.001 A 
HETATM   26  C   UNK N   1      36.462  15.518  17.670  0.00  0.00     0.000 A 
HETATM   27  C   UNK N   1      37.210  15.557  16.491  0.00  0.00     0.001 A 
HETATM   28  C   UNK N   1      37.086  14.529  15.553  0.00  0.00     0.016 A 
ENDBRANCH  21  23
BRANCH  21  29
HETATM   29  O   UNK N   1      36.841  11.271  14.874  0.00  0.00    -0.345 OA
HETATM   30  H   UNK N   1      36.718  10.544  14.297  0.00  0.00     0.219 HD
ENDBRANCH  21  29
ENDBRANCH   6  20
TORSDOF 7
ENDMDL
MODEL 3
REMARK VINA RESULT:      -7.1      3.450      6.274
REMARK  7 active torsions:
REMARK  status: ('A' for Active; 'I' for Inactive)
REMARK    1  A    between atoms: C_17  and  C_14 
REMARK    2  A    between atoms: N_25  and  C_14 
REMARK    3  A    between atoms: C_20  and  C_15 
REMARK    4  A    between atoms: N_25  and  C_15 
REMARK    5  A    between atoms: C_21  and  C_16 
REMARK    6  A    between atoms: N_23  and  C_19 
REMARK       I    between atoms: N_26  and  C_20 
REMARK    7  A    between atoms: O_28  and  C_21 
ROOT
HETATM    1  C   UNK N   1      35.310  11.003  19.209  0.00  0.00     0.004 A 
HETATM    2  C   UNK N   1      35.280  12.393  19.326  0.00  0.00     0.024 A 
HETATM    3  C   UNK N   1      35.310  10.409  17.947  0.00  0.00     0.030 A 
HETATM    4  C   UNK N   1      35.268  12.606  16.907  0.00  0.00     0.018 A 
HETATM    5  C   UNK N   1      35.254  13.197  18.185  0.00  0.00     0.044 A 
HETATM    6  C   UNK N   1      35.285  11.199  16.786  0.00  0.00     0.043 A 
HETATM    7 Cl   UNK N   1      35.199  14.942  18.388  0.00  0.00    -0.084 Cl
ENDROOT
BRANCH   4   8
HETATM    8  C   UNK N   1      35.225  13.463  15.658  0.00  0.00     0.315 C 
BRANCH   8   9
HETATM    9  N   UNK N   1      36.526  13.711  15.014  0.00  0.00     0.097 N 
HETATM   10  C   UNK N   1      37.175  14.940  15.458  0.00  0.00     0.310 C 
BRANCH   9  11
HETATM   11  C   UNK N   1      36.370  13.782  13.570  0.00  0.00     0.374 C 
BRANCH  11  12
HETATM   12  C   UNK N   1      36.976  12.577  12.898  0.00  0.00     0.248 C 
HETATM   13  N   UNK N   1      36.917  12.402  11.541  0.00  0.00    -0.347 N 
HETATM   14  C   UNK N   1      37.480  11.188  10.957  0.00  0.00     0.152 C 
HETATM   15  C   UNK N   1      36.313  13.438  10.703  0.00  0.00     0.152 C 
HETATM   16  C   UNK N   1      37.191  11.073   9.462  0.00  0.00     0.187 C 
HETATM   17  O   UNK N   1      37.375  12.319   8.859  0.00  0.00    -0.388 OA
HETATM   18  C   UNK N   1      36.240  13.048   9.225  0.00  0.00     0.187 C 
HETATM   19  O   UNK N   1      37.504  11.725  13.602  0.00  0.00    -0.271 OA
ENDBRANCH  11  12
ENDBRANCH   9  11
ENDBRANCH   8   9
ENDBRANCH   4   8
BRANCH   6  20
HETATM   20  N   UNK N   1      35.302  10.623  15.479  0.00  0.00    -0.336 N 
HETATM   21  C   UNK N   1      34.302  10.455  14.676  0.00  0.00     0.150 C 
ATOM     22  HN  UNK N   1      36.210  10.306  15.139  1.00  0.00     0.168 HD
BRANCH  21  23
HETATM   23  C   UNK N   1      34.530   9.783  13.380  0.00  0.00     0.015 A 
HETATM   24  C   UNK N   1      33.827  10.183  12.235  0.00  0.00     0.016 A 
HETATM   25  C   UNK N   1      34.036   9.529  11.016  0.00  0.00     0.001 A 
HETATM   26  C   UNK N   1      34.946   8.472  10.934  0.00  0.00     0.000 A 
HETATM   27  C   UNK N   1      35.651   8.067  12.070  0.00  0.00     0.001 A 
HETATM   28  C   UNK N   1      35.444   8.719  13.288  0.00  0.00     0.016 A 
ENDBRANCH  21  23
BRANCH  21  29
HETATM   29  O   UNK N   1      33.061  10.878  15.001  0.00  0.00    -0.345 OA
HETATM   30  H   UNK N   1      32.744  11.715  14.724  0.00  0.00     0.219 HD
ENDBRANCH  21  29
ENDBRANCH   6  20
TORSDOF 7
ENDMDL
MODEL 4
REMARK VINA RESULT:      -6.9      4.204      9.783
REMARK  7 active torsions:
REMARK  status: ('A' for Active; 'I' for Inactive)
REMARK    1  A    between atoms: C_17  and  C_14 
REMARK    2  A    between atoms: N_25  and  C_14 
REMARK    3  A    between atoms: C_20  and  C_15 
REMARK    4  A    between atoms: N_25  and  C_15 
REMARK    5  A    between atoms: C_21  and  C_16 
REMARK    6  A    between atoms: N_23  and  C_19 
REMARK       I    between atoms: N_26  and  C_20 
REMARK    7  A    between atoms: O_28  and  C_21 
ROOT
HETATM    1  C   UNK N   1      32.469  14.891   3.140  0.00  0.00     0.004 A 
HETATM    2  C   UNK N   1      33.613  14.807   3.933  0.00  0.00     0.024 A 
HETATM    3  C   UNK N   1      31.477  15.824   3.442  0.00  0.00     0.030 A 
HETATM    4  C   UNK N   1      32.786  16.610   5.334  0.00  0.00     0.018 A 
HETATM    5  C   UNK N   1      33.776  15.656   5.029  0.00  0.00     0.044 A 
HETATM    6  C   UNK N   1      31.620  16.688   4.540  0.00  0.00     0.043 A 
HETATM    7 Cl   UNK N   1      35.228  15.497   6.006  0.00  0.00    -0.084 Cl
ENDROOT
BRANCH   4   8
HETATM    8  C   UNK N   1      32.940  17.529   6.528  0.00  0.00     0.315 C 
BRANCH   8   9
HETATM    9  N   UNK N   1      32.422  17.006   7.804  0.00  0.00     0.097 N 
HETATM   10  C   UNK N   1      31.464  17.893   8.454  0.00  0.00     0.310 C 
BRANCH   9  11
HETATM   11  C   UNK N   1      33.513  16.763   8.733  0.00  0.00     0.374 C 
BRANCH  11  12
HETATM   12  C   UNK N   1      33.567  15.315   9.144  0.00  0.00     0.248 C 
HETATM   13  N   UNK N   1      34.287  14.899  10.231  0.00  0.00    -0.347 N 
HETATM   14  C   UNK N   1      34.337  13.475  10.547  0.00  0.00     0.152 C 
HETATM   15  C   UNK N   1      34.972  15.887  11.066  0.00  0.00     0.152 C 
HETATM   16  C   UNK N   1      35.307  13.165  11.685  0.00  0.00     0.187 C 
HETATM   17  O   UNK N   1      35.161  14.124  12.690  0.00  0.00    -0.388 OA
HETATM   18  C   UNK N   1      35.808  15.254  12.181  0.00  0.00     0.187 C 
HETATM   19  O   UNK N   1      32.969  14.495   8.457  0.00  0.00    -0.271 OA
ENDBRANCH  11  12
ENDBRANCH   9  11
ENDBRANCH   8   9
ENDBRANCH   4   8
BRANCH   6  20
HETATM   20  N   UNK N   1      30.632  17.666   4.867  0.00  0.00    -0.336 N 
HETATM   21  C   UNK N   1      29.499  17.477   5.463  0.00  0.00     0.150 C 
ATOM     22  HN  UNK N   1      30.844  18.627   4.598  1.00  0.00     0.168 HD
BRANCH  21  23
HETATM   23  C   UNK N   1      28.592  18.627   5.657  0.00  0.00     0.015 A 
HETATM   24  C   UNK N   1      28.169  18.993   6.942  0.00  0.00     0.016 A 
HETATM   25  C   UNK N   1      27.297  20.073   7.115  0.00  0.00     0.001 A 
HETATM   26  C   UNK N   1      26.840  20.791   6.006  0.00  0.00     0.000 A 
HETATM   27  C   UNK N   1      27.257  20.432   4.722  0.00  0.00     0.001 A 
HETATM   28  C   UNK N   1      28.129  19.355   4.548  0.00  0.00     0.016 A 
ENDBRANCH  21  23
BRANCH  21  29
HETATM   29  O   UNK N   1      29.133  16.254   5.905  0.00  0.00    -0.345 OA
HETATM   30  H   UNK N   1      28.749  16.138   6.752  0.00  0.00     0.219 HD
ENDBRANCH  21  29
ENDBRANCH   6  20
TORSDOF 7
ENDMDL
MODEL 5
REMARK VINA RESULT:      -6.9     20.490     22.417
REMARK  7 active torsions:
REMARK  status: ('A' for Active; 'I' for Inactive)
REMARK    1  A    between atoms: C_17  and  C_14 
REMARK    2  A    between atoms: N_25  and  C_14 
REMARK    3  A    between atoms: C_20  and  C_15 
REMARK    4  A    between atoms: N_25  and  C_15 
REMARK    5  A    between atoms: C_21  and  C_16 
REMARK    6  A    between atoms: N_23  and  C_19 
REMARK       I    between atoms: N_26  and  C_20 
REMARK    7  A    between atoms: O_28  and  C_21 
ROOT
HETATM    1  C   UNK N   1      28.020  20.793  -8.206  0.00  0.00     0.004 A 
HETATM    2  C   UNK N   1      29.168  20.217  -7.660  0.00  0.00     0.024 A 
HETATM    3  C   UNK N   1      27.488  21.954  -7.646  0.00  0.00     0.030 A 
HETATM    4  C   UNK N   1      29.271  21.980  -5.993  0.00  0.00     0.018 A 
HETATM    5  C   UNK N   1      29.794  20.800  -6.556  0.00  0.00     0.044 A 
HETATM    6  C   UNK N   1      28.101  22.557  -6.535  0.00  0.00     0.043 A 
HETATM    7 Cl   UNK N   1      31.227  20.025  -5.897  0.00  0.00    -0.084 Cl
ENDROOT
BRANCH   4   8
HETATM    8  C   UNK N   1      29.929  22.617  -4.786  0.00  0.00     0.315 C 
BRANCH   8   9
HETATM    9  N   UNK N   1      30.934  23.651  -5.082  0.00  0.00     0.097 N 
HETATM   10  C   UNK N   1      32.294  23.266  -4.725  0.00  0.00     0.310 C 
BRANCH   9  11
HETATM   11  C   UNK N   1      30.616  24.883  -4.378  0.00  0.00     0.374 C 
BRANCH  11  12
HETATM   12  C   UNK N   1      30.068  25.923  -5.321  0.00  0.00     0.248 C 
HETATM   13  N   UNK N   1      29.732  27.179  -4.893  0.00  0.00    -0.347 N 
HETATM   14  C   UNK N   1      29.160  28.124  -5.848  0.00  0.00     0.152 C 
HETATM   15  C   UNK N   1      29.970  27.558  -3.500  0.00  0.00     0.152 C 
HETATM   16  C   UNK N   1      28.694  29.416  -5.179  0.00  0.00     0.187 C 
HETATM   17  O   UNK N   1      29.647  29.821  -4.243  0.00  0.00    -0.388 OA
HETATM   18  C   UNK N   1      29.453  28.957  -3.161  0.00  0.00     0.187 C 
HETATM   19  O   UNK N   1      29.896  25.610  -6.493  0.00  0.00    -0.271 OA
ENDBRANCH  11  12
ENDBRANCH   9  11
ENDBRANCH   8   9
ENDBRANCH   4   8
BRANCH   6  20
HETATM   20  N   UNK N   1      27.592  23.756  -5.948  0.00  0.00    -0.336 N 
HETATM   21  C   UNK N   1      26.359  24.047  -5.688  0.00  0.00     0.150 C 
ATOM     22  HN  UNK N   1      28.283  24.466  -5.707  1.00  0.00     0.168 HD
BRANCH  21  23
HETATM   23  C   UNK N   1      26.041  25.376  -5.126  0.00  0.00     0.015 A 
HETATM   24  C   UNK N   1      25.258  26.287  -5.848  0.00  0.00     0.016 A 
HETATM   25  C   UNK N   1      24.976  27.550  -5.315  0.00  0.00     0.001 A 
HETATM   26  C   UNK N   1      25.478  27.911  -4.062  0.00  0.00     0.000 A 
HETATM   27  C   UNK N   1      26.259  27.008  -3.337  0.00  0.00     0.001 A 
HETATM   28  C   UNK N   1      26.541  25.747  -3.866  0.00  0.00     0.016 A 
ENDBRANCH  21  23
BRANCH  21  29
HETATM   29  O   UNK N   1      25.364  23.164  -5.922  0.00  0.00    -0.345 OA
HETATM   30  H   UNK N   1      24.778  22.899  -5.241  0.00  0.00     0.219 HD
ENDBRANCH  21  29
ENDBRANCH   6  20
TORSDOF 7
ENDMDL
MODEL 6
REMARK VINA RESULT:      -6.9      1.964      2.566
REMARK  7 active torsions:
REMARK  status: ('A' for Active; 'I' for Inactive)
REMARK    1  A    between atoms: C_17  and  C_14 
REMARK    2  A    between atoms: N_25  and  C_14 
REMARK    3  A    between atoms: C_20  and  C_15 
REMARK    4  A    between atoms: N_25  and  C_15 
REMARK    5  A    between atoms: C_21  and  C_16 
REMARK    6  A    between atoms: N_23  and  C_19 
REMARK       I    between atoms: N_26  and  C_20 
REMARK    7  A    between atoms: O_28  and  C_21 
ROOT
HETATM    1  C   UNK N   1      38.136  10.306  10.119  0.00  0.00     0.004 A 
HETATM    2  C   UNK N   1      37.547  11.169   9.194  0.00  0.00     0.024 A 
HETATM    3  C   UNK N   1      37.752  10.352  11.459  0.00  0.00     0.030 A 
HETATM    4  C   UNK N   1      36.166  12.123  10.949  0.00  0.00     0.018 A 
HETATM    5  C   UNK N   1      36.569  12.079   9.600  0.00  0.00     0.044 A 
HETATM    6  C   UNK N   1      36.770  11.260  11.890  0.00  0.00     0.043 A 
HETATM    7 Cl   UNK N   1      35.872  13.155   8.399  0.00  0.00    -0.084 Cl
ENDROOT
BRANCH   4   8
HETATM    8  C   UNK N   1      35.117  13.115  11.409  0.00  0.00     0.315 C 
BRANCH   8   9
HETATM    9  N   UNK N   1      35.558  14.518  11.482  0.00  0.00     0.097 N 
HETATM   10  C   UNK N   1      36.150  14.880  12.765  0.00  0.00     0.310 C 
BRANCH   9  11
HETATM   11  C   UNK N   1      34.440  15.414  11.234  0.00  0.00     0.374 C 
BRANCH  11  12
HETATM   12  C   UNK N   1      34.804  16.471  10.224  0.00  0.00     0.248 C 
HETATM   13  N   UNK N   1      34.109  16.620   9.053  0.00  0.00    -0.347 N 
HETATM   14  C   UNK N   1      34.543  17.631   8.094  0.00  0.00     0.152 C 
HETATM   15  C   UNK N   1      32.937  15.782   8.796  0.00  0.00     0.152 C 
HETATM   16  C   UNK N   1      33.766  17.559   6.781  0.00  0.00     0.187 C 
HETATM   17  O   UNK N   1      32.412  17.356   7.057  0.00  0.00    -0.388 OA
HETATM   18  C   UNK N   1      32.333  16.006   7.408  0.00  0.00     0.187 C 
HETATM   19  O   UNK N   1      35.769  17.188  10.457  0.00  0.00    -0.271 OA
ENDBRANCH  11  12
ENDBRANCH   9  11
ENDBRANCH   8   9
ENDBRANCH   4   8
BRANCH   6  20
HETATM   20  N   UNK N   1      36.342  11.321  13.251  0.00  0.00    -0.336 N 
HETATM   21  C   UNK N   1      37.041  11.658  14.285  0.00  0.00     0.150 C 
ATOM     22  HN  UNK N   1      35.369  11.070  13.428  1.00  0.00     0.168 HD
BRANCH  21  23
HETATM   23  C   UNK N   1      36.414  11.601  15.622  0.00  0.00     0.015 A 
HETATM   24  C   UNK N   1      35.727  12.709  16.135  0.00  0.00     0.016 A 
HETATM   25  C   UNK N   1      35.152  12.653  17.409  0.00  0.00     0.001 A 
HETATM   26  C   UNK N   1      35.261  11.491  18.178  0.00  0.00     0.000 A 
HETATM   27  C   UNK N   1      35.944  10.382  17.673  0.00  0.00     0.001 A 
HETATM   28  C   UNK N   1      36.519  10.436  16.401  0.00  0.00     0.016 A 
ENDBRANCH  21  23
BRANCH  21  29
HETATM   29  O   UNK N   1      38.327  12.054  14.166  0.00  0.00    -0.345 OA
HETATM   30  H   UNK N   1      38.853  11.789  13.437  0.00  0.00     0.219 HD
ENDBRANCH  21  29
ENDBRANCH   6  20
TORSDOF 7
ENDMDL
MODEL 7
REMARK VINA RESULT:      -6.9     13.152     16.037
REMARK  7 active torsions:
REMARK  status: ('A' for Active; 'I' for Inactive)
REMARK    1  A    between atoms: C_17  and  C_14 
REMARK    2  A    between atoms: N_25  and  C_14 
REMARK    3  A    between atoms: C_20  and  C_15 
REMARK    4  A    between atoms: N_25  and  C_15 
REMARK    5  A    between atoms: C_21  and  C_16 
REMARK    6  A    between atoms: N_23  and  C_19 
REMARK       I    between atoms: N_26  and  C_20 
REMARK    7  A    between atoms: O_28  and  C_21 
ROOT
HETATM    1  C   UNK N   1      20.105  19.808   2.515  0.00  0.00     0.004 A 
HETATM    2  C   UNK N   1      19.705  18.477   2.394  0.00  0.00     0.024 A 
HETATM    3  C   UNK N   1      21.353  20.114   3.058  0.00  0.00     0.030 A 
HETATM    4  C   UNK N   1      21.816  17.744   3.343  0.00  0.00     0.018 A 
HETATM    5  C   UNK N   1      20.548  17.445   2.807  0.00  0.00     0.044 A 
HETATM    6  C   UNK N   1      22.219  19.091   3.480  0.00  0.00     0.043 A 
HETATM    7 Cl   UNK N   1      19.989  15.787   2.648  0.00  0.00    -0.084 Cl
ENDROOT
BRANCH   4   8
HETATM    8  C   UNK N   1      22.738  16.637   3.811  0.00  0.00     0.315 C 
BRANCH   8   9
HETATM    9  N   UNK N   1      22.770  16.408   5.265  0.00  0.00     0.097 N 
HETATM   10  C   UNK N   1      24.093  16.065   5.775  0.00  0.00     0.310 C 
BRANCH   9  11
HETATM   11  C   UNK N   1      21.855  15.339   5.630  0.00  0.00     0.374 C 
BRANCH  11  12
HETATM   12  C   UNK N   1      21.364  15.501   7.045  0.00  0.00     0.248 C 
HETATM   13  N   UNK N   1      21.500  14.506   7.975  0.00  0.00    -0.347 N 
HETATM   14  C   UNK N   1      20.959  14.708   9.316  0.00  0.00     0.152 C 
HETATM   15  C   UNK N   1      22.201  13.272   7.617  0.00  0.00     0.152 C 
HETATM   16  C   UNK N   1      21.050  13.450  10.176  0.00  0.00     0.187 C 
HETATM   17  O   UNK N   1      22.295  12.847   9.981  0.00  0.00    -0.388 OA
HETATM   18  C   UNK N   1      22.183  12.226   8.734  0.00  0.00     0.187 C 
HETATM   19  O   UNK N   1      20.802  16.547   7.347  0.00  0.00    -0.271 OA
ENDBRANCH  11  12
ENDBRANCH   9  11
ENDBRANCH   8   9
ENDBRANCH   4   8
BRANCH   6  20
HETATM   20  N   UNK N   1      23.510  19.370   4.023  0.00  0.00    -0.336 N 
HETATM   21  C   UNK N   1      24.445  20.098   3.505  0.00  0.00     0.150 C 
ATOM     22  HN  UNK N   1      23.720  18.944   4.926  1.00  0.00     0.168 HD
BRANCH  21  23
HETATM   23  C   UNK N   1      25.738  20.211   4.212  0.00  0.00     0.015 A 
HETATM   24  C   UNK N   1      25.853  21.002   5.364  0.00  0.00     0.016 A 
HETATM   25  C   UNK N   1      27.085  21.118   6.018  0.00  0.00     0.001 A 
HETATM   26  C   UNK N   1      28.208  20.448   5.523  0.00  0.00     0.000 A 
HETATM   27  C   UNK N   1      28.100  19.659   4.376  0.00  0.00     0.001 A 
HETATM   28  C   UNK N   1      26.871  19.541   3.723  0.00  0.00     0.016 A 
ENDBRANCH  21  23
BRANCH  21  29
HETATM   29  O   UNK N   1      24.263  20.748   2.336  0.00  0.00    -0.345 OA
HETATM   30  H   UNK N   1      24.814  21.464   2.085  0.00  0.00     0.219 HD
ENDBRANCH  21  29
ENDBRANCH   6  20
TORSDOF 7
ENDMDL
MODEL 8
REMARK VINA RESULT:      -6.8     14.307     18.580
REMARK  7 active torsions:
REMARK  status: ('A' for Active; 'I' for Inactive)
REMARK    1  A    between atoms: C_17  and  C_14 
REMARK    2  A    between atoms: N_25  and  C_14 
REMARK    3  A    between atoms: C_20  and  C_15 
REMARK    4  A    between atoms: N_25  and  C_15 
REMARK    5  A    between atoms: C_21  and  C_16 
REMARK    6  A    between atoms: N_23  and  C_19 
REMARK       I    between atoms: N_26  and  C_20 
REMARK    7  A    between atoms: O_28  and  C_21 
ROOT
HETATM    1  C   UNK N   1      19.963  19.704   3.065  0.00  0.00     0.004 A 
HETATM    2  C   UNK N   1      21.231  19.750   3.646  0.00  0.00     0.024 A 
HETATM    3  C   UNK N   1      19.477  18.504   2.546  0.00  0.00     0.030 A 
HETATM    4  C   UNK N   1      21.530  17.381   3.207  0.00  0.00     0.018 A 
HETATM    5  C   UNK N   1      22.018  18.599   3.716  0.00  0.00     0.044 A 
HETATM    6  C   UNK N   1      20.252  17.334   2.606  0.00  0.00     0.043 A 
HETATM    7 Cl   UNK N   1      23.614  18.716   4.442  0.00  0.00    -0.084 Cl
ENDROOT
BRANCH   4   8
HETATM    8  C   UNK N   1      22.377  16.125   3.262  0.00  0.00     0.315 C 
BRANCH   8   9
HETATM    9  N   UNK N   1      22.579  15.554   4.604  0.00  0.00     0.097 N 
HETATM   10  C   UNK N   1      23.782  14.736   4.717  0.00  0.00     0.310 C 
BRANCH   9  11
HETATM   11  C   UNK N   1      21.440  14.734   4.982  0.00  0.00     0.374 C 
BRANCH  11  12
HETATM   12  C   UNK N   1      20.809  15.232   6.257  0.00  0.00     0.248 C 
HETATM   13  N   UNK N   1      20.943  14.558   7.440  0.00  0.00    -0.347 N 
HETATM   14  C   UNK N   1      20.267  15.068   8.629  0.00  0.00     0.152 C 
HETATM   15  C   UNK N   1      21.776  13.355   7.498  0.00  0.00     0.152 C 
HETATM   16  C   UNK N   1      20.385  14.118   9.818  0.00  0.00     0.187 C 
HETATM   17  O   UNK N   1      21.689  13.622   9.885  0.00  0.00    -0.388 OA
HETATM   18  C   UNK N   1      21.745  12.669   8.865  0.00  0.00     0.187 C 
HETATM   19  O   UNK N   1      20.136  16.254   6.209  0.00  0.00    -0.271 OA
ENDBRANCH  11  12
ENDBRANCH   9  11
ENDBRANCH   8   9
ENDBRANCH   4   8
BRANCH   6  20
HETATM   20  N   UNK N   1      19.778  16.085   2.100  0.00  0.00    -0.336 N 
HETATM   21  C   UNK N   1      19.707  15.708   0.865  0.00  0.00     0.150 C 
ATOM     22  HN  UNK N   1      19.456  15.412   2.795  1.00  0.00     0.168 HD
BRANCH  21  23
HETATM   23  C   UNK N   1      19.128  14.385   0.553  0.00  0.00     0.015 A 
HETATM   24  C   UNK N   1      19.876  13.216   0.747  0.00  0.00     0.016 A 
HETATM   25  C   UNK N   1      19.326  11.968   0.432  0.00  0.00     0.001 A 
HETATM   26  C   UNK N   1      18.029  11.882  -0.080  0.00  0.00     0.000 A 
HETATM   27  C   UNK N   1      17.278  13.043  -0.276  0.00  0.00     0.001 A 
HETATM   28  C   UNK N   1      17.824  14.289   0.038  0.00  0.00     0.016 A 
ENDBRANCH  21  23
BRANCH  21  29
HETATM   29  O   UNK N   1      20.148  16.499  -0.138  0.00  0.00    -0.345 OA
HETATM   30  H   UNK N   1      19.562  16.831  -0.789  0.00  0.00     0.219 HD
ENDBRANCH  21  29
ENDBRANCH   6  20
TORSDOF 7
ENDMDL
MODEL 9
REMARK VINA RESULT:      -6.7      3.795      6.799
REMARK  7 active torsions:
REMARK  status: ('A' for Active; 'I' for Inactive)
REMARK    1  A    between atoms: C_17  and  C_14 
REMARK    2  A    between atoms: N_25  and  C_14 
REMARK    3  A    between atoms: C_20  and  C_15 
REMARK    4  A    between atoms: N_25  and  C_15 
REMARK    5  A    between atoms: C_21  and  C_16 
REMARK    6  A    between atoms: N_23  and  C_19 
REMARK       I    between atoms: N_26  and  C_20 
REMARK    7  A    between atoms: O_28  and  C_21 
ROOT
HETATM    1  C   UNK N   1      34.967  13.533  18.918  0.00  0.00     0.004 A 
HETATM    2  C   UNK N   1      35.337  12.371  19.596  0.00  0.00     0.024 A 
HETATM    3  C   UNK N   1      35.109  13.608  17.533  0.00  0.00     0.030 A 
HETATM    4  C   UNK N   1      35.979  11.339  17.494  0.00  0.00     0.018 A 
HETATM    5  C   UNK N   1      35.846  11.276  18.895  0.00  0.00     0.044 A 
HETATM    6  C   UNK N   1      35.618  12.519  16.807  0.00  0.00     0.043 A 
HETATM    7 Cl   UNK N   1      36.313   9.843  19.798  0.00  0.00    -0.084 Cl
ENDROOT
BRANCH   4   8
HETATM    8  C   UNK N   1      36.544  10.165  16.719  0.00  0.00     0.315 C 
BRANCH   8   9
HETATM    9  N   UNK N   1      35.550   9.211  16.198  0.00  0.00     0.097 N 
HETATM   10  C   UNK N   1      35.529   7.939  16.910  0.00  0.00     0.310 C 
BRANCH   9  11
HETATM   11  C   UNK N   1      35.800   8.937  14.792  0.00  0.00     0.374 C 
BRANCH  11  12
HETATM   12  C   UNK N   1      34.789   9.626  13.914  0.00  0.00     0.248 C 
HETATM   13  N   UNK N   1      34.815   9.504  12.550  0.00  0.00    -0.347 N 
HETATM   14  C   UNK N   1      33.835  10.237  11.754  0.00  0.00     0.152 C 
HETATM   15  C   UNK N   1      35.804   8.628  11.920  0.00  0.00     0.152 C 
HETATM   16  C   UNK N   1      34.101  10.121  10.254  0.00  0.00     0.187 C 
HETATM   17  O   UNK N   1      34.442   8.802   9.947  0.00  0.00    -0.388 OA
HETATM   18  C   UNK N   1      35.761   8.677  10.392  0.00  0.00     0.187 C 
HETATM   19  O   UNK N   1      33.946  10.336  14.448  0.00  0.00    -0.271 OA
ENDBRANCH  11  12
ENDBRANCH   9  11
ENDBRANCH   8   9
ENDBRANCH   4   8
BRANCH   6  20
HETATM   20  N   UNK N   1      35.760  12.556  15.386  0.00  0.00    -0.336 N 
HETATM   21  C   UNK N   1      36.617  13.234  14.695  0.00  0.00     0.150 C 
ATOM     22  HN  UNK N   1      35.107  11.980  14.854  1.00  0.00     0.168 HD
BRANCH  21  23
HETATM   23  C   UNK N   1      36.555  13.172  13.220  0.00  0.00     0.015 A 
HETATM   24  C   UNK N   1      37.212  12.149  12.521  0.00  0.00     0.016 A 
HETATM   25  C   UNK N   1      37.163  12.108  11.123  0.00  0.00     0.001 A 
HETATM   26  C   UNK N   1      36.461  13.088  10.416  0.00  0.00     0.000 A 
HETATM   27  C   UNK N   1      35.805  14.110  11.106  0.00  0.00     0.001 A 
HETATM   28  C   UNK N   1      35.852  14.153  12.501  0.00  0.00     0.016 A 
ENDBRANCH  21  23
BRANCH  21  29
HETATM   29  O   UNK N   1      37.558  13.995  15.293  0.00  0.00    -0.345 OA
HETATM   30  H   UNK N   1      37.612  14.917  15.135  0.00  0.00     0.219 HD
ENDBRANCH  21  29
ENDBRANCH   6  20
TORSDOF 7
ENDMDL
