MODEL 1
REMARK VINA RESULT:      -6.3      0.000      0.000
REMARK  15 active torsions:
REMARK  status: ('A' for Active; 'I' for Inactive)
REMARK    1  A    between atoms: C_1  and  C_4 
REMARK    2  A    between atoms: C_2  and  C_6 
REMARK    3  A    between atoms: C_4  and  C_17 
REMARK    4  A    between atoms: C_5  and  O_9 
REMARK    5  A    between atoms: C_10  and  C_11 
REMARK    6  A    between atoms: C_11  and  C_12 
REMARK    7  A    between atoms: C_11  and  O_24 
REMARK    8  A    between atoms: C_12  and  C_13 
REMARK    9  A    between atoms: C_13  and  C_14 
REMARK   10  A    between atoms: C_14  and  C_15 
REMARK   11  A    between atoms: C_17  and  C_18 
REMARK   12  A    between atoms: C_18  and  C_19 
REMARK   13  A    between atoms: C_19  and  C_20 
REMARK   14  A    between atoms: C_21  and  C_22 
REMARK   15  A    between atoms: C_22  and  O_23 
ROOT
HETATM    1  C   UNK N   1      28.643  18.575   5.069  0.00  0.00     0.065 C 
HETATM    2  C   UNK N   1      28.266  18.193   6.489  0.00  0.00     0.048 C 
HETATM    3  C   UNK N   1      27.829  19.814   4.954  0.00  0.00     0.134 C 
HETATM    4  C   UNK N   1      28.125  19.497   7.249  0.00  0.00     0.133 C 
HETATM    5  C   UNK N   1      27.373  20.376   6.257  0.00  0.00     0.111 C 
HETATM    6  O   UNK N   1      27.587  20.356   3.887  0.00  0.00    -0.297 OA
ENDROOT
BRANCH   2   7
HETATM    7  C   UNK N   1      29.053  17.102   7.132  0.00  0.00    -0.020 C 
HETATM    8  C   UNK N   1      30.353  17.325   7.320  0.00  0.00     0.002 C 
BRANCH   8   9
HETATM    9  C   UNK N   1      31.247  16.423   8.120  0.00  0.00     0.148 C 
BRANCH   9  10
HETATM   10  C   UNK N   1      32.746  16.575   7.792  0.00  0.00    -0.018 C 
HETATM   11  C   UNK N   1      33.587  15.634   8.648  0.00  0.00     0.018 C 
HETATM   12  C   UNK N   1      33.187  18.014   8.044  0.00  0.00     0.018 C 
BRANCH  10  13
HETATM   13  C   UNK N   1      32.932  16.252   6.308  0.00  0.00     0.011 C 
BRANCH  13  14
HETATM   14  C   UNK N   1      33.454  17.418   5.480  0.00  0.00     0.000 C 
BRANCH  14  15
HETATM   15  C   UNK N   1      32.516  17.657   4.317  0.00  0.00    -0.005 C 
HETATM   16  C   UNK N   1      32.851  16.696   3.198  0.00  0.00     0.005 C 
ENDBRANCH  14  15
ENDBRANCH  13  14
ENDBRANCH  10  13
ENDBRANCH   9  10
BRANCH   9  17
HETATM   17  O   UNK N   1      30.996  16.546   9.490  0.00  0.00    -0.391 OA
HETATM   18  H   UNK N   1      31.388  16.645  10.371  0.00  0.00     0.210 HD
ENDBRANCH   9  17
ENDBRANCH   8   9
ENDBRANCH   2   7
BRANCH   1  19
HETATM   19  C   UNK N   1      28.215  17.505   4.073  0.00  0.00     0.013 C 
BRANCH  19  20
HETATM   20  C   UNK N   1      26.790  17.065   4.357  0.00  0.00     0.001 C 
BRANCH  20  21
HETATM   21  C   UNK N   1      25.955  17.187   3.094  0.00  0.00     0.004 C 
BRANCH  21  22
HETATM   22  C   UNK N   1      24.534  17.587   3.442  0.00  0.00     0.027 C 
BRANCH  22  23
HETATM   23  C   UNK N   1      24.561  18.644   4.501  0.00  0.00    -0.021 C 
HETATM   24  C   UNK N   1      24.291  19.941   4.285  0.00  0.00     0.078 C 
BRANCH  24  25
HETATM   25  C   UNK N   1      23.950  20.553   2.983  0.00  0.00     0.282 C 
HETATM   26  O   UNK N   1      24.789  20.648   2.094  0.00  0.00    -0.260 OA
BRANCH  25  27
HETATM   27  O   UNK N   1      22.692  21.009   2.790  0.00  0.00    -0.323 OA
HETATM   28  C   UNK N   1      21.631  20.172   2.529  0.00  0.00     0.213 C 
ENDBRANCH  25  27
ENDBRANCH  24  25
ENDBRANCH  22  23
ENDBRANCH  21  22
ENDBRANCH  20  21
ENDBRANCH  19  20
ENDBRANCH   1  19
BRANCH   4  29
HETATM   29  O   UNK N   1      27.380  19.323   8.416  0.00  0.00    -0.394 OA
HETATM   30  H   UNK N   1      26.516  18.916   8.585  0.00  0.00     0.210 HD
ENDBRANCH   4  29
TORSDOF 15
ENDMDL
MODEL 2
REMARK VINA RESULT:      -6.0      2.881      7.450
REMARK  15 active torsions:
REMARK  status: ('A' for Active; 'I' for Inactive)
REMARK    1  A    between atoms: C_1  and  C_4 
REMARK    2  A    between atoms: C_2  and  C_6 
REMARK    3  A    between atoms: C_4  and  C_17 
REMARK    4  A    between atoms: C_5  and  O_9 
REMARK    5  A    between atoms: C_10  and  C_11 
REMARK    6  A    between atoms: C_11  and  C_12 
REMARK    7  A    between atoms: C_11  and  O_24 
REMARK    8  A    between atoms: C_12  and  C_13 
REMARK    9  A    between atoms: C_13  and  C_14 
REMARK   10  A    between atoms: C_14  and  C_15 
REMARK   11  A    between atoms: C_17  and  C_18 
REMARK   12  A    between atoms: C_18  and  C_19 
REMARK   13  A    between atoms: C_19  and  C_20 
REMARK   14  A    between atoms: C_21  and  C_22 
REMARK   15  A    between atoms: C_22  and  O_23 
ROOT
HETATM    1  C   UNK N   1      32.341  17.015   5.962  0.00  0.00     0.065 C 
HETATM    2  C   UNK N   1      31.169  17.165   6.914  0.00  0.00     0.048 C 
HETATM    3  C   UNK N   1      33.396  17.620   6.819  0.00  0.00     0.134 C 
HETATM    4  C   UNK N   1      31.727  16.938   8.305  0.00  0.00     0.133 C 
HETATM    5  C   UNK N   1      33.038  17.713   8.264  0.00  0.00     0.111 C 
HETATM    6  O   UNK N   1      34.482  17.973   6.390  0.00  0.00    -0.297 OA
ENDROOT
BRANCH   2   7
HETATM    7  C   UNK N   1      29.906  16.458   6.554  0.00  0.00    -0.020 C 
HETATM    8  C   UNK N   1      28.833  17.213   6.331  0.00  0.00     0.002 C 
BRANCH   8   9
HETATM    9  C   UNK N   1      27.542  16.687   5.774  0.00  0.00     0.148 C 
BRANCH   9  10
HETATM   10  C   UNK N   1      27.133  17.323   4.431  0.00  0.00    -0.018 C 
HETATM   11  C   UNK N   1      25.651  17.684   4.431  0.00  0.00     0.018 C 
HETATM   12  C   UNK N   1      27.413  16.347   3.291  0.00  0.00     0.018 C 
BRANCH  10  13
HETATM   13  C   UNK N   1      27.985  18.577   4.231  0.00  0.00     0.011 C 
BRANCH  13  14
HETATM   14  C   UNK N   1      27.193  19.876   4.248  0.00  0.00     0.000 C 
BRANCH  14  15
HETATM   15  C   UNK N   1      27.701  20.751   5.372  0.00  0.00    -0.005 C 
HETATM   16  C   UNK N   1      26.879  20.495   6.616  0.00  0.00     0.005 C 
ENDBRANCH  14  15
ENDBRANCH  13  14
ENDBRANCH  10  13
ENDBRANCH   9  10
BRANCH   9  17
HETATM   17  O   UNK N   1      27.550  15.290   5.712  0.00  0.00    -0.391 OA
HETATM   18  H   UNK N   1      27.256  14.467   6.131  0.00  0.00     0.210 HD
ENDBRANCH   9  17
ENDBRANCH   8   9
ENDBRANCH   2   7
BRANCH   1  19
HETATM   19  C   UNK N   1      32.119  17.800   4.676  0.00  0.00     0.013 C 
BRANCH  19  20
HETATM   20  C   UNK N   1      32.378  16.914   3.471  0.00  0.00     0.001 C 
BRANCH  20  21
HETATM   21  C   UNK N   1      31.062  16.358   2.954  0.00  0.00     0.004 C 
BRANCH  21  22
HETATM   22  C   UNK N   1      30.940  14.888   3.307  0.00  0.00     0.027 C 
BRANCH  22  23
HETATM   23  C   UNK N   1      32.294  14.251   3.254  0.00  0.00    -0.021 C 
HETATM   24  C   UNK N   1      32.739  13.343   4.137  0.00  0.00     0.078 C 
BRANCH  24  25
HETATM   25  C   UNK N   1      31.999  12.837   5.312  0.00  0.00     0.282 C 
HETATM   26  O   UNK N   1      31.394  11.770   5.264  0.00  0.00    -0.260 OA
BRANCH  25  27
HETATM   27  O   UNK N   1      31.999  13.574   6.446  0.00  0.00    -0.323 OA
HETATM   28  C   UNK N   1      33.063  13.594   7.318  0.00  0.00     0.213 C 
ENDBRANCH  25  27
ENDBRANCH  24  25
ENDBRANCH  22  23
ENDBRANCH  21  22
ENDBRANCH  20  21
ENDBRANCH  19  20
ENDBRANCH   1  19
BRANCH   4  29
HETATM   29  O   UNK N   1      30.877  17.458   9.281  0.00  0.00    -0.394 OA
HETATM   30  H   UNK N   1      30.552  17.101  10.123  0.00  0.00     0.210 HD
ENDBRANCH   4  29
TORSDOF 15
ENDMDL
MODEL 3
REMARK VINA RESULT:      -6.0     10.514     13.973
REMARK  15 active torsions:
REMARK  status: ('A' for Active; 'I' for Inactive)
REMARK    1  A    between atoms: C_1  and  C_4 
REMARK    2  A    between atoms: C_2  and  C_6 
REMARK    3  A    between atoms: C_4  and  C_17 
REMARK    4  A    between atoms: C_5  and  O_9 
REMARK    5  A    between atoms: C_10  and  C_11 
REMARK    6  A    between atoms: C_11  and  C_12 
REMARK    7  A    between atoms: C_11  and  O_24 
REMARK    8  A    between atoms: C_12  and  C_13 
REMARK    9  A    between atoms: C_13  and  C_14 
REMARK   10  A    between atoms: C_14  and  C_15 
REMARK   11  A    between atoms: C_17  and  C_18 
REMARK   12  A    between atoms: C_18  and  C_19 
REMARK   13  A    between atoms: C_19  and  C_20 
REMARK   14  A    between atoms: C_21  and  C_22 
REMARK   15  A    between atoms: C_22  and  O_23 
ROOT
HETATM    1  C   UNK N   1      29.828  23.460  -3.715  0.00  0.00     0.065 C 
HETATM    2  C   UNK N   1      29.828  22.392  -4.794  0.00  0.00     0.048 C 
HETATM    3  C   UNK N   1      30.560  22.707  -2.662  0.00  0.00     0.134 C 
HETATM    4  C   UNK N   1      31.158  21.675  -4.671  0.00  0.00     0.133 C 
HETATM    5  C   UNK N   1      31.311  21.520  -3.163  0.00  0.00     0.111 C 
HETATM    6  O   UNK N   1      30.586  23.051  -1.492  0.00  0.00    -0.297 OA
ENDROOT
BRANCH   2   7
HETATM    7  C   UNK N   1      29.389  22.803  -6.158  0.00  0.00    -0.020 C 
HETATM    8  C   UNK N   1      28.294  22.220  -6.641  0.00  0.00     0.002 C 
BRANCH   8   9
HETATM    9  C   UNK N   1      27.607  22.651  -7.905  0.00  0.00     0.148 C 
BRANCH   9  10
HETATM   10  C   UNK N   1      26.135  23.063  -7.709  0.00  0.00    -0.018 C 
HETATM   11  C   UNK N   1      25.759  23.048  -6.231  0.00  0.00     0.018 C 
HETATM   12  C   UNK N   1      25.224  22.102  -8.469  0.00  0.00     0.018 C 
BRANCH  10  13
HETATM   13  C   UNK N   1      25.964  24.468  -8.287  0.00  0.00     0.011 C 
BRANCH  13  14
HETATM   14  C   UNK N   1      25.829  25.560  -7.235  0.00  0.00     0.000 C 
BRANCH  14  15
HETATM   15  C   UNK N   1      26.650  26.758  -7.658  0.00  0.00    -0.005 C 
HETATM   16  C   UNK N   1      27.986  26.724  -6.950  0.00  0.00     0.005 C 
ENDBRANCH  14  15
ENDBRANCH  13  14
ENDBRANCH  10  13
ENDBRANCH   9  10
BRANCH   9  17
HETATM   17  O   UNK N   1      28.343  23.637  -8.570  0.00  0.00    -0.391 OA
HETATM   18  H   UNK N   1      28.654  23.963  -9.428  0.00  0.00     0.210 HD
ENDBRANCH   9  17
ENDBRANCH   8   9
ENDBRANCH   2   7
BRANCH   1  19
HETATM   19  C   UNK N   1      28.410  23.821  -3.289  0.00  0.00     0.013 C 
BRANCH  19  20
HETATM   20  C   UNK N   1      28.081  25.240  -3.717  0.00  0.00     0.001 C 
BRANCH  20  21
HETATM   21  C   UNK N   1      26.581  25.463  -3.637  0.00  0.00     0.004 C 
BRANCH  21  22
HETATM   22  C   UNK N   1      26.284  26.843  -3.081  0.00  0.00     0.027 C 
BRANCH  22  23
HETATM   23  C   UNK N   1      25.632  27.675  -4.141  0.00  0.00    -0.021 C 
HETATM   24  C   UNK N   1      26.030  28.909  -4.487  0.00  0.00     0.078 C 
BRANCH  24  25
HETATM   25  C   UNK N   1      27.144  29.666  -3.878  0.00  0.00     0.282 C 
HETATM   26  O   UNK N   1      26.964  30.358  -2.882  0.00  0.00    -0.260 OA
BRANCH  25  27
HETATM   27  O   UNK N   1      28.370  29.583  -4.443  0.00  0.00    -0.323 OA
HETATM   28  C   UNK N   1      29.362  28.768  -3.947  0.00  0.00     0.213 C 
ENDBRANCH  25  27
ENDBRANCH  24  25
ENDBRANCH  22  23
ENDBRANCH  21  22
ENDBRANCH  20  21
ENDBRANCH  19  20
ENDBRANCH   1  19
BRANCH   4  29
HETATM   29  O   UNK N   1      31.117  20.427  -5.293  0.00  0.00    -0.394 OA
HETATM   30  H   UNK N   1      30.907  20.156  -6.201  0.00  0.00     0.210 HD
ENDBRANCH   4  29
TORSDOF 15
ENDMDL
MODEL 4
REMARK VINA RESULT:      -6.0      2.148      2.427
REMARK  15 active torsions:
REMARK  status: ('A' for Active; 'I' for Inactive)
REMARK    1  A    between atoms: C_1  and  C_4 
REMARK    2  A    between atoms: C_2  and  C_6 
REMARK    3  A    between atoms: C_4  and  C_17 
REMARK    4  A    between atoms: C_5  and  O_9 
REMARK    5  A    between atoms: C_10  and  C_11 
REMARK    6  A    between atoms: C_11  and  C_12 
REMARK    7  A    between atoms: C_11  and  O_24 
REMARK    8  A    between atoms: C_12  and  C_13 
REMARK    9  A    between atoms: C_13  and  C_14 
REMARK   10  A    between atoms: C_14  and  C_15 
REMARK   11  A    between atoms: C_17  and  C_18 
REMARK   12  A    between atoms: C_18  and  C_19 
REMARK   13  A    between atoms: C_19  and  C_20 
REMARK   14  A    between atoms: C_21  and  C_22 
REMARK   15  A    between atoms: C_22  and  O_23 
ROOT
HETATM    1  C   UNK N   1      28.084  18.820   4.929  0.00  0.00     0.065 C 
HETATM    2  C   UNK N   1      27.626  18.769   6.375  0.00  0.00     0.048 C 
HETATM    3  C   UNK N   1      27.328  20.028   4.503  0.00  0.00     0.134 C 
HETATM    4  C   UNK N   1      27.502  20.211   6.825  0.00  0.00     0.133 C 
HETATM    5  C   UNK N   1      26.835  20.874   5.627  0.00  0.00     0.111 C 
HETATM    6  O   UNK N   1      27.159  20.331   3.333  0.00  0.00    -0.297 OA
ENDROOT
BRANCH   2   7
HETATM    7  C   UNK N   1      28.336  17.822   7.281  0.00  0.00    -0.020 C 
HETATM    8  C   UNK N   1      29.661  17.931   7.350  0.00  0.00     0.002 C 
BRANCH   8   9
HETATM    9  C   UNK N   1      30.509  17.196   8.347  0.00  0.00     0.148 C 
BRANCH   9  10
HETATM   10  C   UNK N   1      31.939  16.897   7.855  0.00  0.00    -0.018 C 
HETATM   11  C   UNK N   1      32.446  15.578   8.428  0.00  0.00     0.018 C 
HETATM   12  C   UNK N   1      32.878  18.024   8.278  0.00  0.00     0.018 C 
BRANCH  10  13
HETATM   13  C   UNK N   1      31.901  16.832   6.327  0.00  0.00     0.011 C 
BRANCH  13  14
HETATM   14  C   UNK N   1      33.150  17.378   5.651  0.00  0.00     0.000 C 
BRANCH  14  15
HETATM   15  C   UNK N   1      32.871  17.567   4.176  0.00  0.00    -0.005 C 
HETATM   16  C   UNK N   1      31.433  17.199   3.888  0.00  0.00     0.005 C 
ENDBRANCH  14  15
ENDBRANCH  13  14
ENDBRANCH  10  13
ENDBRANCH   9  10
BRANCH   9  17
HETATM   17  O   UNK N   1      30.506  17.841   9.587  0.00  0.00    -0.391 OA
HETATM   18  H   UNK N   1      30.466  17.729  10.549  0.00  0.00     0.210 HD
ENDBRANCH   9  17
ENDBRANCH   8   9
ENDBRANCH   2   7
BRANCH   1  19
HETATM   19  C   UNK N   1      27.661  17.572   4.165  0.00  0.00     0.013 C 
BRANCH  19  20
HETATM   20  C   UNK N   1      26.327  17.067   4.686  0.00  0.00     0.001 C 
BRANCH  20  21
HETATM   21  C   UNK N   1      25.286  17.141   3.583  0.00  0.00     0.004 C 
BRANCH  21  22
HETATM   22  C   UNK N   1      23.907  17.354   4.177  0.00  0.00     0.027 C 
BRANCH  22  23
HETATM   23  C   UNK N   1      23.729  16.447   5.355  0.00  0.00    -0.021 C 
HETATM   24  C   UNK N   1      22.665  16.467   6.173  0.00  0.00     0.078 C 
BRANCH  24  25
HETATM   25  C   UNK N   1      21.512  17.387   6.078  0.00  0.00     0.282 C 
HETATM   26  O   UNK N   1      21.509  18.456   6.680  0.00  0.00    -0.260 OA
BRANCH  25  27
HETATM   27  O   UNK N   1      20.456  17.026   5.314  0.00  0.00    -0.323 OA
HETATM   28  C   UNK N   1      19.534  16.088   5.718  0.00  0.00     0.213 C 
ENDBRANCH  25  27
ENDBRANCH  24  25
ENDBRANCH  22  23
ENDBRANCH  21  22
ENDBRANCH  20  21
ENDBRANCH  19  20
ENDBRANCH   1  19
BRANCH   4  29
HETATM   29  O   UNK N   1      26.697  20.317   7.959  0.00  0.00    -0.394 OA
HETATM   30  H   UNK N   1      25.779  20.607   8.085  0.00  0.00     0.210 HD
ENDBRANCH   4  29
TORSDOF 15
ENDMDL
MODEL 5
REMARK VINA RESULT:      -5.9     10.842     13.938
REMARK  15 active torsions:
REMARK  status: ('A' for Active; 'I' for Inactive)
REMARK    1  A    between atoms: C_1  and  C_4 
REMARK    2  A    between atoms: C_2  and  C_6 
REMARK    3  A    between atoms: C_4  and  C_17 
REMARK    4  A    between atoms: C_5  and  O_9 
REMARK    5  A    between atoms: C_10  and  C_11 
REMARK    6  A    between atoms: C_11  and  C_12 
REMARK    7  A    between atoms: C_11  and  O_24 
REMARK    8  A    between atoms: C_12  and  C_13 
REMARK    9  A    between atoms: C_13  and  C_14 
REMARK   10  A    between atoms: C_14  and  C_15 
REMARK   11  A    between atoms: C_17  and  C_18 
REMARK   12  A    between atoms: C_18  and  C_19 
REMARK   13  A    between atoms: C_19  and  C_20 
REMARK   14  A    between atoms: C_21  and  C_22 
REMARK   15  A    between atoms: C_22  and  O_23 
ROOT
HETATM    1  C   UNK N   1      30.009  22.734  -5.083  0.00  0.00     0.065 C 
HETATM    2  C   UNK N   1      29.632  23.365  -3.755  0.00  0.00     0.048 C 
HETATM    3  C   UNK N   1      31.382  22.285  -4.729  0.00  0.00     0.134 C 
HETATM    4  C   UNK N   1      30.270  22.502  -2.685  0.00  0.00     0.133 C 
HETATM    5  C   UNK N   1      31.653  22.231  -3.264  0.00  0.00     0.111 C 
HETATM    6  O   UNK N   1      32.208  21.946  -5.560  0.00  0.00    -0.297 OA
ENDROOT
BRANCH   2   7
HETATM    7  C   UNK N   1      28.204  23.754  -3.568  0.00  0.00    -0.020 C 
HETATM    8  C   UNK N   1      27.918  25.052  -3.632  0.00  0.00     0.002 C 
BRANCH   8   9
HETATM    9  C   UNK N   1      26.520  25.599  -3.660  0.00  0.00     0.148 C 
BRANCH   9  10
HETATM   10  C   UNK N   1      26.374  26.907  -4.461  0.00  0.00    -0.018 C 
HETATM   11  C   UNK N   1      26.306  28.111  -3.528  0.00  0.00     0.018 C 
HETATM   12  C   UNK N   1      25.105  26.855  -5.308  0.00  0.00     0.018 C 
BRANCH  10  13
HETATM   13  C   UNK N   1      27.584  27.022  -5.389  0.00  0.00     0.011 C 
BRANCH  13  14
HETATM   14  C   UNK N   1      27.234  27.377  -6.826  0.00  0.00     0.000 C 
BRANCH  14  15
HETATM   15  C   UNK N   1      28.213  28.413  -7.332  0.00  0.00    -0.005 C 
HETATM   16  C   UNK N   1      28.309  29.542  -6.330  0.00  0.00     0.005 C 
ENDBRANCH  14  15
ENDBRANCH  13  14
ENDBRANCH  10  13
ENDBRANCH   9  10
BRANCH   9  17
HETATM   17  O   UNK N   1      25.604  24.626  -4.073  0.00  0.00    -0.391 OA
HETATM   18  H   UNK N   1      24.723  24.459  -4.442  0.00  0.00     0.210 HD
ENDBRANCH   9  17
ENDBRANCH   8   9
ENDBRANCH   2   7
BRANCH   1  19
HETATM   19  C   UNK N   1      30.007  23.760  -6.209  0.00  0.00     0.013 C 
BRANCH  19  20
HETATM   20  C   UNK N   1      29.399  23.159  -7.464  0.00  0.00     0.001 C 
BRANCH  20  21
HETATM   21  C   UNK N   1      28.598  21.921  -7.101  0.00  0.00     0.004 C 
BRANCH  21  22
HETATM   22  C   UNK N   1      27.199  22.011  -7.681  0.00  0.00     0.027 C 
BRANCH  22  23
HETATM   23  C   UNK N   1      26.425  23.060  -6.945  0.00  0.00    -0.021 C 
HETATM   24  C   UNK N   1      25.783  24.081  -7.534  0.00  0.00     0.078 C 
BRANCH  24  25
HETATM   25  C   UNK N   1      25.747  24.365  -8.984  0.00  0.00     0.282 C 
HETATM   26  O   UNK N   1      24.775  24.050  -9.664  0.00  0.00    -0.260 OA
BRANCH  25  27
HETATM   27  O   UNK N   1      26.810  24.980  -9.552  0.00  0.00    -0.323 OA
HETATM   28  C   UNK N   1      26.694  26.145 -10.273  0.00  0.00     0.213 C 
ENDBRANCH  25  27
ENDBRANCH  24  25
ENDBRANCH  22  23
ENDBRANCH  21  22
ENDBRANCH  20  21
ENDBRANCH  19  20
ENDBRANCH   1  19
BRANCH   4  29
HETATM   29  O   UNK N   1      30.368  23.190  -1.476  0.00  0.00    -0.394 OA
HETATM   30  H   UNK N   1      29.756  23.289  -0.729  0.00  0.00     0.210 HD
ENDBRANCH   4  29
TORSDOF 15
ENDMDL
MODEL 6
REMARK VINA RESULT:      -5.9     10.867     14.775
REMARK  15 active torsions:
REMARK  status: ('A' for Active; 'I' for Inactive)
REMARK    1  A    between atoms: C_1  and  C_4 
REMARK    2  A    between atoms: C_2  and  C_6 
REMARK    3  A    between atoms: C_4  and  C_17 
REMARK    4  A    between atoms: C_5  and  O_9 
REMARK    5  A    between atoms: C_10  and  C_11 
REMARK    6  A    between atoms: C_11  and  C_12 
REMARK    7  A    between atoms: C_11  and  O_24 
REMARK    8  A    between atoms: C_12  and  C_13 
REMARK    9  A    between atoms: C_13  and  C_14 
REMARK   10  A    between atoms: C_14  and  C_15 
REMARK   11  A    between atoms: C_17  and  C_18 
REMARK   12  A    between atoms: C_18  and  C_19 
REMARK   13  A    between atoms: C_19  and  C_20 
REMARK   14  A    between atoms: C_21  and  C_22 
REMARK   15  A    between atoms: C_22  and  O_23 
ROOT
HETATM    1  C   UNK N   1      25.829  27.286  -5.151  0.00  0.00     0.065 C 
HETATM    2  C   UNK N   1      27.053  27.649  -5.972  0.00  0.00     0.048 C 
HETATM    3  C   UNK N   1      26.041  28.227  -4.018  0.00  0.00     0.134 C 
HETATM    4  C   UNK N   1      27.246  29.142  -5.798  0.00  0.00     0.133 C 
HETATM    5  C   UNK N   1      26.997  29.334  -4.307  0.00  0.00     0.111 C 
HETATM    6  O   UNK N   1      25.452  28.132  -2.953  0.00  0.00    -0.297 OA
ENDROOT
BRANCH   2   7
HETATM    7  C   UNK N   1      27.129  27.100  -7.357  0.00  0.00    -0.020 C 
HETATM    8  C   UNK N   1      27.883  26.018  -7.538  0.00  0.00     0.002 C 
BRANCH   8   9
HETATM    9  C   UNK N   1      27.918  25.228  -8.813  0.00  0.00     0.148 C 
BRANCH   9  10
HETATM   10  C   UNK N   1      27.442  23.769  -8.661  0.00  0.00    -0.018 C 
HETATM   11  C   UNK N   1      28.458  22.946  -7.876  0.00  0.00     0.018 C 
HETATM   12  C   UNK N   1      27.244  23.144 -10.039  0.00  0.00     0.018 C 
BRANCH  10  13
HETATM   13  C   UNK N   1      26.099  23.792  -7.930  0.00  0.00     0.011 C 
BRANCH  13  14
HETATM   14  C   UNK N   1      25.915  22.658  -6.932  0.00  0.00     0.000 C 
BRANCH  14  15
HETATM   15  C   UNK N   1      24.851  21.715  -7.447  0.00  0.00    -0.005 C 
HETATM   16  C   UNK N   1      25.513  20.529  -8.114  0.00  0.00     0.005 C 
ENDBRANCH  14  15
ENDBRANCH  13  14
ENDBRANCH  10  13
ENDBRANCH   9  10
BRANCH   9  17
HETATM   17  O   UNK N   1      27.242  25.894  -9.840  0.00  0.00    -0.391 OA
HETATM   18  H   UNK N   1      26.631  25.806 -10.588  0.00  0.00     0.210 HD
ENDBRANCH   9  17
ENDBRANCH   8   9
ENDBRANCH   2   7
BRANCH   1  19
HETATM   19  C   UNK N   1      25.867  25.829  -4.708  0.00  0.00     0.013 C 
BRANCH  19  20
HETATM   20  C   UNK N   1      27.180  25.528  -4.009  0.00  0.00     0.001 C 
BRANCH  20  21
HETATM   21  C   UNK N   1      27.262  24.045  -3.692  0.00  0.00     0.004 C 
BRANCH  21  22
HETATM   22  C   UNK N   1      28.505  23.442  -4.319  0.00  0.00     0.027 C 
BRANCH  22  23
HETATM   23  C   UNK N   1      29.659  24.375  -4.128  0.00  0.00    -0.021 C 
HETATM   24  C   UNK N   1      30.642  24.190  -3.232  0.00  0.00     0.078 C 
BRANCH  24  25
HETATM   25  C   UNK N   1      30.747  23.068  -2.275  0.00  0.00     0.282 C 
HETATM   26  O   UNK N   1      30.012  23.006  -1.295  0.00  0.00    -0.260 OA
BRANCH  25  27
HETATM   27  O   UNK N   1      31.673  22.108  -2.500  0.00  0.00    -0.323 OA
HETATM   28  C   UNK N   1      31.810  21.479  -3.716  0.00  0.00     0.213 C 
ENDBRANCH  25  27
ENDBRANCH  24  25
ENDBRANCH  22  23
ENDBRANCH  21  22
ENDBRANCH  20  21
ENDBRANCH  19  20
ENDBRANCH   1  19
BRANCH   4  29
HETATM   29  O   UNK N   1      28.545  29.524  -6.134  0.00  0.00    -0.394 OA
HETATM   30  H   UNK N   1      29.093  30.281  -5.871  0.00  0.00     0.210 HD
ENDBRANCH   4  29
TORSDOF 15
ENDMDL
MODEL 7
REMARK VINA RESULT:      -5.9     10.544     13.554
REMARK  15 active torsions:
REMARK  status: ('A' for Active; 'I' for Inactive)
REMARK    1  A    between atoms: C_1  and  C_4 
REMARK    2  A    between atoms: C_2  and  C_6 
REMARK    3  A    between atoms: C_4  and  C_17 
REMARK    4  A    between atoms: C_5  and  O_9 
REMARK    5  A    between atoms: C_10  and  C_11 
REMARK    6  A    between atoms: C_11  and  C_12 
REMARK    7  A    between atoms: C_11  and  O_24 
REMARK    8  A    between atoms: C_12  and  C_13 
REMARK    9  A    between atoms: C_13  and  C_14 
REMARK   10  A    between atoms: C_14  and  C_15 
REMARK   11  A    between atoms: C_17  and  C_18 
REMARK   12  A    between atoms: C_18  and  C_19 
REMARK   13  A    between atoms: C_19  and  C_20 
REMARK   14  A    between atoms: C_21  and  C_22 
REMARK   15  A    between atoms: C_22  and  O_23 
ROOT
HETATM    1  C   UNK N   1      29.468  23.527  -3.497  0.00  0.00     0.065 C 
HETATM    2  C   UNK N   1      29.631  22.608  -4.693  0.00  0.00     0.048 C 
HETATM    3  C   UNK N   1      30.385  22.828  -2.558  0.00  0.00     0.134 C 
HETATM    4  C   UNK N   1      31.082  22.167  -4.687  0.00  0.00     0.133 C 
HETATM    5  C   UNK N   1      31.333  21.881  -3.212  0.00  0.00     0.111 C 
HETATM    6  O   UNK N   1      30.396  23.038  -1.355  0.00  0.00    -0.297 OA
ENDROOT
BRANCH   2   7
HETATM    7  C   UNK N   1      29.056  23.069  -5.989  0.00  0.00    -0.020 C 
HETATM    8  C   UNK N   1      28.184  22.259  -6.585  0.00  0.00     0.002 C 
BRANCH   8   9
HETATM    9  C   UNK N   1      27.369  22.646  -7.785  0.00  0.00     0.148 C 
BRANCH   9  10
HETATM   10  C   UNK N   1      27.141  21.497  -8.786  0.00  0.00    -0.018 C 
HETATM   11  C   UNK N   1      27.399  21.963 -10.216  0.00  0.00     0.018 C 
HETATM   12  C   UNK N   1      25.705  20.990  -8.673  0.00  0.00     0.018 C 
BRANCH  10  13
HETATM   13  C   UNK N   1      28.097  20.362  -8.417  0.00  0.00     0.011 C 
BRANCH  13  14
HETATM   14  C   UNK N   1      29.269  20.201  -9.374  0.00  0.00     0.000 C 
BRANCH  14  15
HETATM   15  C   UNK N   1      30.039  18.951  -9.008  0.00  0.00    -0.005 C 
HETATM   16  C   UNK N   1      29.471  18.370  -7.732  0.00  0.00     0.005 C 
ENDBRANCH  14  15
ENDBRANCH  13  14
ENDBRANCH  10  13
ENDBRANCH   9  10
BRANCH   9  17
HETATM   17  O   UNK N   1      26.169  23.256  -7.405  0.00  0.00    -0.391 OA
HETATM   18  H   UNK N   1      25.379  23.730  -7.708  0.00  0.00     0.210 HD
ENDBRANCH   9  17
ENDBRANCH   8   9
ENDBRANCH   2   7
BRANCH   1  19
HETATM   19  C   UNK N   1      28.029  23.543  -2.997  0.00  0.00     0.013 C 
BRANCH  19  20
HETATM   20  C   UNK N   1      27.404  24.904  -3.244  0.00  0.00     0.001 C 
BRANCH  20  21
HETATM   21  C   UNK N   1      26.339  24.791  -4.320  0.00  0.00     0.004 C 
BRANCH  21  22
HETATM   22  C   UNK N   1      26.608  25.787  -5.432  0.00  0.00     0.027 C 
BRANCH  22  23
HETATM   23  C   UNK N   1      25.336  26.497  -5.779  0.00  0.00    -0.021 C 
HETATM   24  C   UNK N   1      24.905  27.617  -5.177  0.00  0.00     0.078 C 
BRANCH  24  25
HETATM   25  C   UNK N   1      25.580  28.323  -4.068  0.00  0.00     0.282 C 
HETATM   26  O   UNK N   1      25.477  27.923  -2.913  0.00  0.00    -0.260 OA
BRANCH  25  27
HETATM   27  O   UNK N   1      26.314  29.423  -4.350  0.00  0.00    -0.323 OA
HETATM   28  C   UNK N   1      27.602  29.353  -4.828  0.00  0.00     0.213 C 
ENDBRANCH  25  27
ENDBRANCH  24  25
ENDBRANCH  22  23
ENDBRANCH  21  22
ENDBRANCH  20  21
ENDBRANCH  19  20
ENDBRANCH   1  19
BRANCH   4  29
HETATM   29  O   UNK N   1      31.261  21.014  -5.451  0.00  0.00    -0.394 OA
HETATM   30  H   UNK N   1      31.366  20.080  -5.210  0.00  0.00     0.210 HD
ENDBRANCH   4  29
TORSDOF 15
ENDMDL
MODEL 8
REMARK VINA RESULT:      -5.9      2.741      4.943
REMARK  15 active torsions:
REMARK  status: ('A' for Active; 'I' for Inactive)
REMARK    1  A    between atoms: C_1  and  C_4 
REMARK    2  A    between atoms: C_2  and  C_6 
REMARK    3  A    between atoms: C_4  and  C_17 
REMARK    4  A    between atoms: C_5  and  O_9 
REMARK    5  A    between atoms: C_10  and  C_11 
REMARK    6  A    between atoms: C_11  and  C_12 
REMARK    7  A    between atoms: C_11  and  O_24 
REMARK    8  A    between atoms: C_12  and  C_13 
REMARK    9  A    between atoms: C_13  and  C_14 
REMARK   10  A    between atoms: C_14  and  C_15 
REMARK   11  A    between atoms: C_17  and  C_18 
REMARK   12  A    between atoms: C_18  and  C_19 
REMARK   13  A    between atoms: C_19  and  C_20 
REMARK   14  A    between atoms: C_21  and  C_22 
REMARK   15  A    between atoms: C_22  and  O_23 
ROOT
HETATM    1  C   UNK N   1      27.892  18.893   4.750  0.00  0.00     0.065 C 
HETATM    2  C   UNK N   1      27.571  18.729   6.224  0.00  0.00     0.048 C 
HETATM    3  C   UNK N   1      27.082  20.111   4.485  0.00  0.00     0.134 C 
HETATM    4  C   UNK N   1      27.468  20.132   6.789  0.00  0.00     0.133 C 
HETATM    5  C   UNK N   1      26.682  20.864   5.708  0.00  0.00     0.111 C 
HETATM    6  O   UNK N   1      26.801  20.493   3.360  0.00  0.00    -0.297 OA
ENDROOT
BRANCH   2   7
HETATM    7  C   UNK N   1      28.377  17.735   6.990  0.00  0.00    -0.020 C 
HETATM    8  C   UNK N   1      29.674  17.993   7.136  0.00  0.00     0.002 C 
BRANCH   8   9
HETATM    9  C   UNK N   1      30.587  17.208   8.033  0.00  0.00     0.148 C 
BRANCH   9  10
HETATM   10  C   UNK N   1      31.989  16.963   7.442  0.00  0.00    -0.018 C 
HETATM   11  C   UNK N   1      32.417  15.513   7.644  0.00  0.00     0.018 C 
HETATM   12  C   UNK N   1      33.002  17.885   8.115  0.00  0.00     0.018 C 
BRANCH  10  13
HETATM   13  C   UNK N   1      31.929  17.296   5.951  0.00  0.00     0.011 C 
BRANCH  13  14
HETATM   14  C   UNK N   1      33.270  17.196   5.238  0.00  0.00     0.000 C 
BRANCH  14  15
HETATM   15  C   UNK N   1      33.056  16.608   3.861  0.00  0.00    -0.005 C 
HETATM   16  C   UNK N   1      33.732  15.257   3.783  0.00  0.00     0.005 C 
ENDBRANCH  14  15
ENDBRANCH  13  14
ENDBRANCH  10  13
ENDBRANCH   9  10
BRANCH   9  17
HETATM   17  O   UNK N   1      30.648  17.772   9.311  0.00  0.00    -0.391 OA
HETATM   18  H   UNK N   1      30.139  18.131  10.055  0.00  0.00     0.210 HD
ENDBRANCH   9  17
ENDBRANCH   8   9
ENDBRANCH   2   7
BRANCH   1  19
HETATM   19  C   UNK N   1      27.418  17.693   3.939  0.00  0.00     0.013 C 
BRANCH  19  20
HETATM   20  C   UNK N   1      28.609  16.885   3.456  0.00  0.00     0.001 C 
BRANCH  20  21
HETATM   21  C   UNK N   1      28.225  15.418   3.359  0.00  0.00     0.004 C 
BRANCH  21  22
HETATM   22  C   UNK N   1      28.300  14.766   4.727  0.00  0.00     0.027 C 
BRANCH  22  23
HETATM   23  C   UNK N   1      29.731  14.692   5.163  0.00  0.00    -0.021 C 
HETATM   24  C   UNK N   1      30.528  13.630   4.967  0.00  0.00     0.078 C 
BRANCH  24  25
HETATM   25  C   UNK N   1      30.140  12.358   4.322  0.00  0.00     0.282 C 
HETATM   26  O   UNK N   1      29.662  11.439   4.979  0.00  0.00    -0.260 OA
BRANCH  25  27
HETATM   27  O   UNK N   1      30.324  12.224   2.989  0.00  0.00    -0.323 OA
HETATM   28  C   UNK N   1      31.228  12.984   2.284  0.00  0.00     0.213 C 
ENDBRANCH  25  27
ENDBRANCH  24  25
ENDBRANCH  22  23
ENDBRANCH  21  22
ENDBRANCH  20  21
ENDBRANCH  19  20
ENDBRANCH   1  19
BRANCH   4  29
HETATM   29  O   UNK N   1      26.770  20.139   7.996  0.00  0.00    -0.394 OA
HETATM   30  H   UNK N   1      26.993  20.477   8.878  0.00  0.00     0.210 HD
ENDBRANCH   4  29
TORSDOF 15
ENDMDL
MODEL 9
REMARK VINA RESULT:      -5.9     10.643     14.604
REMARK  15 active torsions:
REMARK  status: ('A' for Active; 'I' for Inactive)
REMARK    1  A    between atoms: C_1  and  C_4 
REMARK    2  A    between atoms: C_2  and  C_6 
REMARK    3  A    between atoms: C_4  and  C_17 
REMARK    4  A    between atoms: C_5  and  O_9 
REMARK    5  A    between atoms: C_10  and  C_11 
REMARK    6  A    between atoms: C_11  and  C_12 
REMARK    7  A    between atoms: C_11  and  O_24 
REMARK    8  A    between atoms: C_12  and  C_13 
REMARK    9  A    between atoms: C_13  and  C_14 
REMARK   10  A    between atoms: C_14  and  C_15 
REMARK   11  A    between atoms: C_17  and  C_18 
REMARK   12  A    between atoms: C_18  and  C_19 
REMARK   13  A    between atoms: C_19  and  C_20 
REMARK   14  A    between atoms: C_21  and  C_22 
REMARK   15  A    between atoms: C_22  and  O_23 
ROOT
HETATM    1  C   UNK N   1      26.264  24.354  -6.383  0.00  0.00     0.065 C 
HETATM    2  C   UNK N   1      26.120  25.588  -7.254  0.00  0.00     0.048 C 
HETATM    3  C   UNK N   1      25.532  23.391  -7.248  0.00  0.00     0.134 C 
HETATM    4  C   UNK N   1      26.210  25.102  -8.687  0.00  0.00     0.133 C 
HETATM    5  C   UNK N   1      25.357  23.840  -8.659  0.00  0.00     0.111 C 
HETATM    6  O   UNK N   1      25.142  22.303  -6.854  0.00  0.00    -0.297 OA
ENDROOT
BRANCH   2   7
HETATM    7  C   UNK N   1      26.931  26.783  -6.879  0.00  0.00    -0.020 C 
HETATM    8  C   UNK N   1      26.356  27.675  -6.075  0.00  0.00     0.002 C 
BRANCH   8   9
HETATM    9  C   UNK N   1      27.087  28.826  -5.447  0.00  0.00     0.148 C 
BRANCH   9  10
HETATM   10  C   UNK N   1      26.946  28.897  -3.914  0.00  0.00    -0.018 C 
HETATM   11  C   UNK N   1      25.890  27.915  -3.419  0.00  0.00     0.018 C 
HETATM   12  C   UNK N   1      26.553  30.312  -3.496  0.00  0.00     0.018 C 
BRANCH  10  13
HETATM   13  C   UNK N   1      28.309  28.562  -3.306  0.00  0.00     0.011 C 
BRANCH  13  14
HETATM   14  C   UNK N   1      28.887  29.664  -2.430  0.00  0.00     0.000 C 
BRANCH  14  15
HETATM   15  C   UNK N   1      30.283  29.273  -2.000  0.00  0.00    -0.005 C 
HETATM   16  C   UNK N   1      30.783  28.151  -2.883  0.00  0.00     0.005 C 
ENDBRANCH  14  15
ENDBRANCH  13  14
ENDBRANCH  10  13
ENDBRANCH   9  10
BRANCH   9  17
HETATM   17  O   UNK N   1      28.424  28.858  -5.853  0.00  0.00    -0.391 OA
HETATM   18  H   UNK N   1      29.332  29.096  -5.607  0.00  0.00     0.210 HD
ENDBRANCH   9  17
ENDBRANCH   8   9
ENDBRANCH   2   7
BRANCH   1  19
HETATM   19  C   UNK N   1      25.590  24.545  -5.030  0.00  0.00     0.013 C 
BRANCH  19  20
HETATM   20  C   UNK N   1      26.564  24.225  -3.910  0.00  0.00     0.001 C 
BRANCH  20  21
HETATM   21  C   UNK N   1      27.971  24.120  -4.471  0.00  0.00     0.004 C 
BRANCH  21  22
HETATM   22  C   UNK N   1      28.951  24.850  -3.572  0.00  0.00     0.027 C 
BRANCH  22  23
HETATM   23  C   UNK N   1      30.339  24.674  -4.105  0.00  0.00    -0.021 C 
HETATM   24  C   UNK N   1      31.219  23.773  -3.642  0.00  0.00     0.078 C 
BRANCH  24  25
HETATM   25  C   UNK N   1      30.993  22.829  -2.528  0.00  0.00     0.282 C 
HETATM   26  O   UNK N   1      30.376  23.174  -1.526  0.00  0.00    -0.260 OA
BRANCH  25  27
HETATM   27  O   UNK N   1      31.482  21.572  -2.633  0.00  0.00    -0.323 OA
HETATM   28  C   UNK N   1      32.688  21.293  -3.235  0.00  0.00     0.213 C 
ENDBRANCH  25  27
ENDBRANCH  24  25
ENDBRANCH  22  23
ENDBRANCH  21  22
ENDBRANCH  20  21
ENDBRANCH  19  20
ENDBRANCH   1  19
BRANCH   4  29
HETATM   29  O   UNK N   1      25.675  26.039  -9.571  0.00  0.00    -0.394 OA
HETATM   30  H   UNK N   1      25.548  26.032 -10.533  0.00  0.00     0.210 HD
ENDBRANCH   4  29
TORSDOF 15
ENDMDL
