MODEL 1
REMARK VINA RESULT:      -7.0      0.000      0.000
REMARK  6 active torsions:
REMARK  status: ('A' for Active; 'I' for Inactive)
REMARK    1  A    between atoms: C_11  and  C_10 
REMARK    2  A    between atoms: C_15  and  C_10 
REMARK    3  A    between atoms: C_16  and  C_11 
REMARK    4  A    between atoms: C_13  and  C_12 
REMARK    5  A    between atoms: C_15  and  C_14 
REMARK    6  A    between atoms: O_19  and  C_16 
ROOT
HETATM    1  C   UNK N   1      34.589  11.753  14.691  0.00  0.00     0.013 A 
HETATM    2  C   UNK N   1      36.228  13.515  14.898  0.00  0.00     0.013 A 
HETATM    3  C   UNK N   1      34.610  11.905  13.305  0.00  0.00     0.016 A 
HETATM    4  C   UNK N   1      36.246  13.663  13.508  0.00  0.00     0.016 A 
HETATM    5  C   UNK N   1      35.399  12.558  15.502  0.00  0.00    -0.026 A 
HETATM    6  C   UNK N   1      35.435  12.859  12.692  0.00  0.00     0.010 A 
ENDROOT
BRANCH   6   7
HETATM    7  C   UNK N   1      35.477  13.043  11.205  0.00  0.00     0.160 C 
HETATM    8  O   UNK N   1      36.175  12.284  10.550  0.00  0.00    -0.292 OA
BRANCH   7   9
HETATM    9  C   UNK N   1      34.714  14.107  10.439  0.00  0.00     0.094 C 
BRANCH   9  10
HETATM   10  C   UNK N   1      34.627  15.484  11.087  0.00  0.00     0.117 C 
BRANCH  10  11
HETATM   11  C   UNK N   1      35.732  16.418  10.710  0.00  0.00     0.139 C 
HETATM   12  O   UNK N   1      35.492  17.521  10.236  0.00  0.00    -0.650 OA
BRANCH  11  13
HETATM   13  O   UNK N   1      37.006  16.036  10.896  0.00  0.00    -0.776 OA
HETATM   14  H   UNK N   1      37.203  15.324  11.473  0.00  0.00     0.167 HD
ENDBRANCH  11  13
ENDBRANCH  10  11
ENDBRANCH   9  10
ENDBRANCH   7   9
ENDBRANCH   6   7
BRANCH   5  15
HETATM   15  C   UNK N   1      35.378  12.398  16.975  0.00  0.00    -0.026 A 
HETATM   16  C   UNK N   1      35.589  11.138  17.560  0.00  0.00     0.012 A 
HETATM   17  C   UNK N   1      35.568  10.991  18.950  0.00  0.00     0.001 A 
HETATM   18  C   UNK N   1      35.338  12.100  19.767  0.00  0.00     0.000 A 
HETATM   19  C   UNK N   1      35.128  13.357  19.196  0.00  0.00     0.001 A 
HETATM   20  C   UNK N   1      35.148  13.507  17.807  0.00  0.00     0.012 A 
ENDBRANCH   5  15
TORSDOF 6
ENDMDL
MODEL 2
REMARK VINA RESULT:      -6.7      8.825     13.129
REMARK  6 active torsions:
REMARK  status: ('A' for Active; 'I' for Inactive)
REMARK    1  A    between atoms: C_11  and  C_10 
REMARK    2  A    between atoms: C_15  and  C_10 
REMARK    3  A    between atoms: C_16  and  C_11 
REMARK    4  A    between atoms: C_13  and  C_12 
REMARK    5  A    between atoms: C_15  and  C_14 
REMARK    6  A    between atoms: O_19  and  C_16 
ROOT
HETATM    1  C   UNK N   1      28.730  17.984   4.617  0.00  0.00     0.013 A 
HETATM    2  C   UNK N   1      27.779  18.857   6.658  0.00  0.00     0.013 A 
HETATM    3  C   UNK N   1      29.801  17.466   5.345  0.00  0.00     0.016 A 
HETATM    4  C   UNK N   1      28.855  18.336   7.383  0.00  0.00     0.016 A 
HETATM    5  C   UNK N   1      27.708  18.686   5.267  0.00  0.00    -0.026 A 
HETATM    6  C   UNK N   1      29.882  17.632   6.735  0.00  0.00     0.010 A 
ENDROOT
BRANCH   6   7
HETATM    7  C   UNK N   1      31.021  17.085   7.541  0.00  0.00     0.160 C 
HETATM    8  O   UNK N   1      31.275  15.894   7.446  0.00  0.00    -0.292 OA
BRANCH   7   9
HETATM    9  C   UNK N   1      31.894  17.901   8.475  0.00  0.00     0.094 C 
BRANCH   9  10
HETATM   10  C   UNK N   1      33.331  17.426   8.655  0.00  0.00     0.117 C 
BRANCH  10  11
HETATM   11  C   UNK N   1      34.338  18.176   7.844  0.00  0.00     0.139 C 
HETATM   12  O   UNK N   1      34.510  17.923   6.658  0.00  0.00    -0.650 OA
BRANCH  11  13
HETATM   13  O   UNK N   1      35.064  19.143   8.430  0.00  0.00    -0.776 OA
HETATM   14  H   UNK N   1      35.351  19.883   7.930  0.00  0.00     0.167 HD
ENDBRANCH  11  13
ENDBRANCH  10  11
ENDBRANCH   9  10
ENDBRANCH   7   9
ENDBRANCH   6   7
BRANCH   5  15
HETATM   15  C   UNK N   1      26.569  19.237   4.496  0.00  0.00    -0.026 A 
HETATM   16  C   UNK N   1      25.255  18.811   4.757  0.00  0.00     0.012 A 
HETATM   17  C   UNK N   1      24.184  19.333   4.027  0.00  0.00     0.001 A 
HETATM   18  C   UNK N   1      24.414  20.285   3.032  0.00  0.00     0.000 A 
HETATM   19  C   UNK N   1      25.716  20.716   2.764  0.00  0.00     0.001 A 
HETATM   20  C   UNK N   1      26.789  20.195   3.492  0.00  0.00     0.012 A 
ENDBRANCH   5  15
TORSDOF 6
ENDMDL
MODEL 3
REMARK VINA RESULT:      -6.7     12.185     15.230
REMARK  6 active torsions:
REMARK  status: ('A' for Active; 'I' for Inactive)
REMARK    1  A    between atoms: C_11  and  C_10 
REMARK    2  A    between atoms: C_15  and  C_10 
REMARK    3  A    between atoms: C_16  and  C_11 
REMARK    4  A    between atoms: C_13  and  C_12 
REMARK    5  A    between atoms: C_15  and  C_14 
REMARK    6  A    between atoms: O_19  and  C_16 
ROOT
HETATM    1  C   UNK N   1      26.898  17.975   4.770  0.00  0.00     0.013 A 
HETATM    2  C   UNK N   1      26.862  20.131   5.859  0.00  0.00     0.013 A 
HETATM    3  C   UNK N   1      25.887  18.400   3.910  0.00  0.00     0.016 A 
HETATM    4  C   UNK N   1      25.848  20.552   4.993  0.00  0.00     0.016 A 
HETATM    5  C   UNK N   1      27.397  18.838   5.755  0.00  0.00    -0.026 A 
HETATM    6  C   UNK N   1      25.346  19.690   4.005  0.00  0.00     0.010 A 
ENDROOT
BRANCH   6   7
HETATM    7  C   UNK N   1      24.259  20.172   3.093  0.00  0.00     0.160 C 
HETATM    8  O   UNK N   1      24.556  20.961   2.209  0.00  0.00    -0.292 OA
BRANCH   7   9
HETATM    9  C   UNK N   1      22.803  19.753   3.179  0.00  0.00     0.094 C 
BRANCH   9  10
HETATM   10  C   UNK N   1      21.773  20.764   2.690  0.00  0.00     0.117 C 
BRANCH  10  11
HETATM   11  C   UNK N   1      21.041  20.355   1.452  0.00  0.00     0.139 C 
HETATM   12  O   UNK N   1      21.409  20.733   0.347  0.00  0.00    -0.650 OA
BRANCH  11  13
HETATM   13  O   UNK N   1      19.964  19.559   1.559  0.00  0.00    -0.776 OA
HETATM   14  H   UNK N   1      19.462  19.554   2.350  0.00  0.00     0.167 HD
ENDBRANCH  11  13
ENDBRANCH  10  11
ENDBRANCH   9  10
ENDBRANCH   7   9
ENDBRANCH   6   7
BRANCH   5  15
HETATM   15  C   UNK N   1      28.471  18.389   6.670  0.00  0.00    -0.026 A 
HETATM   16  C   UNK N   1      29.478  17.519   6.219  0.00  0.00     0.012 A 
HETATM   17  C   UNK N   1      30.490  17.097   7.086  0.00  0.00     0.001 A 
HETATM   18  C   UNK N   1      30.506  17.541   8.409  0.00  0.00     0.000 A 
HETATM   19  C   UNK N   1      29.510  18.406   8.869  0.00  0.00     0.001 A 
HETATM   20  C   UNK N   1      28.497  18.829   8.005  0.00  0.00     0.012 A 
ENDBRANCH   5  15
TORSDOF 6
ENDMDL
MODEL 4
REMARK VINA RESULT:      -6.4     14.166     15.844
REMARK  6 active torsions:
REMARK  status: ('A' for Active; 'I' for Inactive)
REMARK    1  A    between atoms: C_11  and  C_10 
REMARK    2  A    between atoms: C_15  and  C_10 
REMARK    3  A    between atoms: C_16  and  C_11 
REMARK    4  A    between atoms: C_13  and  C_12 
REMARK    5  A    between atoms: C_15  and  C_14 
REMARK    6  A    between atoms: O_19  and  C_16 
ROOT
HETATM    1  C   UNK N   1      21.388  13.310   7.332  0.00  0.00     0.013 A 
HETATM    2  C   UNK N   1      20.926  15.111   8.873  0.00  0.00     0.013 A 
HETATM    3  C   UNK N   1      20.622  13.952   6.361  0.00  0.00     0.016 A 
HETATM    4  C   UNK N   1      20.158  15.751   7.895  0.00  0.00     0.016 A 
HETATM    5  C   UNK N   1      21.549  13.884   8.599  0.00  0.00    -0.026 A 
HETATM    6  C   UNK N   1      19.996  15.179   6.624  0.00  0.00     0.010 A 
ENDROOT
BRANCH   6   7
HETATM    7  C   UNK N   1      19.166  15.890   5.598  0.00  0.00     0.160 C 
HETATM    8  O   UNK N   1      17.950  15.817   5.690  0.00  0.00    -0.292 OA
BRANCH   7   9
HETATM    9  C   UNK N   1      19.720  16.701   4.443  0.00  0.00     0.094 C 
BRANCH   9  10
HETATM   10  C   UNK N   1      21.144  17.223   4.596  0.00  0.00     0.117 C 
BRANCH  10  11
HETATM   11  C   UNK N   1      21.253  18.521   5.329  0.00  0.00     0.139 C 
HETATM   12  O   UNK N   1      21.617  18.558   6.498  0.00  0.00    -0.650 OA
BRANCH  11  13
HETATM   13  O   UNK N   1      20.947  19.663   4.691  0.00  0.00    -0.776 OA
HETATM   14  H   UNK N   1      20.303  19.661   4.010  0.00  0.00     0.167 HD
ENDBRANCH  11  13
ENDBRANCH  10  11
ENDBRANCH   9  10
ENDBRANCH   7   9
ENDBRANCH   6   7
BRANCH   5  15
HETATM   15  C   UNK N   1      22.363  13.203   9.633  0.00  0.00    -0.026 A 
HETATM   16  C   UNK N   1      21.757  12.667  10.782  0.00  0.00     0.012 A 
HETATM   17  C   UNK N   1      22.529  12.026  11.755  0.00  0.00     0.001 A 
HETATM   18  C   UNK N   1      23.911  11.914  11.590  0.00  0.00     0.000 A 
HETATM   19  C   UNK N   1      24.524  12.443  10.451  0.00  0.00     0.001 A 
HETATM   20  C   UNK N   1      23.755  13.085   9.477  0.00  0.00     0.012 A 
ENDBRANCH   5  15
TORSDOF 6
ENDMDL
MODEL 5
REMARK VINA RESULT:      -6.4     14.791     16.420
REMARK  6 active torsions:
REMARK  status: ('A' for Active; 'I' for Inactive)
REMARK    1  A    between atoms: C_11  and  C_10 
REMARK    2  A    between atoms: C_15  and  C_10 
REMARK    3  A    between atoms: C_16  and  C_11 
REMARK    4  A    between atoms: C_13  and  C_12 
REMARK    5  A    between atoms: C_15  and  C_14 
REMARK    6  A    between atoms: O_19  and  C_16 
ROOT
HETATM    1  C   UNK N   1      21.339  13.118   7.312  0.00  0.00     0.013 A 
HETATM    2  C   UNK N   1      20.963  15.034   8.734  0.00  0.00     0.013 A 
HETATM    3  C   UNK N   1      20.577  13.720   6.312  0.00  0.00     0.016 A 
HETATM    4  C   UNK N   1      20.200  15.633   7.727  0.00  0.00     0.016 A 
HETATM    5  C   UNK N   1      21.540  13.770   8.535  0.00  0.00    -0.026 A 
HETATM    6  C   UNK N   1      19.997  14.982   6.501  0.00  0.00     0.010 A 
ENDROOT
BRANCH   6   7
HETATM    7  C   UNK N   1      19.174  15.651   5.442  0.00  0.00     0.160 C 
HETATM    8  O   UNK N   1      18.010  15.918   5.700  0.00  0.00    -0.292 OA
BRANCH   7   9
HETATM    9  C   UNK N   1      19.674  16.027   4.060  0.00  0.00     0.094 C 
BRANCH   9  10
HETATM   10  C   UNK N   1      20.031  17.493   3.839  0.00  0.00     0.117 C 
BRANCH  10  11
HETATM   11  C   UNK N   1      19.582  18.048   2.525  0.00  0.00     0.139 C 
HETATM   12  O   UNK N   1      20.268  17.922   1.519  0.00  0.00    -0.650 OA
BRANCH  11  13
HETATM   13  O   UNK N   1      18.407  18.696   2.453  0.00  0.00    -0.776 OA
HETATM   14  H   UNK N   1      17.776  18.601   3.140  0.00  0.00     0.167 HD
ENDBRANCH  11  13
ENDBRANCH  10  11
ENDBRANCH   9  10
ENDBRANCH   7   9
ENDBRANCH   6   7
BRANCH   5  15
HETATM   15  C   UNK N   1      22.349  13.133   9.600  0.00  0.00    -0.026 A 
HETATM   16  C   UNK N   1      23.742  13.006   9.461  0.00  0.00     0.012 A 
HETATM   17  C   UNK N   1      24.502  12.404  10.468  0.00  0.00     0.001 A 
HETATM   18  C   UNK N   1      23.879  11.924  11.621  0.00  0.00     0.000 A 
HETATM   19  C   UNK N   1      22.495  12.045  11.771  0.00  0.00     0.001 A 
HETATM   20  C   UNK N   1      21.733  12.646  10.766  0.00  0.00     0.012 A 
ENDBRANCH   5  15
TORSDOF 6
ENDMDL
MODEL 6
REMARK VINA RESULT:      -6.3      8.384     11.847
REMARK  6 active torsions:
REMARK  status: ('A' for Active; 'I' for Inactive)
REMARK    1  A    between atoms: C_11  and  C_10 
REMARK    2  A    between atoms: C_15  and  C_10 
REMARK    3  A    between atoms: C_16  and  C_11 
REMARK    4  A    between atoms: C_13  and  C_12 
REMARK    5  A    between atoms: C_15  and  C_14 
REMARK    6  A    between atoms: O_19  and  C_16 
ROOT
HETATM    1  C   UNK N   1      29.557  17.695   7.030  0.00  0.00     0.013 A 
HETATM    2  C   UNK N   1      30.154  17.533   4.695  0.00  0.00     0.013 A 
HETATM    3  C   UNK N   1      30.657  16.906   7.360  0.00  0.00     0.016 A 
HETATM    4  C   UNK N   1      31.256  16.742   5.032  0.00  0.00     0.016 A 
HETATM    5  C   UNK N   1      29.293  18.017   5.693  0.00  0.00    -0.026 A 
HETATM    6  C   UNK N   1      31.523  16.418   6.371  0.00  0.00     0.010 A 
ENDROOT
BRANCH   6   7
HETATM    7  C   UNK N   1      32.714  15.568   6.698  0.00  0.00     0.160 C 
HETATM    8  O   UNK N   1      32.545  14.364   6.822  0.00  0.00    -0.292 OA
BRANCH   7   9
HETATM    9  C   UNK N   1      34.126  16.087   6.890  0.00  0.00     0.094 C 
BRANCH   9  10
HETATM   10  C   UNK N   1      34.294  17.600   6.953  0.00  0.00     0.117 C 
BRANCH  10  11
HETATM   11  C   UNK N   1      34.520  18.142   8.328  0.00  0.00     0.139 C 
HETATM   12  O   UNK N   1      34.004  17.618   9.306  0.00  0.00    -0.650 OA
BRANCH  11  13
HETATM   13  O   UNK N   1      35.303  19.223   8.487  0.00  0.00    -0.776 OA
HETATM   14  H   UNK N   1      35.457  19.801   7.765  0.00  0.00     0.167 HD
ENDBRANCH  11  13
ENDBRANCH  10  11
ENDBRANCH   9  10
ENDBRANCH   7   9
ENDBRANCH   6   7
BRANCH   5  15
HETATM   15  C   UNK N   1      28.124  18.855   5.340  0.00  0.00    -0.026 A 
HETATM   16  C   UNK N   1      27.503  18.724   4.086  0.00  0.00     0.012 A 
HETATM   17  C   UNK N   1      26.400  19.517   3.756  0.00  0.00     0.001 A 
HETATM   18  C   UNK N   1      25.908  20.446   4.675  0.00  0.00     0.000 A 
HETATM   19  C   UNK N   1      26.517  20.585   5.924  0.00  0.00     0.001 A 
HETATM   20  C   UNK N   1      27.620  19.794   6.256  0.00  0.00     0.012 A 
ENDBRANCH   5  15
TORSDOF 6
ENDMDL
MODEL 7
REMARK VINA RESULT:      -6.2      6.090     11.001
REMARK  6 active torsions:
REMARK  status: ('A' for Active; 'I' for Inactive)
REMARK    1  A    between atoms: C_11  and  C_10 
REMARK    2  A    between atoms: C_15  and  C_10 
REMARK    3  A    between atoms: C_16  and  C_11 
REMARK    4  A    between atoms: C_13  and  C_12 
REMARK    5  A    between atoms: C_15  and  C_14 
REMARK    6  A    between atoms: O_19  and  C_16 
ROOT
HETATM    1  C   UNK N   1      30.868  17.337   7.334  0.00  0.00     0.013 A 
HETATM    2  C   UNK N   1      32.369  17.300   5.441  0.00  0.00     0.013 A 
HETATM    3  C   UNK N   1      31.950  17.579   8.179  0.00  0.00     0.016 A 
HETATM    4  C   UNK N   1      33.450  17.543   6.293  0.00  0.00     0.016 A 
HETATM    5  C   UNK N   1      31.067  17.195   5.954  0.00  0.00    -0.026 A 
HETATM    6  C   UNK N   1      33.255  17.686   7.676  0.00  0.00     0.010 A 
ENDROOT
BRANCH   6   7
HETATM    7  C   UNK N   1      34.435  17.946   8.562  0.00  0.00     0.160 C 
HETATM    8  O   UNK N   1      35.054  18.988   8.406  0.00  0.00    -0.292 OA
BRANCH   7   9
HETATM    9  C   UNK N   1      34.929  17.010   9.648  0.00  0.00     0.094 C 
BRANCH   9  10
HETATM   10  C   UNK N   1      35.027  15.533   9.284  0.00  0.00     0.117 C 
BRANCH  10  11
HETATM   11  C   UNK N   1      34.144  14.635  10.090  0.00  0.00     0.139 C 
HETATM   12  O   UNK N   1      34.110  13.429   9.881  0.00  0.00    -0.650 OA
BRANCH  11  13
HETATM   13  O   UNK N   1      33.377  15.165  11.057  0.00  0.00    -0.776 OA
HETATM   14  H   UNK N   1      32.884  14.605  11.625  0.00  0.00     0.167 HD
ENDBRANCH  11  13
ENDBRANCH  10  11
ENDBRANCH   9  10
ENDBRANCH   7   9
ENDBRANCH   6   7
BRANCH   5  15
HETATM   15  C   UNK N   1      29.919  16.938   5.054  0.00  0.00    -0.026 A 
HETATM   16  C   UNK N   1      28.997  17.958   4.761  0.00  0.00     0.012 A 
HETATM   17  C   UNK N   1      27.915  17.711   3.912  0.00  0.00     0.001 A 
HETATM   18  C   UNK N   1      27.744  16.445   3.348  0.00  0.00     0.000 A 
HETATM   19  C   UNK N   1      28.653  15.424   3.632  0.00  0.00     0.001 A 
HETATM   20  C   UNK N   1      29.736  15.668   4.481  0.00  0.00     0.012 A 
ENDBRANCH   5  15
TORSDOF 6
ENDMDL
MODEL 8
REMARK VINA RESULT:      -6.2      4.381      9.004
REMARK  6 active torsions:
REMARK  status: ('A' for Active; 'I' for Inactive)
REMARK    1  A    between atoms: C_11  and  C_10 
REMARK    2  A    between atoms: C_15  and  C_10 
REMARK    3  A    between atoms: C_16  and  C_11 
REMARK    4  A    between atoms: C_13  and  C_12 
REMARK    5  A    between atoms: C_15  and  C_14 
REMARK    6  A    between atoms: O_19  and  C_16 
ROOT
HETATM    1  C   UNK N   1      32.153  15.683   9.022  0.00  0.00     0.013 A 
HETATM    2  C   UNK N   1      33.213  17.776   8.448  0.00  0.00     0.013 A 
HETATM    3  C   UNK N   1      33.345  15.243   9.594  0.00  0.00     0.016 A 
HETATM    4  C   UNK N   1      34.407  17.330   9.023  0.00  0.00     0.016 A 
HETATM    5  C   UNK N   1      32.074  16.955   8.442  0.00  0.00    -0.026 A 
HETATM    6  C   UNK N   1      34.489  16.055   9.605  0.00  0.00     0.010 A 
ENDROOT
BRANCH   6   7
HETATM    7  C   UNK N   1      35.783  15.607  10.214  0.00  0.00     0.160 C 
HETATM    8  O   UNK N   1      36.525  16.458  10.680  0.00  0.00    -0.292 OA
BRANCH   7   9
HETATM    9  C   UNK N   1      36.251  14.166  10.298  0.00  0.00     0.094 C 
BRANCH   9  10
HETATM   10  C   UNK N   1      36.697  13.672  11.669  0.00  0.00     0.117 C 
BRANCH  10  11
HETATM   11  C   UNK N   1      35.643  13.748  12.728  0.00  0.00     0.139 C 
HETATM   12  O   UNK N   1      35.899  14.185  13.842  0.00  0.00    -0.650 OA
BRANCH  11  13
HETATM   13  O   UNK N   1      34.399  13.328  12.447  0.00  0.00    -0.776 OA
HETATM   14  H   UNK N   1      33.981  12.694  12.997  0.00  0.00     0.167 HD
ENDBRANCH  11  13
ENDBRANCH  10  11
ENDBRANCH   9  10
ENDBRANCH   7   9
ENDBRANCH   6   7
BRANCH   5  15
HETATM   15  C   UNK N   1      30.808  17.425   7.833  0.00  0.00    -0.026 A 
HETATM   16  C   UNK N   1      29.899  18.195   8.579  0.00  0.00     0.012 A 
HETATM   17  C   UNK N   1      28.705  18.636   8.001  0.00  0.00     0.001 A 
HETATM   18  C   UNK N   1      28.409  18.314   6.675  0.00  0.00     0.000 A 
HETATM   19  C   UNK N   1      29.306  17.549   5.925  0.00  0.00     0.001 A 
HETATM   20  C   UNK N   1      30.500  17.106   6.500  0.00  0.00     0.012 A 
ENDBRANCH   5  15
TORSDOF 6
ENDMDL
MODEL 9
REMARK VINA RESULT:      -6.0      1.264      2.225
REMARK  6 active torsions:
REMARK  status: ('A' for Active; 'I' for Inactive)
REMARK    1  A    between atoms: C_11  and  C_10 
REMARK    2  A    between atoms: C_15  and  C_10 
REMARK    3  A    between atoms: C_16  and  C_11 
REMARK    4  A    between atoms: C_13  and  C_12 
REMARK    5  A    between atoms: C_15  and  C_14 
REMARK    6  A    between atoms: O_19  and  C_16 
ROOT
HETATM    1  C   UNK N   1      35.427  13.354  14.606  0.00  0.00     0.013 A 
HETATM    2  C   UNK N   1      34.618  11.078  14.665  0.00  0.00     0.013 A 
HETATM    3  C   UNK N   1      35.348  13.339  13.215  0.00  0.00     0.016 A 
HETATM    4  C   UNK N   1      34.540  11.070  13.268  0.00  0.00     0.016 A 
HETATM    5  C   UNK N   1      35.062  12.222  15.346  0.00  0.00    -0.026 A 
HETATM    6  C   UNK N   1      34.905  12.202  12.524  0.00  0.00     0.010 A 
ENDROOT
BRANCH   6   7
HETATM    7  C   UNK N   1      34.811  12.160  11.029  0.00  0.00     0.160 C 
HETATM    8  O   UNK N   1      34.749  11.067  10.486  0.00  0.00    -0.292 OA
BRANCH   7   9
HETATM    9  C   UNK N   1      34.786  13.378  10.125  0.00  0.00     0.094 C 
BRANCH   9  10
HETATM   10  C   UNK N   1      36.066  13.684   9.356  0.00  0.00     0.117 C 
BRANCH  10  11
HETATM   11  C   UNK N   1      37.196  14.175  10.204  0.00  0.00     0.139 C 
HETATM   12  O   UNK N   1      38.025  13.400  10.661  0.00  0.00    -0.650 OA
BRANCH  11  13
HETATM   13  O   UNK N   1      37.298  15.489  10.465  0.00  0.00    -0.776 OA
HETATM   14  H   UNK N   1      37.961  16.001  10.044  0.00  0.00     0.167 HD
ENDBRANCH  11  13
ENDBRANCH  10  11
ENDBRANCH   9  10
ENDBRANCH   7   9
ENDBRANCH   6   7
BRANCH   5  15
HETATM   15  C   UNK N   1      35.145  12.235  16.825  0.00  0.00    -0.026 A 
HETATM   16  C   UNK N   1      35.089  13.447  17.534  0.00  0.00     0.012 A 
HETATM   17  C   UNK N   1      35.168  13.455  18.930  0.00  0.00     0.001 A 
HETATM   18  C   UNK N   1      35.302  12.254  19.629  0.00  0.00     0.000 A 
HETATM   19  C   UNK N   1      35.359  11.043  18.935  0.00  0.00     0.001 A 
HETATM   20  C   UNK N   1      35.280  11.032  17.540  0.00  0.00     0.012 A 
ENDBRANCH   5  15
TORSDOF 6
ENDMDL
