MODEL 1
REMARK VINA RESULT:      -7.1      0.000      0.000
REMARK  9 active torsions:
REMARK  status: ('A' for Active; 'I' for Inactive)
REMARK    1  A    between atoms: C_11  and  C_10 
REMARK    2  A    between atoms: O_24  and  C_10 
REMARK    3  A    between atoms: O_25  and  C_11 
REMARK    4  A    between atoms: C_16  and  C_13 
REMARK    5  A    between atoms: O_26  and  C_15 
REMARK    6  A    between atoms: O_24  and  C_16 
REMARK    7  A    between atoms: C_18  and  C_17 
REMARK    8  A    between atoms: O_25  and  C_17 
REMARK    9  A    between atoms: O_26  and  C_18 
ROOT
HETATM    1  C   UNK N   1      35.840  14.465  12.826  0.00  0.00     0.293 C 
HETATM    2  O   UNK N   1      36.426  15.086  13.704  0.00  0.00    -0.262 OA
ENDROOT
BRANCH   1   3
HETATM    3  C   UNK N   1      35.520  13.006  12.982  0.00  0.00     0.148 C 
HETATM    4  C   UNK N   1      36.789  12.218  13.277  0.00  0.00     0.057 C 
HETATM    5  C   UNK N   1      34.985  12.524  11.646  0.00  0.00     0.057 C 
BRANCH   3   6
HETATM    6  O   UNK N   1      34.556  12.748  13.943  0.00  0.00    -0.331 OA
BRANCH   6   7
HETATM    7  C   UNK N   1      34.771  12.208  15.172  0.00  0.00     0.070 A 
HETATM    8  C   UNK N   1      35.025  13.067  16.245  0.00  0.00     0.038 A 
HETATM    9  C   UNK N   1      35.184  12.557  17.535  0.00  0.00     0.026 A 
HETATM   10  C   UNK N   1      35.101  11.179  17.757  0.00  0.00     0.034 A 
HETATM   11  C   UNK N   1      34.868  10.311  16.688  0.00  0.00     0.026 A 
HETATM   12 Cl   UNK N   1      35.276  10.545  19.377  0.00  0.00    -0.084 Cl
HETATM   13  C   UNK N   1      34.699  10.822  15.400  0.00  0.00     0.038 A 
ENDBRANCH   6   7
ENDBRANCH   3   6
ENDBRANCH   1   3
BRANCH   1  14
HETATM   14  O   UNK N   1      35.382  15.094  11.723  0.00  0.00    -0.317 OA
BRANCH  14  15
HETATM   15  C   UNK N   1      36.167  15.922  10.973  0.00  0.00     0.205 C 
BRANCH  15  16
HETATM   16  C   UNK N   1      35.279  17.040  10.448  0.00  0.00     0.206 C 
BRANCH  16  17
HETATM   17  O   UNK N   1      35.210  17.013   9.064  0.00  0.00    -0.315 OA
BRANCH  17  18
HETATM   18  C   UNK N   1      34.584  17.970   8.340  0.00  0.00     0.294 C 
HETATM   19  O   UNK N   1      35.005  19.127   8.408  0.00  0.00    -0.259 OA
BRANCH  18  20
HETATM   20  C   UNK N   1      33.427  17.679   7.458  0.00  0.00     0.054 A 
HETATM   21  C   UNK N   1      33.600  17.520   6.073  0.00  0.00     0.020 A 
HETATM   22  C   UNK N   1      32.511  17.251   5.253  0.00  0.00     0.018 A 
HETATM   23  C   UNK N   1      31.243  17.154   5.821  0.00  0.00     0.087 A 
HETATM   24  N   UNK N   1      31.081  17.303   7.164  0.00  0.00    -0.374 N 
HETATM   25  C   UNK N   1      32.139  17.549   7.983  0.00  0.00     0.105 A 
ATOM     26  HN  UNK N   1      30.147  17.229   7.566  1.00  0.00     0.164 HD
ENDBRANCH  18  20
ENDBRANCH  17  18
ENDBRANCH  16  17
ENDBRANCH  15  16
ENDBRANCH  14  15
ENDBRANCH   1  14
TORSDOF 9
ENDMDL
MODEL 2
REMARK VINA RESULT:      -6.8      0.384      1.035
REMARK  9 active torsions:
REMARK  status: ('A' for Active; 'I' for Inactive)
REMARK    1  A    between atoms: C_11  and  C_10 
REMARK    2  A    between atoms: O_24  and  C_10 
REMARK    3  A    between atoms: O_25  and  C_11 
REMARK    4  A    between atoms: C_16  and  C_13 
REMARK    5  A    between atoms: O_26  and  C_15 
REMARK    6  A    between atoms: O_24  and  C_16 
REMARK    7  A    between atoms: C_18  and  C_17 
REMARK    8  A    between atoms: O_25  and  C_17 
REMARK    9  A    between atoms: O_26  and  C_18 
ROOT
HETATM    1  C   UNK N   1      35.840  14.296  12.560  0.00  0.00     0.293 C 
HETATM    2  O   UNK N   1      36.242  15.057  13.431  0.00  0.00    -0.262 OA
ENDROOT
BRANCH   1   3
HETATM    3  C   UNK N   1      35.482  12.871  12.874  0.00  0.00     0.148 C 
HETATM    4  C   UNK N   1      36.731  12.086  13.254  0.00  0.00     0.057 C 
HETATM    5  C   UNK N   1      34.931  12.261  11.598  0.00  0.00     0.057 C 
BRANCH   3   6
HETATM    6  O   UNK N   1      34.513  12.744  13.858  0.00  0.00    -0.331 OA
BRANCH   6   7
HETATM    7  C   UNK N   1      34.687  12.197  15.090  0.00  0.00     0.070 A 
HETATM    8  C   UNK N   1      34.440  10.831  15.256  0.00  0.00     0.038 A 
HETATM    9  C   UNK N   1      34.671  10.218  16.488  0.00  0.00     0.026 A 
HETATM   10  C   UNK N   1      35.144  10.971  17.567  0.00  0.00     0.034 A 
HETATM   11  C   UNK N   1      35.374  12.340  17.416  0.00  0.00     0.026 A 
HETATM   12 Cl   UNK N   1      35.457  10.195  19.103  0.00  0.00    -0.084 Cl
HETATM   13  C   UNK N   1      35.152  12.952  16.182  0.00  0.00     0.038 A 
ENDBRANCH   6   7
ENDBRANCH   3   6
ENDBRANCH   1   3
BRANCH   1  14
HETATM   14  O   UNK N   1      35.619  14.736  11.304  0.00  0.00    -0.317 OA
BRANCH  14  15
HETATM   15  C   UNK N   1      35.530  16.064  10.999  0.00  0.00     0.205 C 
BRANCH  15  16
HETATM   16  C   UNK N   1      34.903  16.174   9.618  0.00  0.00     0.206 C 
BRANCH  16  17
HETATM   17  O   UNK N   1      35.410  17.263   8.926  0.00  0.00    -0.315 OA
BRANCH  17  18
HETATM   18  C   UNK N   1      34.623  18.169   8.301  0.00  0.00     0.294 C 
HETATM   19  O   UNK N   1      34.894  19.365   8.424  0.00  0.00    -0.259 OA
BRANCH  18  20
HETATM   20  C   UNK N   1      33.461  17.780   7.465  0.00  0.00     0.054 A 
HETATM   21  C   UNK N   1      33.628  17.457   6.108  0.00  0.00     0.020 A 
HETATM   22  C   UNK N   1      32.535  17.097   5.329  0.00  0.00     0.018 A 
HETATM   23  C   UNK N   1      31.268  17.072   5.909  0.00  0.00     0.087 A 
HETATM   24  N   UNK N   1      31.113  17.380   7.227  0.00  0.00    -0.374 N 
HETATM   25  C   UNK N   1      32.175  17.717   8.007  0.00  0.00     0.105 A 
ATOM     26  HN  UNK N   1      30.180  17.356   7.638  1.00  0.00     0.164 HD
ENDBRANCH  18  20
ENDBRANCH  17  18
ENDBRANCH  16  17
ENDBRANCH  15  16
ENDBRANCH  14  15
ENDBRANCH   1  14
TORSDOF 9
ENDMDL
MODEL 3
REMARK VINA RESULT:      -6.7     17.496     22.006
REMARK  9 active torsions:
REMARK  status: ('A' for Active; 'I' for Inactive)
REMARK    1  A    between atoms: C_11  and  C_10 
REMARK    2  A    between atoms: O_24  and  C_10 
REMARK    3  A    between atoms: O_25  and  C_11 
REMARK    4  A    between atoms: C_16  and  C_13 
REMARK    5  A    between atoms: O_26  and  C_15 
REMARK    6  A    between atoms: O_24  and  C_16 
REMARK    7  A    between atoms: C_18  and  C_17 
REMARK    8  A    between atoms: O_25  and  C_17 
REMARK    9  A    between atoms: O_26  and  C_18 
ROOT
HETATM    1  C   UNK N   1      26.185  23.975  -6.139  0.00  0.00     0.293 C 
HETATM    2  O   UNK N   1      25.109  23.464  -5.855  0.00  0.00    -0.262 OA
ENDROOT
BRANCH   1   3
HETATM    3  C   UNK N   1      26.372  24.739  -7.419  0.00  0.00     0.148 C 
HETATM    4  C   UNK N   1      25.865  23.920  -8.599  0.00  0.00     0.057 C 
HETATM    5  C   UNK N   1      27.866  24.932  -7.606  0.00  0.00     0.057 C 
BRANCH   3   6
HETATM    6  O   UNK N   1      25.780  25.993  -7.411  0.00  0.00    -0.331 OA
BRANCH   6   7
HETATM    7  C   UNK N   1      26.005  26.980  -6.504  0.00  0.00     0.070 A 
HETATM    8  C   UNK N   1      25.100  27.138  -5.451  0.00  0.00     0.038 A 
HETATM    9  C   UNK N   1      25.331  28.097  -4.461  0.00  0.00     0.026 A 
HETATM   10  C   UNK N   1      26.466  28.910  -4.527  0.00  0.00     0.034 A 
HETATM   11  C   UNK N   1      27.365  28.773  -5.586  0.00  0.00     0.026 A 
HETATM   12 Cl   UNK N   1      26.766  30.092  -3.273  0.00  0.00    -0.084 Cl
HETATM   13  C   UNK N   1      27.140  27.809  -6.570  0.00  0.00     0.038 A 
ENDBRANCH   6   7
ENDBRANCH   3   6
ENDBRANCH   1   3
BRANCH   1  14
HETATM   14  O   UNK N   1      27.216  23.948  -5.268  0.00  0.00    -0.317 OA
BRANCH  14  15
HETATM   15  C   UNK N   1      27.099  24.391  -3.982  0.00  0.00     0.205 C 
BRANCH  15  16
HETATM   16  C   UNK N   1      28.488  24.364  -3.362  0.00  0.00     0.206 C 
BRANCH  16  17
HETATM   17  O   UNK N   1      28.779  23.112  -2.845  0.00  0.00    -0.315 OA
BRANCH  17  18
HETATM   18  C   UNK N   1      30.025  22.742  -2.468  0.00  0.00     0.294 C 
HETATM   19  O   UNK N   1      30.470  23.178  -1.405  0.00  0.00    -0.259 OA
BRANCH  18  20
HETATM   20  C   UNK N   1      30.867  21.824  -3.274  0.00  0.00     0.054 A 
HETATM   21  C   UNK N   1      30.393  21.290  -4.484  0.00  0.00     0.020 A 
HETATM   22  C   UNK N   1      31.186  20.427  -5.232  0.00  0.00     0.018 A 
HETATM   23  C   UNK N   1      32.452  20.090  -4.760  0.00  0.00     0.087 A 
HETATM   24  N   UNK N   1      32.909  20.615  -3.590  0.00  0.00    -0.374 N 
HETATM   25  C   UNK N   1      32.152  21.475  -2.855  0.00  0.00     0.105 A 
ATOM     26  HN  UNK N   1      33.838  20.360  -3.257  1.00  0.00     0.164 HD
ENDBRANCH  18  20
ENDBRANCH  17  18
ENDBRANCH  16  17
ENDBRANCH  15  16
ENDBRANCH  14  15
ENDBRANCH   1  14
TORSDOF 9
ENDMDL
MODEL 4
REMARK VINA RESULT:      -6.5     17.776     21.237
REMARK  9 active torsions:
REMARK  status: ('A' for Active; 'I' for Inactive)
REMARK    1  A    between atoms: C_11  and  C_10 
REMARK    2  A    between atoms: O_24  and  C_10 
REMARK    3  A    between atoms: O_25  and  C_11 
REMARK    4  A    between atoms: C_16  and  C_13 
REMARK    5  A    between atoms: O_26  and  C_15 
REMARK    6  A    between atoms: O_24  and  C_16 
REMARK    7  A    between atoms: C_18  and  C_17 
REMARK    8  A    between atoms: O_25  and  C_17 
REMARK    9  A    between atoms: O_26  and  C_18 
ROOT
HETATM    1  C   UNK N   1      28.446  28.478  -4.171  0.00  0.00     0.293 C 
HETATM    2  O   UNK N   1      28.423  28.675  -5.380  0.00  0.00    -0.262 OA
ENDROOT
BRANCH   1   3
HETATM    3  C   UNK N   1      27.316  28.924  -3.286  0.00  0.00     0.148 C 
HETATM    4  C   UNK N   1      26.583  30.098  -3.921  0.00  0.00     0.057 C 
HETATM    5  C   UNK N   1      27.935  29.419  -1.992  0.00  0.00     0.057 C 
BRANCH   3   6
HETATM    6  O   UNK N   1      26.424  27.911  -2.970  0.00  0.00    -0.331 OA
BRANCH   6   7
HETATM    7  C   UNK N   1      26.226  26.766  -3.676  0.00  0.00     0.070 A 
HETATM    8  C   UNK N   1      25.475  26.829  -4.853  0.00  0.00     0.038 A 
HETATM    9  C   UNK N   1      25.304  25.690  -5.642  0.00  0.00     0.026 A 
HETATM   10  C   UNK N   1      25.879  24.477  -5.252  0.00  0.00     0.034 A 
HETATM   11  C   UNK N   1      26.615  24.400  -4.068  0.00  0.00     0.026 A 
HETATM   12 Cl   UNK N   1      25.686  23.058  -6.256  0.00  0.00    -0.084 Cl
HETATM   13  C   UNK N   1      26.792  25.540  -3.283  0.00  0.00     0.038 A 
ENDBRANCH   6   7
ENDBRANCH   3   6
ENDBRANCH   1   3
BRANCH   1  14
HETATM   14  O   UNK N   1      29.446  27.773  -3.603  0.00  0.00    -0.317 OA
BRANCH  14  15
HETATM   15  C   UNK N   1      30.297  26.993  -4.333  0.00  0.00     0.205 C 
BRANCH  15  16
HETATM   16  C   UNK N   1      30.804  25.890  -3.417  0.00  0.00     0.206 C 
BRANCH  16  17
HETATM   17  O   UNK N   1      30.149  24.694  -3.668  0.00  0.00    -0.315 OA
BRANCH  17  18
HETATM   18  C   UNK N   1      30.442  23.544  -3.017  0.00  0.00     0.294 C 
HETATM   19  O   UNK N   1      30.350  23.525  -1.789  0.00  0.00    -0.259 OA
BRANCH  18  20
HETATM   20  C   UNK N   1      30.853  22.305  -3.724  0.00  0.00     0.054 A 
HETATM   21  C   UNK N   1      30.230  21.923  -4.924  0.00  0.00     0.020 A 
HETATM   22  C   UNK N   1      30.617  20.759  -5.579  0.00  0.00     0.018 A 
HETATM   23  C   UNK N   1      31.623  19.971  -5.023  0.00  0.00     0.087 A 
HETATM   24  N   UNK N   1      32.227  20.351  -3.863  0.00  0.00    -0.374 N 
HETATM   25  C   UNK N   1      31.872  21.496  -3.219  0.00  0.00     0.105 A 
ATOM     26  HN  UNK N   1      32.963  19.765  -3.469  1.00  0.00     0.164 HD
ENDBRANCH  18  20
ENDBRANCH  17  18
ENDBRANCH  16  17
ENDBRANCH  15  16
ENDBRANCH  14  15
ENDBRANCH   1  14
TORSDOF 9
ENDMDL
MODEL 5
REMARK VINA RESULT:      -6.4     11.779     15.737
REMARK  9 active torsions:
REMARK  status: ('A' for Active; 'I' for Inactive)
REMARK    1  A    between atoms: C_11  and  C_10 
REMARK    2  A    between atoms: O_24  and  C_10 
REMARK    3  A    between atoms: O_25  and  C_11 
REMARK    4  A    between atoms: C_16  and  C_13 
REMARK    5  A    between atoms: O_26  and  C_15 
REMARK    6  A    between atoms: O_24  and  C_16 
REMARK    7  A    between atoms: C_18  and  C_17 
REMARK    8  A    between atoms: O_25  and  C_17 
REMARK    9  A    between atoms: O_26  and  C_18 
ROOT
HETATM    1  C   UNK N   1      21.228  17.748   5.962  0.00  0.00     0.293 C 
HETATM    2  O   UNK N   1      21.419  18.676   6.738  0.00  0.00    -0.262 OA
ENDROOT
BRANCH   1   3
HETATM    3  C   UNK N   1      21.296  17.947   4.474  0.00  0.00     0.148 C 
HETATM    4  C   UNK N   1      20.952  19.388   4.121  0.00  0.00     0.057 C 
HETATM    5  C   UNK N   1      20.229  17.060   3.859  0.00  0.00     0.057 C 
BRANCH   3   6
HETATM    6  O   UNK N   1      22.515  17.591   3.920  0.00  0.00    -0.331 OA
BRANCH   6   7
HETATM    7  C   UNK N   1      23.704  18.217   4.126  0.00  0.00     0.070 A 
HETATM    8  C   UNK N   1      24.704  17.538   4.827  0.00  0.00     0.038 A 
HETATM    9  C   UNK N   1      25.962  18.119   5.001  0.00  0.00     0.026 A 
HETATM   10  C   UNK N   1      26.223  19.390   4.480  0.00  0.00     0.034 A 
HETATM   11  C   UNK N   1      25.224  20.084   3.795  0.00  0.00     0.026 A 
HETATM   12 Cl   UNK N   1      27.807  20.104   4.677  0.00  0.00    -0.084 Cl
HETATM   13  C   UNK N   1      23.969  19.500   3.613  0.00  0.00     0.038 A 
ENDBRANCH   6   7
ENDBRANCH   3   6
ENDBRANCH   1   3
BRANCH   1  14
HETATM   14  O   UNK N   1      21.040  16.492   6.418  0.00  0.00    -0.317 OA
BRANCH  14  15
HETATM   15  C   UNK N   1      20.093  16.189   7.355  0.00  0.00     0.205 C 
BRANCH  15  16
HETATM   16  C   UNK N   1      20.815  15.607   8.561  0.00  0.00     0.206 C 
BRANCH  16  17
HETATM   17  O   UNK N   1      20.667  14.229   8.613  0.00  0.00    -0.315 OA
BRANCH  17  18
HETATM   18  C   UNK N   1      20.777  13.521   9.761  0.00  0.00     0.294 C 
HETATM   19  O   UNK N   1      19.750  13.262  10.392  0.00  0.00    -0.259 OA
BRANCH  18  20
HETATM   20  C   UNK N   1      22.078  13.031  10.280  0.00  0.00     0.054 A 
HETATM   21  C   UNK N   1      22.134  12.196  11.408  0.00  0.00     0.020 A 
HETATM   22  C   UNK N   1      23.357  11.744  11.890  0.00  0.00     0.018 A 
HETATM   23  C   UNK N   1      24.527  12.140  11.246  0.00  0.00     0.087 A 
HETATM   24  N   UNK N   1      24.467  12.944  10.149  0.00  0.00    -0.374 N 
HETATM   25  C   UNK N   1      23.277  13.381   9.654  0.00  0.00     0.105 A 
ATOM     26  HN  UNK N   1      25.331  13.225   9.688  1.00  0.00     0.164 HD
ENDBRANCH  18  20
ENDBRANCH  17  18
ENDBRANCH  16  17
ENDBRANCH  15  16
ENDBRANCH  14  15
ENDBRANCH   1  14
TORSDOF 9
ENDMDL
MODEL 6
REMARK VINA RESULT:      -6.3     17.382     21.491
REMARK  9 active torsions:
REMARK  status: ('A' for Active; 'I' for Inactive)
REMARK    1  A    between atoms: C_11  and  C_10 
REMARK    2  A    between atoms: O_24  and  C_10 
REMARK    3  A    between atoms: O_25  and  C_11 
REMARK    4  A    between atoms: C_16  and  C_13 
REMARK    5  A    between atoms: O_26  and  C_15 
REMARK    6  A    between atoms: O_24  and  C_16 
REMARK    7  A    between atoms: C_18  and  C_17 
REMARK    8  A    between atoms: O_25  and  C_17 
REMARK    9  A    between atoms: O_26  and  C_18 
ROOT
HETATM    1  C   UNK N   1      27.991  26.937  -4.691  0.00  0.00     0.293 C 
HETATM    2  O   UNK N   1      28.692  27.208  -5.658  0.00  0.00    -0.262 OA
ENDROOT
BRANCH   1   3
HETATM    3  C   UNK N   1      26.611  27.513  -4.542  0.00  0.00     0.148 C 
HETATM    4  C   UNK N   1      26.640  29.016  -4.784  0.00  0.00     0.057 C 
HETATM    5  C   UNK N   1      26.193  27.292  -3.099  0.00  0.00     0.057 C 
BRANCH   3   6
HETATM    6  O   UNK N   1      25.666  26.909  -5.355  0.00  0.00    -0.331 OA
BRANCH   6   7
HETATM    7  C   UNK N   1      25.802  25.720  -5.999  0.00  0.00     0.070 A 
HETATM    8  C   UNK N   1      25.625  24.541  -5.270  0.00  0.00     0.038 A 
HETATM    9  C   UNK N   1      25.690  23.300  -5.909  0.00  0.00     0.026 A 
HETATM   10  C   UNK N   1      25.942  23.233  -7.282  0.00  0.00     0.034 A 
HETATM   11  C   UNK N   1      26.140  24.406  -8.015  0.00  0.00     0.026 A 
HETATM   12 Cl   UNK N   1      25.998  21.680  -8.084  0.00  0.00    -0.084 Cl
HETATM   13  C   UNK N   1      26.066  25.646  -7.379  0.00  0.00     0.038 A 
ENDBRANCH   6   7
ENDBRANCH   3   6
ENDBRANCH   1   3
BRANCH   1  14
HETATM   14  O   UNK N   1      28.400  26.040  -3.770  0.00  0.00    -0.317 OA
BRANCH  14  15
HETATM   15  C   UNK N   1      29.051  24.888  -4.109  0.00  0.00     0.205 C 
BRANCH  15  16
HETATM   16  C   UNK N   1      28.638  23.819  -3.109  0.00  0.00     0.206 C 
BRANCH  16  17
HETATM   17  O   UNK N   1      29.349  22.646  -3.311  0.00  0.00    -0.315 OA
BRANCH  17  18
HETATM   18  C   UNK N   1      30.539  22.396  -2.717  0.00  0.00     0.294 C 
HETATM   19  O   UNK N   1      30.783  22.939  -1.638  0.00  0.00    -0.259 OA
BRANCH  18  20
HETATM   20  C   UNK N   1      31.551  21.482  -3.303  0.00  0.00     0.054 A 
HETATM   21  C   UNK N   1      32.847  21.406  -2.767  0.00  0.00     0.020 A 
HETATM   22  C   UNK N   1      33.791  20.550  -3.324  0.00  0.00     0.018 A 
HETATM   23  C   UNK N   1      33.437  19.778  -4.428  0.00  0.00     0.087 A 
HETATM   24  N   UNK N   1      32.177  19.851  -4.940  0.00  0.00    -0.374 N 
HETATM   25  C   UNK N   1      31.237  20.670  -4.396  0.00  0.00     0.105 A 
ATOM     26  HN  UNK N   1      31.933  19.279  -5.748  1.00  0.00     0.164 HD
ENDBRANCH  18  20
ENDBRANCH  17  18
ENDBRANCH  16  17
ENDBRANCH  15  16
ENDBRANCH  14  15
ENDBRANCH   1  14
TORSDOF 9
ENDMDL
MODEL 7
REMARK VINA RESULT:      -6.2      4.369      6.898
REMARK  9 active torsions:
REMARK  status: ('A' for Active; 'I' for Inactive)
REMARK    1  A    between atoms: C_11  and  C_10 
REMARK    2  A    between atoms: O_24  and  C_10 
REMARK    3  A    between atoms: O_25  and  C_11 
REMARK    4  A    between atoms: C_16  and  C_13 
REMARK    5  A    between atoms: O_26  and  C_15 
REMARK    6  A    between atoms: O_24  and  C_16 
REMARK    7  A    between atoms: C_18  and  C_17 
REMARK    8  A    between atoms: O_25  and  C_17 
REMARK    9  A    between atoms: O_26  and  C_18 
ROOT
HETATM    1  C   UNK N   1      33.398  17.189   6.808  0.00  0.00     0.293 C 
HETATM    2  O   UNK N   1      34.338  17.901   6.477  0.00  0.00    -0.262 OA
ENDROOT
BRANCH   1   3
HETATM    3  C   UNK N   1      32.954  17.100   8.241  0.00  0.00     0.148 C 
HETATM    4  C   UNK N   1      32.289  15.754   8.501  0.00  0.00     0.057 C 
HETATM    5  C   UNK N   1      31.902  18.175   8.447  0.00  0.00     0.057 C 
BRANCH   3   6
HETATM    6  O   UNK N   1      33.972  17.321   9.155  0.00  0.00    -0.331 OA
BRANCH   6   7
HETATM    7  C   UNK N   1      34.832  16.387   9.640  0.00  0.00     0.070 A 
HETATM    8  C   UNK N   1      35.164  16.426  10.997  0.00  0.00     0.038 A 
HETATM    9  C   UNK N   1      35.991  15.445  11.549  0.00  0.00     0.026 A 
HETATM   10  C   UNK N   1      36.498  14.422  10.741  0.00  0.00     0.034 A 
HETATM   11  C   UNK N   1      36.187  14.387   9.380  0.00  0.00     0.026 A 
HETATM   12 Cl   UNK N   1      37.511  13.181  11.440  0.00  0.00    -0.084 Cl
HETATM   13  C   UNK N   1      35.354  15.362   8.830  0.00  0.00     0.038 A 
ENDBRANCH   6   7
ENDBRANCH   3   6
ENDBRANCH   1   3
BRANCH   1  14
HETATM   14  O   UNK N   1      32.670  16.530   5.883  0.00  0.00    -0.317 OA
BRANCH  14  15
HETATM   15  C   UNK N   1      32.809  16.758   4.544  0.00  0.00     0.205 C 
BRANCH  15  16
HETATM   16  C   UNK N   1      31.628  17.609   4.102  0.00  0.00     0.206 C 
BRANCH  16  17
HETATM   17  O   UNK N   1      30.585  17.525   5.012  0.00  0.00    -0.315 OA
BRANCH  17  18
HETATM   18  C   UNK N   1      29.297  17.773   4.679  0.00  0.00     0.294 C 
HETATM   19  O   UNK N   1      28.793  17.124   3.761  0.00  0.00    -0.259 OA
BRANCH  18  20
HETATM   20  C   UNK N   1      28.467  18.780   5.385  0.00  0.00     0.054 A 
HETATM   21  C   UNK N   1      27.986  19.915   4.712  0.00  0.00     0.020 A 
HETATM   22  C   UNK N   1      27.212  20.856   5.381  0.00  0.00     0.018 A 
HETATM   23  C   UNK N   1      26.929  20.665   6.731  0.00  0.00     0.087 A 
HETATM   24  N   UNK N   1      27.392  19.560   7.377  0.00  0.00    -0.374 N 
HETATM   25  C   UNK N   1      28.136  18.620   6.733  0.00  0.00     0.105 A 
ATOM     26  HN  UNK N   1      27.177  19.432   8.366  1.00  0.00     0.164 HD
ENDBRANCH  18  20
ENDBRANCH  17  18
ENDBRANCH  16  17
ENDBRANCH  15  16
ENDBRANCH  14  15
ENDBRANCH   1  14
TORSDOF 9
ENDMDL
MODEL 8
REMARK VINA RESULT:      -6.1      4.397      9.661
REMARK  9 active torsions:
REMARK  status: ('A' for Active; 'I' for Inactive)
REMARK    1  A    between atoms: C_11  and  C_10 
REMARK    2  A    between atoms: O_24  and  C_10 
REMARK    3  A    between atoms: O_25  and  C_11 
REMARK    4  A    between atoms: C_16  and  C_13 
REMARK    5  A    between atoms: O_26  and  C_15 
REMARK    6  A    between atoms: O_24  and  C_16 
REMARK    7  A    between atoms: C_18  and  C_17 
REMARK    8  A    between atoms: O_25  and  C_17 
REMARK    9  A    between atoms: O_26  and  C_18 
ROOT
HETATM    1  C   UNK N   1      34.711  16.626   9.669  0.00  0.00     0.293 C 
HETATM    2  O   UNK N   1      35.446  17.526  10.055  0.00  0.00    -0.262 OA
ENDROOT
BRANCH   1   3
HETATM    3  C   UNK N   1      33.895  16.769   8.415  0.00  0.00     0.148 C 
HETATM    4  C   UNK N   1      34.594  16.076   7.252  0.00  0.00     0.057 C 
HETATM    5  C   UNK N   1      33.834  18.251   8.092  0.00  0.00     0.057 C 
BRANCH   3   6
HETATM    6  O   UNK N   1      32.594  16.308   8.542  0.00  0.00    -0.331 OA
BRANCH   6   7
HETATM    7  C   UNK N   1      31.475  16.926   8.081  0.00  0.00     0.070 A 
HETATM    8  C   UNK N   1      31.052  16.657   6.776  0.00  0.00     0.038 A 
HETATM    9  C   UNK N   1      29.870  17.220   6.289  0.00  0.00     0.026 A 
HETATM   10  C   UNK N   1      29.109  18.063   7.103  0.00  0.00     0.034 A 
HETATM   11  C   UNK N   1      29.534  18.354   8.401  0.00  0.00     0.026 A 
HETATM   12 Cl   UNK N   1      27.617  18.746   6.498  0.00  0.00    -0.084 Cl
HETATM   13  C   UNK N   1      30.710  17.785   8.892  0.00  0.00     0.038 A 
ENDBRANCH   6   7
ENDBRANCH   3   6
ENDBRANCH   1   3
BRANCH   1  14
HETATM   14  O   UNK N   1      34.676  15.438  10.308  0.00  0.00    -0.317 OA
BRANCH  14  15
HETATM   15  C   UNK N   1      35.110  15.286  11.593  0.00  0.00     0.205 C 
BRANCH  15  16
HETATM   16  C   UNK N   1      35.998  14.051  11.632  0.00  0.00     0.206 C 
BRANCH  16  17
HETATM   17  O   UNK N   1      36.636  13.935  12.857  0.00  0.00    -0.315 OA
BRANCH  17  18
HETATM   18  C   UNK N   1      36.848  12.744  13.465  0.00  0.00     0.294 C 
HETATM   19  O   UNK N   1      37.532  11.901  12.883  0.00  0.00    -0.259 OA
BRANCH  18  20
HETATM   20  C   UNK N   1      36.305  12.423  14.809  0.00  0.00     0.054 A 
HETATM   21  C   UNK N   1      36.638  11.217  15.448  0.00  0.00     0.020 A 
HETATM   22  C   UNK N   1      36.122  10.921  16.705  0.00  0.00     0.018 A 
HETATM   23  C   UNK N   1      35.262  11.830  17.316  0.00  0.00     0.087 A 
HETATM   24  N   UNK N   1      34.948  13.000  16.694  0.00  0.00    -0.374 N 
HETATM   25  C   UNK N   1      35.458  13.313  15.472  0.00  0.00     0.105 A 
ATOM     26  HN  UNK N   1      34.318  13.656  17.154  1.00  0.00     0.164 HD
ENDBRANCH  18  20
ENDBRANCH  17  18
ENDBRANCH  16  17
ENDBRANCH  15  16
ENDBRANCH  14  15
ENDBRANCH   1  14
TORSDOF 9
ENDMDL
MODEL 9
REMARK VINA RESULT:      -6.1     13.235     16.899
REMARK  9 active torsions:
REMARK  status: ('A' for Active; 'I' for Inactive)
REMARK    1  A    between atoms: C_11  and  C_10 
REMARK    2  A    between atoms: O_24  and  C_10 
REMARK    3  A    between atoms: O_25  and  C_11 
REMARK    4  A    between atoms: C_16  and  C_13 
REMARK    5  A    between atoms: O_26  and  C_15 
REMARK    6  A    between atoms: O_24  and  C_16 
REMARK    7  A    between atoms: C_18  and  C_17 
REMARK    8  A    between atoms: O_25  and  C_17 
REMARK    9  A    between atoms: O_26  and  C_18 
ROOT
HETATM    1  C   UNK N   1      20.984  17.587   6.319  0.00  0.00     0.293 C 
HETATM    2  O   UNK N   1      21.235  18.543   7.043  0.00  0.00    -0.262 OA
ENDROOT
BRANCH   1   3
HETATM    3  C   UNK N   1      21.719  17.374   5.026  0.00  0.00     0.148 C 
HETATM    4  C   UNK N   1      23.081  18.054   5.078  0.00  0.00     0.057 C 
HETATM    5  C   UNK N   1      20.910  18.056   3.938  0.00  0.00     0.057 C 
BRANCH   3   6
HETATM    6  O   UNK N   1      21.858  16.039   4.678  0.00  0.00    -0.331 OA
BRANCH   6   7
HETATM    7  C   UNK N   1      21.235  15.410   3.647  0.00  0.00     0.070 A 
HETATM    8  C   UNK N   1      20.005  14.792   3.886  0.00  0.00     0.038 A 
HETATM    9  C   UNK N   1      19.301  14.194   2.838  0.00  0.00     0.026 A 
HETATM   10  C   UNK N   1      19.832  14.202   1.545  0.00  0.00     0.034 A 
HETATM   11  C   UNK N   1      21.070  14.800   1.300  0.00  0.00     0.026 A 
HETATM   12 Cl   UNK N   1      18.937  13.474   0.230  0.00  0.00    -0.084 Cl
HETATM   13  C   UNK N   1      21.769  15.406   2.345  0.00  0.00     0.038 A 
ENDBRANCH   6   7
ENDBRANCH   3   6
ENDBRANCH   1   3
BRANCH   1  14
HETATM   14  O   UNK N   1      20.100  16.642   6.701  0.00  0.00    -0.317 OA
BRANCH  14  15
HETATM   15  C   UNK N   1      19.587  16.589   7.966  0.00  0.00     0.205 C 
BRANCH  15  16
HETATM   16  C   UNK N   1      20.522  15.727   8.802  0.00  0.00     0.206 C 
BRANCH  16  17
HETATM   17  O   UNK N   1      20.045  14.430   8.905  0.00  0.00    -0.315 OA
BRANCH  17  18
HETATM   18  C   UNK N   1      20.847  13.343   8.828  0.00  0.00     0.294 C 
HETATM   19  O   UNK N   1      20.930  12.750   7.751  0.00  0.00    -0.259 OA
BRANCH  18  20
HETATM   20  C   UNK N   1      21.640  12.849   9.981  0.00  0.00     0.054 A 
HETATM   21  C   UNK N   1      23.044  12.885   9.956  0.00  0.00     0.020 A 
HETATM   22  C   UNK N   1      23.780  12.417  11.038  0.00  0.00     0.018 A 
HETATM   23  C   UNK N   1      23.107  11.900  12.143  0.00  0.00     0.087 A 
HETATM   24  N   UNK N   1      21.746  11.874  12.165  0.00  0.00    -0.374 N 
HETATM   25  C   UNK N   1      21.010  12.344  11.121  0.00  0.00     0.105 A 
ATOM     26  HN  UNK N   1      21.267  11.494  12.981  1.00  0.00     0.164 HD
ENDBRANCH  18  20
ENDBRANCH  17  18
ENDBRANCH  16  17
ENDBRANCH  15  16
ENDBRANCH  14  15
ENDBRANCH   1  14
TORSDOF 9
ENDMDL
