MODEL 1
REMARK VINA RESULT:      -6.2      0.000      0.000
REMARK  12 active torsions:
REMARK  status: ('A' for Active; 'I' for Inactive)
REMARK    1  A    between atoms: C_6  and  C_5 
REMARK    2  A    between atoms: C_16  and  C_5 
REMARK    3  A    between atoms: O_24  and  C_6 
REMARK    4  A    between atoms: C_14  and  C_9 
REMARK    5  A    between atoms: N_23  and  C_9 
REMARK    6  A    between atoms: C_15  and  C_10 
REMARK    7  A    between atoms: S_27  and  C_10 
REMARK    8  A    between atoms: N_23  and  C_11 
REMARK    9  A    between atoms: N_23  and  C_12 
REMARK   10  A    between atoms: S_28  and  C_16 
REMARK   11  A    between atoms: N_18  and  C_17 
REMARK   12  A    between atoms: S_28  and  S_27 
ROOT
HETATM    1  N   UNK N   1      32.976  16.405   7.029  0.00  0.00    -0.324 N 
ENDROOT
BRANCH   1   2
HETATM    2  C   UNK N   1      33.046  15.040   7.516  0.00  0.00     0.175 C 
BRANCH   2   3
HETATM    3  C   UNK N   1      33.810  15.001   8.811  0.00  0.00     0.019 A 
HETATM    4  C   UNK N   1      35.203  15.008   8.794  0.00  0.00     0.102 A 
HETATM    5  N   UNK N   1      35.900  14.959   9.959  0.00  0.00    -0.355 N 
HETATM    6  C   UNK N   1      35.254  14.906  11.152  0.00  0.00     0.078 A 
ATOM      7  HN  UNK N   1      36.920  14.961   9.937  1.00  0.00     0.166 HD
HETATM    8  C   UNK N   1      36.039  14.849  12.414  0.00  0.00     0.089 C 
HETATM    9  N   UNK N   1      33.898  14.908  11.195  0.00  0.00    -0.332 N 
HETATM   10  C   UNK N   1      33.157  14.955  10.052  0.00  0.00     0.109 A 
HETATM   11  H   UNK N   1      33.442  14.875  12.067  0.00  0.00     0.168 HD
BRANCH  10  12
HETATM   12  N   UNK N   1      31.884  14.954  10.122  0.00  0.00    -0.385 N 
HETATM   13  H   UNK N   1      31.425  14.370  10.768  0.00  0.00     0.157 HD
ATOM     14  HN  UNK N   1      31.340  15.559   9.507  1.00  0.00     0.157 HD
ENDBRANCH  10  12
ENDBRANCH   2   3
ENDBRANCH   1   2
BRANCH   1  15
HETATM   15  C   UNK N   1      33.575  16.732   5.852  0.00  0.00     0.355 C 
HETATM   16  O   UNK N   1      34.023  17.852   5.655  0.00  0.00    -0.283 OA
ENDBRANCH   1  15
BRANCH   1  17
HETATM   17  C   UNK N   1      32.079  17.327   7.661  0.00  0.00     0.024 C 
HETATM   18  C   UNK N   1      32.670  18.401   8.534  0.00  0.00     0.069 C 
HETATM   19  C   UNK N   1      30.723  17.271   7.510  0.00  0.00     0.014 C 
BRANCH  19  20
HETATM   20  C   UNK N   1      29.822  18.170   8.311  0.00  0.00     0.074 C 
BRANCH  20  21
HETATM   21  C   UNK N   1      28.603  17.401   8.825  0.00  0.00     0.169 C 
BRANCH  21  22
HETATM   22  O   UNK N   1      27.618  18.274   9.300  0.00  0.00    -0.401 OA
HETATM   23  H   UNK N   1      26.951  18.875   8.932  0.00  0.00     0.209 HD
ENDBRANCH  21  22
ENDBRANCH  20  21
ENDBRANCH  19  20
BRANCH  19  24
HETATM   24  S   UNK N   1      29.879  16.184   6.340  0.00  0.00    -0.060 SA
BRANCH  24  25
HETATM   25  S   UNK N   1      29.996  17.546   4.677  0.00  0.00    -0.090 SA
BRANCH  25  26
HETATM   26  C   UNK N   1      28.221  17.991   4.649  0.00  0.00     0.118 C 
BRANCH  26  27
HETATM   27  C   UNK N   1      27.981  19.503   4.681  0.00  0.00     0.131 C 
HETATM   28  C   UNK N   1      27.625  19.980   6.071  0.00  0.00     0.035 C 
HETATM   29  C   UNK N   1      26.580  21.011   5.812  0.00  0.00     0.029 C 
HETATM   30  C   UNK N   1      25.971  20.513   4.529  0.00  0.00     0.168 C 
HETATM   31  O   UNK N   1      26.986  19.907   3.767  0.00  0.00    -0.385 OA
ENDBRANCH  26  27
ENDBRANCH  25  26
ENDBRANCH  24  25
ENDBRANCH  19  24
ENDBRANCH   1  17
TORSDOF 12
ENDMDL
MODEL 2
REMARK VINA RESULT:      -5.8      4.144      9.254
REMARK  12 active torsions:
REMARK  status: ('A' for Active; 'I' for Inactive)
REMARK    1  A    between atoms: C_6  and  C_5 
REMARK    2  A    between atoms: C_16  and  C_5 
REMARK    3  A    between atoms: O_24  and  C_6 
REMARK    4  A    between atoms: C_14  and  C_9 
REMARK    5  A    between atoms: N_23  and  C_9 
REMARK    6  A    between atoms: C_15  and  C_10 
REMARK    7  A    between atoms: S_27  and  C_10 
REMARK    8  A    between atoms: N_23  and  C_11 
REMARK    9  A    between atoms: N_23  and  C_12 
REMARK   10  A    between atoms: S_28  and  C_16 
REMARK   11  A    between atoms: N_18  and  C_17 
REMARK   12  A    between atoms: S_28  and  S_27 
ROOT
HETATM    1  N   UNK N   1      33.961  16.417   8.448  0.00  0.00    -0.324 N 
ENDROOT
BRANCH   1   2
HETATM    2  C   UNK N   1      32.646  16.020   8.915  0.00  0.00     0.175 C 
BRANCH   2   3
HETATM    3  C   UNK N   1      31.604  16.437   7.915  0.00  0.00     0.019 A 
HETATM    4  C   UNK N   1      31.623  15.899   6.629  0.00  0.00     0.102 A 
HETATM    5  N   UNK N   1      30.693  16.282   5.717  0.00  0.00    -0.355 N 
HETATM    6  C   UNK N   1      29.733  17.186   6.040  0.00  0.00     0.078 A 
ATOM      7  HN  UNK N   1      30.715  15.886   4.777  1.00  0.00     0.166 HD
HETATM    8  C   UNK N   1      28.728  17.593   5.021  0.00  0.00     0.089 C 
HETATM    9  N   UNK N   1      29.688  17.717   7.287  0.00  0.00    -0.332 N 
HETATM   10  C   UNK N   1      30.601  17.364   8.236  0.00  0.00     0.109 A 
HETATM   11  H   UNK N   1      28.984  18.368   7.512  0.00  0.00     0.168 HD
BRANCH  10  12
HETATM   12  N   UNK N   1      30.536  17.880   9.401  0.00  0.00    -0.385 N 
HETATM   13  H   UNK N   1      30.307  18.831   9.508  0.00  0.00     0.157 HD
ATOM     14  HN  UNK N   1      30.721  17.306  10.223  1.00  0.00     0.157 HD
ENDBRANCH  10  12
ENDBRANCH   2   3
ENDBRANCH   1   2
BRANCH   1  15
HETATM   15  C   UNK N   1      34.255  17.738   8.307  0.00  0.00     0.355 C 
HETATM   16  O   UNK N   1      34.719  18.180   7.266  0.00  0.00    -0.283 OA
ENDBRANCH   1  15
BRANCH   1  17
HETATM   17  C   UNK N   1      35.004  15.436   8.377  0.00  0.00     0.024 C 
HETATM   18  C   UNK N   1      35.298  14.815   7.038  0.00  0.00     0.069 C 
HETATM   19  C   UNK N   1      35.732  15.040   9.462  0.00  0.00     0.014 C 
BRANCH  19  20
HETATM   20  C   UNK N   1      36.711  13.904   9.359  0.00  0.00     0.074 C 
BRANCH  20  21
HETATM   21  C   UNK N   1      38.128  14.377   9.692  0.00  0.00     0.169 C 
BRANCH  21  22
HETATM   22  O   UNK N   1      38.709  13.575  10.682  0.00  0.00    -0.401 OA
HETATM   23  H   UNK N   1      38.837  13.598  11.643  0.00  0.00     0.209 HD
ENDBRANCH  21  22
ENDBRANCH  20  21
ENDBRANCH  19  20
BRANCH  19  24
HETATM   24  S   UNK N   1      35.644  15.834  11.082  0.00  0.00    -0.060 SA
BRANCH  24  25
HETATM   25  S   UNK N   1      35.167  14.037  12.165  0.00  0.00    -0.090 SA
BRANCH  25  26
HETATM   26  C   UNK N   1      36.392  14.269  13.504  0.00  0.00     0.118 C 
BRANCH  26  27
HETATM   27  C   UNK N   1      36.326  13.176  14.574  0.00  0.00     0.131 C 
HETATM   28  C   UNK N   1      35.012  12.431  14.528  0.00  0.00     0.035 C 
HETATM   29  C   UNK N   1      34.702  12.213  15.970  0.00  0.00     0.029 C 
HETATM   30  C   UNK N   1      35.382  13.394  16.610  0.00  0.00     0.168 C 
HETATM   31  O   UNK N   1      36.543  13.684  15.872  0.00  0.00    -0.385 OA
ENDBRANCH  26  27
ENDBRANCH  25  26
ENDBRANCH  24  25
ENDBRANCH  19  24
ENDBRANCH   1  17
TORSDOF 12
ENDMDL
MODEL 3
REMARK VINA RESULT:      -5.7      1.785      2.542
REMARK  12 active torsions:
REMARK  status: ('A' for Active; 'I' for Inactive)
REMARK    1  A    between atoms: C_6  and  C_5 
REMARK    2  A    between atoms: C_16  and  C_5 
REMARK    3  A    between atoms: O_24  and  C_6 
REMARK    4  A    between atoms: C_14  and  C_9 
REMARK    5  A    between atoms: N_23  and  C_9 
REMARK    6  A    between atoms: C_15  and  C_10 
REMARK    7  A    between atoms: S_27  and  C_10 
REMARK    8  A    between atoms: N_23  and  C_11 
REMARK    9  A    between atoms: N_23  and  C_12 
REMARK   10  A    between atoms: S_28  and  C_16 
REMARK   11  A    between atoms: N_18  and  C_17 
REMARK   12  A    between atoms: S_28  and  S_27 
ROOT
HETATM    1  N   UNK N   1      32.616  16.554   7.034  0.00  0.00    -0.324 N 
ENDROOT
BRANCH   1   2
HETATM    2  C   UNK N   1      32.696  15.183   7.499  0.00  0.00     0.175 C 
BRANCH   2   3
HETATM    3  C   UNK N   1      33.545  15.115   8.738  0.00  0.00     0.019 A 
HETATM    4  C   UNK N   1      34.935  15.102   8.626  0.00  0.00     0.102 A 
HETATM    5  N   UNK N   1      35.708  15.026   9.740  0.00  0.00    -0.355 N 
HETATM    6  C   UNK N   1      35.144  14.968  10.973  0.00  0.00     0.078 A 
ATOM      7  HN  UNK N   1      36.724  15.014   9.648  1.00  0.00     0.166 HD
HETATM    8  C   UNK N   1      36.013  14.882  12.178  0.00  0.00     0.089 C 
HETATM    9  N   UNK N   1      33.795  14.989  11.109  0.00  0.00    -0.332 N 
HETATM   10  C   UNK N   1      32.979  15.062  10.020  0.00  0.00     0.109 A 
HETATM   11  H   UNK N   1      33.399  14.952  12.010  0.00  0.00     0.168 HD
BRANCH  10  12
HETATM   12  N   UNK N   1      31.713  15.079  10.178  0.00  0.00    -0.385 N 
HETATM   13  H   UNK N   1      31.159  14.356   9.806  0.00  0.00     0.157 HD
ATOM     14  HN  UNK N   1      31.275  15.845  10.689  1.00  0.00     0.157 HD
ENDBRANCH  10  12
ENDBRANCH   2   3
ENDBRANCH   1   2
BRANCH   1  15
HETATM   15  C   UNK N   1      33.355  16.947   5.961  0.00  0.00     0.355 C 
HETATM   16  O   UNK N   1      34.273  17.745   6.077  0.00  0.00    -0.283 OA
ENDBRANCH   1  15
BRANCH   1  17
HETATM   17  C   UNK N   1      31.585  17.407   7.548  0.00  0.00     0.024 C 
HETATM   18  C   UNK N   1      31.969  18.435   8.579  0.00  0.00     0.069 C 
HETATM   19  C   UNK N   1      30.281  17.326   7.152  0.00  0.00     0.014 C 
BRANCH  19  20
HETATM   20  C   UNK N   1      29.218  18.145   7.830  0.00  0.00     0.074 C 
BRANCH  20  21
HETATM   21  C   UNK N   1      28.399  17.281   8.793  0.00  0.00     0.169 C 
BRANCH  21  22
HETATM   22  O   UNK N   1      27.410  18.037   9.433  0.00  0.00    -0.401 OA
HETATM   23  H   UNK N   1      26.464  17.960   9.635  0.00  0.00     0.209 HD
ENDBRANCH  21  22
ENDBRANCH  20  21
ENDBRANCH  19  20
BRANCH  19  24
HETATM   24  S   UNK N   1      29.703  16.299   5.783  0.00  0.00    -0.060 SA
BRANCH  24  25
HETATM   25  S   UNK N   1      28.674  17.886   4.757  0.00  0.00    -0.090 SA
BRANCH  25  26
HETATM   26  C   UNK N   1      27.034  17.075   4.712  0.00  0.00     0.118 C 
BRANCH  26  27
HETATM   27  C   UNK N   1      26.728  16.413   3.365  0.00  0.00     0.131 C 
HETATM   28  C   UNK N   1      25.866  15.183   3.533  0.00  0.00     0.035 C 
HETATM   29  C   UNK N   1      26.435  14.238   2.530  0.00  0.00     0.029 C 
HETATM   30  C   UNK N   1      27.869  14.689   2.465  0.00  0.00     0.168 C 
HETATM   31  O   UNK N   1      27.900  16.083   2.652  0.00  0.00    -0.385 OA
ENDBRANCH  26  27
ENDBRANCH  25  26
ENDBRANCH  24  25
ENDBRANCH  19  24
ENDBRANCH   1  17
TORSDOF 12
ENDMDL
MODEL 4
REMARK VINA RESULT:      -5.7      1.418      2.034
REMARK  12 active torsions:
REMARK  status: ('A' for Active; 'I' for Inactive)
REMARK    1  A    between atoms: C_6  and  C_5 
REMARK    2  A    between atoms: C_16  and  C_5 
REMARK    3  A    between atoms: O_24  and  C_6 
REMARK    4  A    between atoms: C_14  and  C_9 
REMARK    5  A    between atoms: N_23  and  C_9 
REMARK    6  A    between atoms: C_15  and  C_10 
REMARK    7  A    between atoms: S_27  and  C_10 
REMARK    8  A    between atoms: N_23  and  C_11 
REMARK    9  A    between atoms: N_23  and  C_12 
REMARK   10  A    between atoms: S_28  and  C_16 
REMARK   11  A    between atoms: N_18  and  C_17 
REMARK   12  A    between atoms: S_28  and  S_27 
ROOT
HETATM    1  N   UNK N   1      32.237  16.782   6.766  0.00  0.00    -0.324 N 
ENDROOT
BRANCH   1   2
HETATM    2  C   UNK N   1      32.352  15.358   7.015  0.00  0.00     0.175 C 
BRANCH   2   3
HETATM    3  C   UNK N   1      33.120  15.124   8.287  0.00  0.00     0.019 A 
HETATM    4  C   UNK N   1      32.441  15.055   9.502  0.00  0.00     0.102 A 
HETATM    5  N   UNK N   1      33.128  14.858  10.656  0.00  0.00    -0.355 N 
HETATM    6  C   UNK N   1      34.479  14.723  10.646  0.00  0.00     0.078 A 
ATOM      7  HN  UNK N   1      32.624  14.812  11.542  1.00  0.00     0.166 HD
HETATM    8  C   UNK N   1      35.210  14.513  11.924  0.00  0.00     0.089 C 
HETATM    9  N   UNK N   1      35.161  14.778   9.475  0.00  0.00    -0.332 N 
HETATM   10  C   UNK N   1      34.515  14.975   8.291  0.00  0.00     0.109 A 
HETATM   11  H   UNK N   1      36.141  14.673   9.480  0.00  0.00     0.168 HD
BRANCH  10  12
HETATM   12  N   UNK N   1      35.181  15.023   7.205  0.00  0.00    -0.385 N 
HETATM   13  H   UNK N   1      35.687  15.834   6.971  0.00  0.00     0.157 HD
ATOM     14  HN  UNK N   1      35.191  14.219   6.578  1.00  0.00     0.157 HD
ENDBRANCH  10  12
ENDBRANCH   2   3
ENDBRANCH   1   2
BRANCH   1  15
HETATM   15  C   UNK N   1      33.034  17.370   5.833  0.00  0.00     0.355 C 
HETATM   16  O   UNK N   1      34.148  17.786   6.117  0.00  0.00    -0.283 OA
ENDBRANCH   1  15
BRANCH   1  17
HETATM   17  C   UNK N   1      31.128  17.501   7.321  0.00  0.00     0.024 C 
HETATM   18  C   UNK N   1      31.370  18.326   8.557  0.00  0.00     0.069 C 
HETATM   19  C   UNK N   1      29.872  17.467   6.785  0.00  0.00     0.014 C 
BRANCH  19  20
HETATM   20  C   UNK N   1      28.717  18.121   7.491  0.00  0.00     0.074 C 
BRANCH  20  21
HETATM   21  C   UNK N   1      28.227  17.252   8.652  0.00  0.00     0.169 C 
BRANCH  21  22
HETATM   22  O   UNK N   1      27.412  17.984   9.523  0.00  0.00    -0.401 OA
HETATM   23  H   UNK N   1      27.405  18.863   9.934  0.00  0.00     0.209 HD
ENDBRANCH  21  22
ENDBRANCH  20  21
ENDBRANCH  19  20
BRANCH  19  24
HETATM   24  S   UNK N   1      29.470  16.702   5.199  0.00  0.00    -0.060 SA
BRANCH  24  25
HETATM   25  S   UNK N   1      27.380  17.211   5.252  0.00  0.00    -0.090 SA
BRANCH  25  26
HETATM   26  C   UNK N   1      27.493  18.665   4.147  0.00  0.00     0.118 C 
BRANCH  26  27
HETATM   27  C   UNK N   1      26.237  18.872   3.295  0.00  0.00     0.131 C 
HETATM   28  C   UNK N   1      25.915  20.339   3.127  0.00  0.00     0.035 C 
HETATM   29  C   UNK N   1      24.426  20.365   3.212  0.00  0.00     0.029 C 
HETATM   30  C   UNK N   1      24.150  19.176   4.092  0.00  0.00     0.168 C 
HETATM   31  O   UNK N   1      25.118  18.193   3.818  0.00  0.00    -0.385 OA
ENDBRANCH  26  27
ENDBRANCH  25  26
ENDBRANCH  24  25
ENDBRANCH  19  24
ENDBRANCH   1  17
TORSDOF 12
ENDMDL
MODEL 5
REMARK VINA RESULT:      -5.6     12.692     15.210
REMARK  12 active torsions:
REMARK  status: ('A' for Active; 'I' for Inactive)
REMARK    1  A    between atoms: C_6  and  C_5 
REMARK    2  A    between atoms: C_16  and  C_5 
REMARK    3  A    between atoms: O_24  and  C_6 
REMARK    4  A    between atoms: C_14  and  C_9 
REMARK    5  A    between atoms: N_23  and  C_9 
REMARK    6  A    between atoms: C_15  and  C_10 
REMARK    7  A    between atoms: S_27  and  C_10 
REMARK    8  A    between atoms: N_23  and  C_11 
REMARK    9  A    between atoms: N_23  and  C_12 
REMARK   10  A    between atoms: S_28  and  C_16 
REMARK   11  A    between atoms: N_18  and  C_17 
REMARK   12  A    between atoms: S_28  and  S_27 
ROOT
HETATM    1  N   UNK N   1      30.292  23.878  -3.483  0.00  0.00    -0.324 N 
ENDROOT
BRANCH   1   2
HETATM    2  C   UNK N   1      31.388  23.304  -4.239  0.00  0.00     0.175 C 
BRANCH   2   3
HETATM    3  C   UNK N   1      30.863  22.249  -5.173  0.00  0.00     0.019 A 
HETATM    4  C   UNK N   1      30.186  22.625  -6.332  0.00  0.00     0.102 A 
HETATM    5  N   UNK N   1      29.697  21.677  -7.173  0.00  0.00    -0.355 N 
HETATM    6  C   UNK N   1      29.863  20.357  -6.903  0.00  0.00     0.078 A 
ATOM      7  HN  UNK N   1      29.200  21.961  -8.018  1.00  0.00     0.166 HD
HETATM    8  C   UNK N   1      29.314  19.338  -7.839  0.00  0.00     0.089 C 
HETATM    9  N   UNK N   1      30.526  19.966  -5.787  0.00  0.00    -0.332 N 
HETATM   10  C   UNK N   1      31.033  20.881  -4.912  0.00  0.00     0.109 A 
HETATM   11  H   UNK N   1      30.644  19.006  -5.605  0.00  0.00     0.168 HD
BRANCH  10  12
HETATM   12  N   UNK N   1      31.651  20.485  -3.870  0.00  0.00    -0.385 N 
HETATM   13  H   UNK N   1      31.211  19.875  -3.235  0.00  0.00     0.157 HD
ATOM     14  HN  UNK N   1      32.605  20.801  -3.693  1.00  0.00     0.157 HD
ENDBRANCH  10  12
ENDBRANCH   2   3
ENDBRANCH   1   2
BRANCH   1  15
HETATM   15  C   UNK N   1      29.777  23.200  -2.421  0.00  0.00     0.355 C 
HETATM   16  O   UNK N   1      30.430  23.017  -1.405  0.00  0.00    -0.283 OA
ENDBRANCH   1  15
BRANCH   1  17
HETATM   17  C   UNK N   1      29.931  25.248  -3.705  0.00  0.00     0.024 C 
HETATM   18  C   UNK N   1      30.955  26.307  -3.395  0.00  0.00     0.069 C 
HETATM   19  C   UNK N   1      28.708  25.630  -4.178  0.00  0.00     0.014 C 
BRANCH  19  20
HETATM   20  C   UNK N   1      28.333  27.084  -4.252  0.00  0.00     0.074 C 
BRANCH  20  21
HETATM   21  C   UNK N   1      26.969  27.328  -3.602  0.00  0.00     0.169 C 
BRANCH  21  22
HETATM   22  O   UNK N   1      26.335  28.444  -4.159  0.00  0.00    -0.401 OA
HETATM   23  H   UNK N   1      26.259  29.394  -3.977  0.00  0.00     0.209 HD
ENDBRANCH  21  22
ENDBRANCH  20  21
ENDBRANCH  19  20
BRANCH  19  24
HETATM   24  S   UNK N   1      27.456  24.481  -4.791  0.00  0.00    -0.060 SA
BRANCH  24  25
HETATM   25  S   UNK N   1      27.418  25.272  -6.793  0.00  0.00    -0.090 SA
BRANCH  25  26
HETATM   26  C   UNK N   1      25.987  24.291  -7.375  0.00  0.00     0.118 C 
BRANCH  26  27
HETATM   27  C   UNK N   1      26.130  22.794  -7.090  0.00  0.00     0.131 C 
HETATM   28  C   UNK N   1      26.339  22.002  -8.361  0.00  0.00     0.035 C 
HETATM   29  C   UNK N   1      25.537  20.769  -8.122  0.00  0.00     0.029 C 
HETATM   30  C   UNK N   1      24.465  21.276  -7.196  0.00  0.00     0.168 C 
HETATM   31  O   UNK N   1      25.026  22.276  -6.381  0.00  0.00    -0.385 OA
ENDBRANCH  26  27
ENDBRANCH  25  26
ENDBRANCH  24  25
ENDBRANCH  19  24
ENDBRANCH   1  17
TORSDOF 12
ENDMDL
MODEL 6
REMARK VINA RESULT:      -5.4      6.843     10.488
REMARK  12 active torsions:
REMARK  status: ('A' for Active; 'I' for Inactive)
REMARK    1  A    between atoms: C_6  and  C_5 
REMARK    2  A    between atoms: C_16  and  C_5 
REMARK    3  A    between atoms: O_24  and  C_6 
REMARK    4  A    between atoms: C_14  and  C_9 
REMARK    5  A    between atoms: N_23  and  C_9 
REMARK    6  A    between atoms: C_15  and  C_10 
REMARK    7  A    between atoms: S_27  and  C_10 
REMARK    8  A    between atoms: N_23  and  C_11 
REMARK    9  A    between atoms: N_23  and  C_12 
REMARK   10  A    between atoms: S_28  and  C_16 
REMARK   11  A    between atoms: N_18  and  C_17 
REMARK   12  A    between atoms: S_28  and  S_27 
ROOT
HETATM    1  N   UNK N   1      22.687  18.398   4.379  0.00  0.00    -0.324 N 
ENDROOT
BRANCH   1   2
HETATM    2  C   UNK N   1      23.898  19.082   3.967  0.00  0.00     0.175 C 
BRANCH   2   3
HETATM    3  C   UNK N   1      25.092  18.208   4.233  0.00  0.00     0.019 A 
HETATM    4  C   UNK N   1      25.243  17.012   3.534  0.00  0.00     0.102 A 
HETATM    5  N   UNK N   1      26.312  16.210   3.779  0.00  0.00    -0.355 N 
HETATM    6  C   UNK N   1      27.246  16.561   4.700  0.00  0.00     0.078 A 
ATOM      7  HN  UNK N   1      26.414  15.335   3.266  1.00  0.00     0.166 HD
HETATM    8  C   UNK N   1      28.406  15.664   4.953  0.00  0.00     0.089 C 
HETATM    9  N   UNK N   1      27.126  17.724   5.386  0.00  0.00    -0.332 N 
HETATM   10  C   UNK N   1      26.070  18.560   5.175  0.00  0.00     0.109 A 
HETATM   11  H   UNK N   1      27.813  17.970   6.047  0.00  0.00     0.168 HD
BRANCH  10  12
HETATM   12  N   UNK N   1      25.981  19.648   5.835  0.00  0.00    -0.385 N 
HETATM   13  H   UNK N   1      25.107  20.082   5.958  0.00  0.00     0.157 HD
ATOM     14  HN  UNK N   1      26.819  20.069   6.236  1.00  0.00     0.157 HD
ENDBRANCH  10  12
ENDBRANCH   2   3
ENDBRANCH   1   2
BRANCH   1  15
HETATM   15  C   UNK N   1      22.547  17.996   5.672  0.00  0.00     0.355 C 
HETATM   16  O   UNK N   1      21.733  18.521   6.417  0.00  0.00    -0.283 OA
ENDBRANCH   1  15
BRANCH   1  17
HETATM   17  C   UNK N   1      21.562  18.372   3.492  0.00  0.00     0.024 C 
HETATM   18  C   UNK N   1      20.920  19.684   3.128  0.00  0.00     0.069 C 
HETATM   19  C   UNK N   1      21.048  17.219   2.971  0.00  0.00     0.014 C 
BRANCH  19  20
HETATM   20  C   UNK N   1      19.779  17.238   2.165  0.00  0.00     0.074 C 
BRANCH  20  21
HETATM   21  C   UNK N   1      20.040  16.774   0.729  0.00  0.00     0.169 C 
BRANCH  21  22
HETATM   22  O   UNK N   1      20.370  17.853  -0.099  0.00  0.00    -0.401 OA
HETATM   23  H   UNK N   1      20.118  18.784  -0.200  0.00  0.00     0.209 HD
ENDBRANCH  21  22
ENDBRANCH  20  21
ENDBRANCH  19  20
BRANCH  19  24
HETATM   24  S   UNK N   1      21.826  15.598   3.141  0.00  0.00    -0.060 SA
BRANCH  24  25
HETATM   25  S   UNK N   1      20.297  14.770   4.409  0.00  0.00    -0.090 SA
BRANCH  25  26
HETATM   26  C   UNK N   1      21.398  14.339   5.806  0.00  0.00     0.118 C 
BRANCH  26  27
HETATM   27  C   UNK N   1      20.653  14.203   7.137  0.00  0.00     0.131 C 
HETATM   28  C   UNK N   1      21.124  15.226   8.145  0.00  0.00     0.035 C 
HETATM   29  C   UNK N   1      21.129  14.457   9.423  0.00  0.00     0.029 C 
HETATM   30  C   UNK N   1      21.385  13.056   8.936  0.00  0.00     0.168 C 
HETATM   31  O   UNK N   1      20.763  12.907   7.683  0.00  0.00    -0.385 OA
ENDBRANCH  26  27
ENDBRANCH  25  26
ENDBRANCH  24  25
ENDBRANCH  19  24
ENDBRANCH   1  17
TORSDOF 12
ENDMDL
MODEL 7
REMARK VINA RESULT:      -5.4      3.298      5.257
REMARK  12 active torsions:
REMARK  status: ('A' for Active; 'I' for Inactive)
REMARK    1  A    between atoms: C_6  and  C_5 
REMARK    2  A    between atoms: C_16  and  C_5 
REMARK    3  A    between atoms: O_24  and  C_6 
REMARK    4  A    between atoms: C_14  and  C_9 
REMARK    5  A    between atoms: N_23  and  C_9 
REMARK    6  A    between atoms: C_15  and  C_10 
REMARK    7  A    between atoms: S_27  and  C_10 
REMARK    8  A    between atoms: N_23  and  C_11 
REMARK    9  A    between atoms: N_23  and  C_12 
REMARK   10  A    between atoms: S_28  and  C_16 
REMARK   11  A    between atoms: N_18  and  C_17 
REMARK   12  A    between atoms: S_28  and  S_27 
ROOT
HETATM    1  N   UNK N   1      35.965  14.542   9.742  0.00  0.00    -0.324 N 
ENDROOT
BRANCH   1   2
HETATM    2  C   UNK N   1      36.831  13.727  10.572  0.00  0.00     0.175 C 
BRANCH   2   3
HETATM    3  C   UNK N   1      36.017  13.040  11.633  0.00  0.00     0.019 A 
HETATM    4  C   UNK N   1      35.243  11.929  11.301  0.00  0.00     0.102 A 
HETATM    5  N   UNK N   1      34.494  11.312  12.251  0.00  0.00    -0.355 N 
HETATM    6  C   UNK N   1      34.491  11.760  13.532  0.00  0.00     0.078 A 
ATOM      7  HN  UNK N   1      33.927  10.501  11.999  1.00  0.00     0.166 HD
HETATM    8  C   UNK N   1      33.659  11.068  14.554  0.00  0.00     0.089 C 
HETATM    9  N   UNK N   1      35.243  12.833  13.882  0.00  0.00    -0.332 N 
HETATM   10  C   UNK N   1      36.009  13.486  12.963  0.00  0.00     0.109 A 
HETATM   11  H   UNK N   1      35.236  13.145  14.816  0.00  0.00     0.168 HD
BRANCH  10  12
HETATM   12  N   UNK N   1      36.706  14.492  13.320  0.00  0.00    -0.385 N 
HETATM   13  H   UNK N   1      37.048  15.121  12.645  0.00  0.00     0.157 HD
ATOM     14  HN  UNK N   1      36.909  14.646  14.308  1.00  0.00     0.157 HD
ENDBRANCH  10  12
ENDBRANCH   2   3
ENDBRANCH   1   2
BRANCH   1  15
HETATM   15  C   UNK N   1      35.673  15.817  10.119  0.00  0.00     0.355 C 
HETATM   16  O   UNK N   1      36.446  16.471  10.803  0.00  0.00    -0.283 OA
ENDBRANCH   1  15
BRANCH   1  17
HETATM   17  C   UNK N   1      35.630  14.088   8.424  0.00  0.00     0.024 C 
HETATM   18  C   UNK N   1      36.724  13.480   7.588  0.00  0.00     0.069 C 
HETATM   19  C   UNK N   1      34.374  14.188   7.897  0.00  0.00     0.014 C 
BRANCH  19  20
HETATM   20  C   UNK N   1      34.113  13.831   6.460  0.00  0.00     0.074 C 
BRANCH  20  21
HETATM   21  C   UNK N   1      33.122  12.669   6.360  0.00  0.00     0.169 C 
BRANCH  21  22
HETATM   22  O   UNK N   1      33.723  11.459   6.726  0.00  0.00    -0.401 OA
HETATM   23  H   UNK N   1      33.492  10.517   6.741  0.00  0.00     0.209 HD
ENDBRANCH  21  22
ENDBRANCH  20  21
ENDBRANCH  19  20
BRANCH  19  24
HETATM   24  S   UNK N   1      32.919  14.695   8.839  0.00  0.00    -0.060 SA
BRANCH  24  25
HETATM   25  S   UNK N   1      32.712  16.610   7.879  0.00  0.00    -0.090 SA
BRANCH  25  26
HETATM   26  C   UNK N   1      30.979  16.385   7.338  0.00  0.00     0.118 C 
BRANCH  26  27
HETATM   27  C   UNK N   1      30.067  17.546   7.744  0.00  0.00     0.131 C 
HETATM   28  C   UNK N   1      30.621  18.299   8.932  0.00  0.00     0.035 C 
HETATM   29  C   UNK N   1      29.399  18.614   9.726  0.00  0.00     0.029 C 
HETATM   30  C   UNK N   1      28.491  17.472   9.355  0.00  0.00     0.168 C 
HETATM   31  O   UNK N   1      28.750  17.123   8.017  0.00  0.00    -0.385 OA
ENDBRANCH  26  27
ENDBRANCH  25  26
ENDBRANCH  24  25
ENDBRANCH  19  24
ENDBRANCH   1  17
TORSDOF 12
ENDMDL
MODEL 8
REMARK VINA RESULT:      -5.4      9.687     12.837
REMARK  12 active torsions:
REMARK  status: ('A' for Active; 'I' for Inactive)
REMARK    1  A    between atoms: C_6  and  C_5 
REMARK    2  A    between atoms: C_16  and  C_5 
REMARK    3  A    between atoms: O_24  and  C_6 
REMARK    4  A    between atoms: C_14  and  C_9 
REMARK    5  A    between atoms: N_23  and  C_9 
REMARK    6  A    between atoms: C_15  and  C_10 
REMARK    7  A    between atoms: S_27  and  C_10 
REMARK    8  A    between atoms: N_23  and  C_11 
REMARK    9  A    between atoms: N_23  and  C_12 
REMARK   10  A    between atoms: S_28  and  C_16 
REMARK   11  A    between atoms: N_18  and  C_17 
REMARK   12  A    between atoms: S_28  and  S_27 
ROOT
HETATM    1  N   UNK N   1      21.097  16.497   5.156  0.00  0.00    -0.324 N 
ENDROOT
BRANCH   1   2
HETATM    2  C   UNK N   1      19.928  16.684   4.319  0.00  0.00     0.175 C 
BRANCH   2   3
HETATM    3  C   UNK N   1      20.183  17.786   3.328  0.00  0.00     0.019 A 
HETATM    4  C   UNK N   1      20.614  19.034   3.776  0.00  0.00     0.102 A 
HETATM    5  N   UNK N   1      20.833  20.038   2.888  0.00  0.00    -0.355 N 
HETATM    6  C   UNK N   1      20.642  19.843   1.558  0.00  0.00     0.078 A 
ATOM      7  HN  UNK N   1      21.145  20.949   3.224  1.00  0.00     0.166 HD
HETATM    8  C   UNK N   1      20.885  20.960   0.606  0.00  0.00     0.089 C 
HETATM    9  N   UNK N   1      20.233  18.635   1.097  0.00  0.00    -0.332 N 
HETATM   10  C   UNK N   1      19.999  17.598   1.950  0.00  0.00     0.109 A 
HETATM   11  H   UNK N   1      20.103  18.504   0.130  0.00  0.00     0.168 HD
BRANCH  10  12
HETATM   12  N   UNK N   1      19.613  16.473   1.489  0.00  0.00    -0.385 N 
HETATM   13  H   UNK N   1      19.877  16.193   0.583  0.00  0.00     0.157 HD
ATOM     14  HN  UNK N   1      19.029  15.862   2.060  1.00  0.00     0.157 HD
ENDBRANCH  10  12
ENDBRANCH   2   3
ENDBRANCH   1   2
BRANCH   1  15
HETATM   15  C   UNK N   1      22.337  16.512   4.596  0.00  0.00     0.355 C 
HETATM   16  O   UNK N   1      22.905  15.478   4.275  0.00  0.00    -0.283 OA
ENDBRANCH   1  15
BRANCH   1  17
HETATM   17  C   UNK N   1      20.952  16.543   6.581  0.00  0.00     0.024 C 
HETATM   18  C   UNK N   1      20.743  17.888   7.226  0.00  0.00     0.069 C 
HETATM   19  C   UNK N   1      20.999  15.432   7.374  0.00  0.00     0.014 C 
BRANCH  19  20
HETATM   20  C   UNK N   1      20.987  15.554   8.872  0.00  0.00     0.074 C 
BRANCH  20  21
HETATM   21  C   UNK N   1      19.842  14.738   9.476  0.00  0.00     0.169 C 
BRANCH  21  22
HETATM   22  O   UNK N   1      18.634  15.441   9.417  0.00  0.00    -0.401 OA
HETATM   23  H   UNK N   1      18.320  16.308   9.115  0.00  0.00     0.209 HD
ENDBRANCH  21  22
ENDBRANCH  20  21
ENDBRANCH  19  20
BRANCH  19  24
HETATM   24  S   UNK N   1      21.031  13.740   6.741  0.00  0.00    -0.060 SA
BRANCH  24  25
HETATM   25  S   UNK N   1      23.100  13.385   7.214  0.00  0.00    -0.090 SA
BRANCH  25  26
HETATM   26  C   UNK N   1      22.924  11.605   7.596  0.00  0.00     0.118 C 
BRANCH  26  27
HETATM   27  C   UNK N   1      23.159  11.281   9.074  0.00  0.00     0.131 C 
HETATM   28  C   UNK N   1      22.196  12.029   9.968  0.00  0.00     0.035 C 
HETATM   29  C   UNK N   1      23.047  12.405  11.134  0.00  0.00     0.029 C 
HETATM   30  C   UNK N   1      24.408  12.503  10.499  0.00  0.00     0.168 C 
HETATM   31  O   UNK N   1      24.486  11.542   9.475  0.00  0.00    -0.385 OA
ENDBRANCH  26  27
ENDBRANCH  25  26
ENDBRANCH  24  25
ENDBRANCH  19  24
ENDBRANCH   1  17
TORSDOF 12
ENDMDL
MODEL 9
REMARK VINA RESULT:      -5.3      7.779     11.224
REMARK  12 active torsions:
REMARK  status: ('A' for Active; 'I' for Inactive)
REMARK    1  A    between atoms: C_6  and  C_5 
REMARK    2  A    between atoms: C_16  and  C_5 
REMARK    3  A    between atoms: O_24  and  C_6 
REMARK    4  A    between atoms: C_14  and  C_9 
REMARK    5  A    between atoms: N_23  and  C_9 
REMARK    6  A    between atoms: C_15  and  C_10 
REMARK    7  A    between atoms: S_27  and  C_10 
REMARK    8  A    between atoms: N_23  and  C_11 
REMARK    9  A    between atoms: N_23  and  C_12 
REMARK   10  A    between atoms: S_28  and  C_16 
REMARK   11  A    between atoms: N_18  and  C_17 
REMARK   12  A    between atoms: S_28  and  S_27 
ROOT
HETATM    1  N   UNK N   1      19.790  16.406   4.874  0.00  0.00    -0.324 N 
ENDROOT
BRANCH   1   2
HETATM    2  C   UNK N   1      20.523  17.107   5.911  0.00  0.00     0.175 C 
BRANCH   2   3
HETATM    3  C   UNK N   1      21.840  16.423   6.154  0.00  0.00     0.019 A 
HETATM    4  C   UNK N   1      21.883  15.255   6.913  0.00  0.00     0.102 A 
HETATM    5  N   UNK N   1      23.071  14.639   7.149  0.00  0.00    -0.355 N 
HETATM    6  C   UNK N   1      24.227  15.145   6.648  0.00  0.00     0.078 A 
ATOM      7  HN  UNK N   1      23.095  13.787   7.709  1.00  0.00     0.166 HD
HETATM    8  C   UNK N   1      25.515  14.455   6.924  0.00  0.00     0.089 C 
HETATM    9  N   UNK N   1      24.209  16.275   5.898  0.00  0.00    -0.332 N 
HETATM   10  C   UNK N   1      23.042  16.929   5.637  0.00  0.00     0.109 A 
HETATM   11  H   UNK N   1      25.054  16.629   5.536  0.00  0.00     0.168 HD
BRANCH  10  12
HETATM   12  N   UNK N   1      23.055  17.990   4.929  0.00  0.00    -0.385 N 
HETATM   13  H   UNK N   1      23.539  18.787   5.243  0.00  0.00     0.157 HD
ATOM     14  HN  UNK N   1      22.561  18.012   4.037  1.00  0.00     0.157 HD
ENDBRANCH  10  12
ENDBRANCH   2   3
ENDBRANCH   1   2
BRANCH   1  15
HETATM   15  C   UNK N   1      18.750  15.596   5.213  0.00  0.00     0.355 C 
HETATM   16  O   UNK N   1      17.865  15.977   5.964  0.00  0.00    -0.283 OA
ENDBRANCH   1  15
BRANCH   1  17
HETATM   17  C   UNK N   1      20.007  16.761   3.502  0.00  0.00     0.024 C 
HETATM   18  C   UNK N   1      19.599  18.140   3.057  0.00  0.00     0.069 C 
HETATM   19  C   UNK N   1      20.559  15.910   2.588  0.00  0.00     0.014 C 
BRANCH  19  20
HETATM   20  C   UNK N   1      20.628  16.282   1.134  0.00  0.00     0.074 C 
BRANCH  20  21
HETATM   21  C   UNK N   1      19.436  15.704   0.367  0.00  0.00     0.169 C 
BRANCH  21  22
HETATM   22  O   UNK N   1      18.516  16.705   0.034  0.00  0.00    -0.401 OA
HETATM   23  H   UNK N   1      18.104  17.474   0.459  0.00  0.00     0.209 HD
ENDBRANCH  21  22
ENDBRANCH  20  21
ENDBRANCH  19  20
BRANCH  19  24
HETATM   24  S   UNK N   1      21.289  14.311   3.008  0.00  0.00    -0.060 SA
BRANCH  24  25
HETATM   25  S   UNK N   1      22.879  14.427   1.562  0.00  0.00    -0.090 SA
BRANCH  25  26
HETATM   26  C   UNK N   1      24.249  14.545   2.769  0.00  0.00     0.118 C 
BRANCH  26  27
HETATM   27  C   UNK N   1      25.363  15.495   2.322  0.00  0.00     0.131 C 
HETATM   28  C   UNK N   1      26.678  14.768   2.150  0.00  0.00     0.035 C 
HETATM   29  C   UNK N   1      27.671  15.748   2.677  0.00  0.00     0.029 C 
HETATM   30  C   UNK N   1      26.849  16.504   3.685  0.00  0.00     0.168 C 
HETATM   31  O   UNK N   1      25.528  16.581   3.207  0.00  0.00    -0.385 OA
ENDBRANCH  26  27
ENDBRANCH  25  26
ENDBRANCH  24  25
ENDBRANCH  19  24
ENDBRANCH   1  17
TORSDOF 12
ENDMDL
