MODEL 1
REMARK VINA RESULT:      -9.0      0.000      0.000
REMARK  6 active torsions:
REMARK  status: ('A' for Active; 'I' for Inactive)
REMARK    1  A    between atoms: C_1  and  O_6 
REMARK    2  A    between atoms: C_2  and  C_8 
REMARK    3  A    between atoms: C_8  and  C_9 
REMARK    4  A    between atoms: C_9  and  C_10 
REMARK    5  A    between atoms: C_9  and  O_12 
REMARK    6  A    between atoms: C_10  and  N_11 
ROOT
HETATM    1  C   UNK N   1      20.012  14.534   1.052  0.00  0.00     0.156 C 
HETATM    2  C   UNK N   1      20.343  15.848   1.731  0.00  0.00     0.153 C 
HETATM    3  O   UNK N   1      20.309  15.657   3.126  0.00  0.00    -0.377 OA
HETATM    4  C   UNK N   1      20.911  14.389   3.298  0.00  0.00     0.131 C 
HETATM    5  C   UNK N   1      20.927  13.745   1.923  0.00  0.00     0.053 C 
HETATM    6  C   UNK N   1      21.544  12.398   1.555  0.00  0.00     0.088 C 
HETATM    7  C   UNK N   1      22.535  12.544   0.418  0.00  0.00     0.129 C 
HETATM    8  C   UNK N   1      23.313  11.357  -0.075  0.00  0.00     0.110 C 
HETATM    9  O   UNK N   1      22.714  13.632  -0.115  0.00  0.00    -0.298 OA
HETATM   10  C   UNK N   1      24.334  10.950   0.972  0.00  0.00     0.129 C 
HETATM   11  C   UNK N   1      24.821   9.519   0.889  0.00  0.00     0.035 C 
HETATM   12  O   UNK N   1      25.459  11.788   0.949  0.00  0.00    -0.375 OA
HETATM   13  C   UNK N   1      25.989  11.775   2.256  0.00  0.00     0.182 C 
HETATM   14  C   UNK N   1      26.527  10.325   2.642  0.00  0.00     0.153 C 
HETATM   15  C   UNK N   1      25.514   9.235   2.225  0.00  0.00     0.037 C 
HETATM   16  C   UNK N   1      27.105  12.839   2.307  0.00  0.00     0.188 C 
HETATM   17  C   UNK N   1      28.210  12.190   1.497  0.00  0.00     0.185 C 
HETATM   18  C   UNK N   1      28.760  11.107   2.357  0.00  0.00     0.185 C 
HETATM   19  O   UNK N   1      27.858  10.012   2.138  0.00  0.00    -0.373 OA
HETATM   20  O   UNK N   1      27.428  13.115   3.672  0.00  0.00    -0.344 OA
HETATM   21  C   UNK N   1      29.911  11.955   3.052  0.00  0.00     0.185 C 
HETATM   22  C   UNK N   1      30.074  13.184   2.136  0.00  0.00     0.159 C 
HETATM   23  C   UNK N   1      29.489  14.342   2.912  0.00  0.00     0.103 C 
HETATM   24  C   UNK N   1      28.727  13.624   4.004  0.00  0.00     0.168 C 
HETATM   25  C   UNK N   1      28.499  14.534   5.231  0.00  0.00     0.071 C 
HETATM   26  C   UNK N   1      29.277  15.854   5.352  0.00  0.00     0.037 C 
HETATM   27  O   UNK N   1      29.234  13.027   1.044  0.00  0.00    -0.372 OA
HETATM   28  O   UNK N   1      29.562  12.536   4.326  0.00  0.00    -0.344 OA
HETATM   29  C   UNK N   1      28.676  17.003   4.525  0.00  0.00     0.126 C 
HETATM   30  O   UNK N   1      27.284  17.146   4.738  0.00  0.00    -0.376 OA
HETATM   31  C   UNK N   1      26.971  18.504   4.489  0.00  0.00     0.150 C 
HETATM   32  C   UNK N   1      28.234  19.242   4.755  0.00  0.00    -0.058 C 
HETATM   33  C   UNK N   1      29.348  18.305   4.920  0.00  0.00     0.068 C 
HETATM   34  C   UNK N   1      28.270  20.434   5.353  0.00  0.00     0.017 C 
HETATM   35  C   UNK N   1      25.786  18.950   5.375  0.00  0.00     0.039 C 
HETATM   36  C   UNK N   1      24.393  18.601   4.814  0.00  0.00     0.035 C 
HETATM   37  C   UNK N   1      24.337  17.182   4.279  0.00  0.00     0.123 C 
HETATM   38  C   UNK N   1      23.209  15.494   3.055  0.00  0.00     0.153 C 
HETATM   39  O   UNK N   1      23.133  16.824   3.604  0.00  0.00    -0.376 OA
HETATM   40  C   UNK N   1      24.754  16.100   5.272  0.00  0.00     0.040 C 
HETATM   41  C   UNK N   1      25.280  14.931   4.432  0.00  0.00     0.014 C 
HETATM   42  C   UNK N   1      24.598  14.917   3.078  0.00  0.00    -0.057 C 
HETATM   43  C   UNK N   1      25.335  15.078   1.981  0.00  0.00     0.017 C 
HETATM   44  C   UNK N   1      25.045  13.642   5.197  0.00  0.00     0.015 C 
HETATM   45  C   UNK N   1      22.318  14.537   3.854  0.00  0.00     0.069 C 
ENDROOT
BRANCH   2  46
HETATM   46  C   UNK N   1      19.705  17.146   1.255  0.00  0.00     0.068 C 
BRANCH  46  47
HETATM   47  C   UNK N   1      19.594  18.217   2.316  0.00  0.00     0.137 C 
BRANCH  47  48
HETATM   48  C   UNK N   1      20.544  19.340   1.956  0.00  0.00     0.142 C 
BRANCH  48  49
HETATM   49  N   UNK N   1      21.538  19.501   3.002  0.00  0.00    -0.428 N 
HETATM   50  H   UNK N   1      22.536  19.560   2.799  0.00  0.00     0.150 HD
HETATM   51  H   UNK N   1      21.228  19.556   3.971  0.00  0.00     0.150 HD
ENDBRANCH  48  49
ENDBRANCH  47  48
BRANCH  47  52
HETATM   52  O   UNK N   1      18.286  18.706   2.326  0.00  0.00    -0.394 OA
HETATM   53  H   UNK N   1      17.915  19.599   2.262  0.00  0.00     0.210 HD
ENDBRANCH  47  52
ENDBRANCH  46  47
ENDBRANCH   2  46
BRANCH   1  54
HETATM   54  O   UNK N   1      18.684  14.170   1.327  0.00  0.00    -0.388 OA
HETATM   55  C   UNK N   1      18.092  13.950   0.083  0.00  0.00     0.202 C 
ENDBRANCH   1  54
TORSDOF 6
ENDMDL
MODEL 2
REMARK VINA RESULT:      -8.6      6.052     11.551
REMARK  6 active torsions:
REMARK  status: ('A' for Active; 'I' for Inactive)
REMARK    1  A    between atoms: C_1  and  O_6 
REMARK    2  A    between atoms: C_2  and  C_8 
REMARK    3  A    between atoms: C_8  and  C_9 
REMARK    4  A    between atoms: C_9  and  C_10 
REMARK    5  A    between atoms: C_9  and  O_12 
REMARK    6  A    between atoms: C_10  and  N_11 
ROOT
HETATM    1  C   UNK N   1      37.675  11.843   6.736  0.00  0.00     0.156 C 
HETATM    2  C   UNK N   1      37.299  12.942   7.710  0.00  0.00     0.153 C 
HETATM    3  O   UNK N   1      37.570  14.188   7.112  0.00  0.00    -0.377 OA
HETATM    4  C   UNK N   1      37.155  14.006   5.772  0.00  0.00     0.131 C 
HETATM    5  C   UNK N   1      37.005  12.507   5.582  0.00  0.00     0.053 C 
HETATM    6  C   UNK N   1      36.502  11.793   4.330  0.00  0.00     0.088 C 
HETATM    7  C   UNK N   1      35.337  10.879   4.653  0.00  0.00     0.129 C 
HETATM    8  C   UNK N   1      34.639  10.117   3.564  0.00  0.00     0.110 C 
HETATM    9  O   UNK N   1      34.952  10.748   5.808  0.00  0.00    -0.298 OA
HETATM   10  C   UNK N   1      33.846  11.080   2.699  0.00  0.00     0.129 C 
HETATM   11  C   UNK N   1      33.525  10.593   1.302  0.00  0.00     0.035 C 
HETATM   12  O   UNK N   1      32.640  11.451   3.313  0.00  0.00    -0.375 OA
HETATM   13  C   UNK N   1      32.323  12.734   2.818  0.00  0.00     0.182 C 
HETATM   14  C   UNK N   1      32.025  12.687   1.253  0.00  0.00     0.153 C 
HETATM   15  C   UNK N   1      33.083  11.833   0.518  0.00  0.00     0.037 C 
HETATM   16  C   UNK N   1      31.110  13.246   3.623  0.00  0.00     0.188 C 
HETATM   17  C   UNK N   1      29.978  12.394   3.082  0.00  0.00     0.185 C 
HETATM   18  C   UNK N   1      29.698  12.913   1.716  0.00  0.00     0.185 C 
HETATM   19  O   UNK N   1      30.679  12.256   0.899  0.00  0.00    -0.373 OA
HETATM   20  O   UNK N   1      30.970  14.654   3.416  0.00  0.00    -0.344 OA
HETATM   21  C   UNK N   1      28.576  13.966   2.115  0.00  0.00     0.185 C 
HETATM   22  C   UNK N   1      28.130  13.519   3.521  0.00  0.00     0.159 C 
HETATM   23  C   UNK N   1      28.687  14.558   4.467  0.00  0.00     0.103 C 
HETATM   24  C   UNK N   1      29.687  15.271   3.583  0.00  0.00     0.168 C 
HETATM   25  C   UNK N   1      29.991  16.693   4.102  0.00  0.00     0.071 C 
HETATM   26  C   UNK N   1      29.091  17.317   5.180  0.00  0.00     0.037 C 
HETATM   27  O   UNK N   1      28.805  12.350   3.841  0.00  0.00    -0.372 OA
HETATM   28  O   UNK N   1      29.045  15.313   2.330  0.00  0.00    -0.344 OA
HETATM   29  C   UNK N   1      29.418  16.846   6.606  0.00  0.00     0.126 C 
HETATM   30  O   UNK N   1      30.800  16.941   6.900  0.00  0.00    -0.376 OA
HETATM   31  C   UNK N   1      30.908  17.111   8.301  0.00  0.00     0.150 C 
HETATM   32  C   UNK N   1      29.623  17.737   8.711  0.00  0.00    -0.058 C 
HETATM   33  C   UNK N   1      28.666  17.710   7.601  0.00  0.00     0.068 C 
HETATM   34  C   UNK N   1      29.538  18.688   9.643  0.00  0.00     0.017 C 
HETATM   35  C   UNK N   1      32.153  17.960   8.641  0.00  0.00     0.039 C 
HETATM   36  C   UNK N   1      33.476  17.168   8.708  0.00  0.00     0.035 C 
HETATM   37  C   UNK N   1      33.616  16.201   7.546  0.00  0.00     0.123 C 
HETATM   38  C   UNK N   1      34.734  14.383   6.514  0.00  0.00     0.153 C 
HETATM   39  O   UNK N   1      34.735  15.321   7.609  0.00  0.00    -0.376 OA
HETATM   40  C   UNK N   1      33.486  16.831   6.162  0.00  0.00     0.040 C 
HETATM   41  C   UNK N   1      32.980  15.721   5.235  0.00  0.00     0.014 C 
HETATM   42  C   UNK N   1      33.442  14.370   5.742  0.00  0.00    -0.057 C 
HETATM   43  C   UNK N   1      32.532  13.470   6.109  0.00  0.00     0.017 C 
HETATM   44  C   UNK N   1      33.480  15.998   3.830  0.00  0.00     0.015 C 
HETATM   45  C   UNK N   1      35.843  14.729   5.517  0.00  0.00     0.069 C 
ENDROOT
BRANCH   2  46
HETATM   46  C   UNK N   1      37.699  12.844   9.176  0.00  0.00     0.068 C 
BRANCH  46  47
HETATM   47  C   UNK N   1      37.088  13.903  10.065  0.00  0.00     0.137 C 
BRANCH  47  48
HETATM   48  C   UNK N   1      36.846  13.293  11.430  0.00  0.00     0.142 C 
BRANCH  48  49
HETATM   49  N   UNK N   1      36.812  14.337  12.438  0.00  0.00    -0.428 N 
HETATM   50  H   UNK N   1      36.291  14.236  13.309  0.00  0.00     0.150 HD
HETATM   51  H   UNK N   1      37.326  15.202  12.269  0.00  0.00     0.150 HD
ENDBRANCH  48  49
ENDBRANCH  47  48
BRANCH  47  52
HETATM   52  O   UNK N   1      37.991  14.962  10.188  0.00  0.00    -0.394 OA
HETATM   53  H   UNK N   1      37.939  15.825  10.626  0.00  0.00     0.210 HD
ENDBRANCH  47  52
ENDBRANCH  46  47
ENDBRANCH   2  46
BRANCH   1  54
HETATM   54  O   UNK N   1      39.063  11.841   6.523  0.00  0.00    -0.388 OA
HETATM   55  C   UNK N   1      39.413  10.500   6.357  0.00  0.00     0.202 C 
ENDBRANCH   1  54
TORSDOF 6
ENDMDL
MODEL 3
REMARK VINA RESULT:      -8.3      8.041     13.200
REMARK  6 active torsions:
REMARK  status: ('A' for Active; 'I' for Inactive)
REMARK    1  A    between atoms: C_1  and  O_6 
REMARK    2  A    between atoms: C_2  and  C_8 
REMARK    3  A    between atoms: C_8  and  C_9 
REMARK    4  A    between atoms: C_9  and  C_10 
REMARK    5  A    between atoms: C_9  and  O_12 
REMARK    6  A    between atoms: C_10  and  N_11 
ROOT
HETATM    1  C   UNK N   1      38.599  12.426   2.160  0.00  0.00     0.156 C 
HETATM    2  C   UNK N   1      37.261  12.979   1.712  0.00  0.00     0.153 C 
HETATM    3  O   UNK N   1      36.273  11.996   1.924  0.00  0.00    -0.377 OA
HETATM    4  C   UNK N   1      36.632  11.435   3.171  0.00  0.00     0.131 C 
HETATM    5  C   UNK N   1      38.055  11.889   3.440  0.00  0.00     0.053 C 
HETATM    6  C   UNK N   1      38.878  11.616   4.696  0.00  0.00     0.088 C 
HETATM    7  C   UNK N   1      39.394  12.905   5.302  0.00  0.00     0.129 C 
HETATM    8  C   UNK N   1      40.181  12.887   6.581  0.00  0.00     0.110 C 
HETATM    9  O   UNK N   1      39.180  13.980   4.754  0.00  0.00    -0.298 OA
HETATM   10  C   UNK N   1      39.262  12.530   7.736  0.00  0.00     0.129 C 
HETATM   11  C   UNK N   1      39.945  11.965   8.964  0.00  0.00     0.035 C 
HETATM   12  O   UNK N   1      38.491  13.629   8.141  0.00  0.00    -0.375 OA
HETATM   13  C   UNK N   1      37.305  13.099   8.692  0.00  0.00     0.182 C 
HETATM   14  C   UNK N   1      37.612  12.264  10.015  0.00  0.00     0.153 C 
HETATM   15  C   UNK N   1      38.831  11.337   9.809  0.00  0.00     0.037 C 
HETATM   16  C   UNK N   1      36.357  14.285   8.963  0.00  0.00     0.188 C 
HETATM   17  C   UNK N   1      37.006  14.954  10.159  0.00  0.00     0.185 C 
HETATM   18  C   UNK N   1      36.739  14.059  11.318  0.00  0.00     0.185 C 
HETATM   19  O   UNK N   1      37.772  13.066  11.221  0.00  0.00    -0.373 OA
HETATM   20  O   UNK N   1      35.034  13.788   9.183  0.00  0.00    -0.344 OA
HETATM   21  C   UNK N   1      35.388  14.740  11.803  0.00  0.00     0.185 C 
HETATM   22  C   UNK N   1      35.403  16.124  11.125  0.00  0.00     0.159 C 
HETATM   23  C   UNK N   1      34.352  16.052  10.042  0.00  0.00     0.103 C 
HETATM   24  C   UNK N   1      34.106  14.561   9.954  0.00  0.00     0.168 C 
HETATM   25  C   UNK N   1      32.722  14.249   9.346  0.00  0.00     0.071 C 
HETATM   26  C   UNK N   1      31.684  15.374   9.201  0.00  0.00     0.037 C 
HETATM   27  O   UNK N   1      36.605  16.261  10.445  0.00  0.00    -0.372 OA
HETATM   28  O   UNK N   1      34.179  14.137  11.296  0.00  0.00    -0.344 OA
HETATM   29  C   UNK N   1      31.905  16.262   7.965  0.00  0.00     0.126 C 
HETATM   30  O   UNK N   1      32.084  15.503   6.783  0.00  0.00    -0.376 OA
HETATM   31  C   UNK N   1      31.650  16.315   5.708  0.00  0.00     0.150 C 
HETATM   32  C   UNK N   1      30.662  17.249   6.309  0.00  0.00    -0.058 C 
HETATM   33  C   UNK N   1      30.694  17.155   7.771  0.00  0.00     0.068 C 
HETATM   34  C   UNK N   1      29.542  17.625   5.688  0.00  0.00     0.017 C 
HETATM   35  C   UNK N   1      31.073  15.437   4.575  0.00  0.00     0.039 C 
HETATM   36  C   UNK N   1      32.126  14.850   3.613  0.00  0.00     0.035 C 
HETATM   37  C   UNK N   1      33.324  14.289   4.358  0.00  0.00     0.123 C 
HETATM   38  C   UNK N   1      35.534  13.432   4.339  0.00  0.00     0.153 C 
HETATM   39  O   UNK N   1      34.413  13.864   3.543  0.00  0.00    -0.376 OA
HETATM   40  C   UNK N   1      32.991  13.245   5.422  0.00  0.00     0.040 C 
HETATM   41  C   UNK N   1      34.118  13.319   6.457  0.00  0.00     0.014 C 
HETATM   42  C   UNK N   1      35.401  13.784   5.796  0.00  0.00    -0.057 C 
HETATM   43  C   UNK N   1      35.956  14.927   6.192  0.00  0.00     0.017 C 
HETATM   44  C   UNK N   1      34.276  11.954   7.099  0.00  0.00     0.015 C 
HETATM   45  C   UNK N   1      35.686  11.910   4.262  0.00  0.00     0.069 C 
ENDROOT
BRANCH   2  46
HETATM   46  C   UNK N   1      37.137  13.725   0.391  0.00  0.00     0.068 C 
BRANCH  46  47
HETATM   47  C   UNK N   1      35.732  14.167   0.049  0.00  0.00     0.137 C 
BRANCH  47  48
HETATM   48  C   UNK N   1      34.906  12.932  -0.242  0.00  0.00     0.142 C 
BRANCH  48  49
HETATM   49  N   UNK N   1      33.749  12.894   0.635  0.00  0.00    -0.428 N 
HETATM   50  H   UNK N   1      32.879  12.433   0.368  0.00  0.00     0.150 HD
HETATM   51  H   UNK N   1      33.808  13.345   1.547  0.00  0.00     0.150 HD
ENDBRANCH  48  49
ENDBRANCH  47  48
BRANCH  47  52
HETATM   52  O   UNK N   1      35.191  14.834   1.151  0.00  0.00    -0.394 OA
HETATM   53  H   UNK N   1      34.661  14.536   1.906  0.00  0.00     0.210 HD
ENDBRANCH  47  52
ENDBRANCH  46  47
ENDBRANCH   2  46
BRANCH   1  54
HETATM   54  O   UNK N   1      38.981  11.355   1.336  0.00  0.00    -0.388 OA
HETATM   55  C   UNK N   1      40.310  11.606   0.991  0.00  0.00     0.202 C 
ENDBRANCH   1  54
TORSDOF 6
ENDMDL
MODEL 4
REMARK VINA RESULT:      -8.2      2.755      7.690
REMARK  6 active torsions:
REMARK  status: ('A' for Active; 'I' for Inactive)
REMARK    1  A    between atoms: C_1  and  O_6 
REMARK    2  A    between atoms: C_2  and  C_8 
REMARK    3  A    between atoms: C_8  and  C_9 
REMARK    4  A    between atoms: C_9  and  C_10 
REMARK    5  A    between atoms: C_9  and  O_12 
REMARK    6  A    between atoms: C_10  and  N_11 
ROOT
HETATM    1  C   UNK N   1      32.085  15.496   5.109  0.00  0.00     0.156 C 
HETATM    2  C   UNK N   1      31.144  16.601   5.549  0.00  0.00     0.153 C 
HETATM    3  O   UNK N   1      30.807  17.381   4.425  0.00  0.00    -0.377 OA
HETATM    4  C   UNK N   1      30.638  16.422   3.399  0.00  0.00     0.131 C 
HETATM    5  C   UNK N   1      31.261  15.140   3.919  0.00  0.00     0.053 C 
HETATM    6  C   UNK N   1      31.271  13.782   3.221  0.00  0.00     0.088 C 
HETATM    7  C   UNK N   1      30.690  12.704   4.113  0.00  0.00     0.129 C 
HETATM    8  C   UNK N   1      30.542  11.296   3.613  0.00  0.00     0.110 C 
HETATM    9  O   UNK N   1      30.335  12.967   5.256  0.00  0.00    -0.298 OA
HETATM   10  C   UNK N   1      29.443  11.241   2.567  0.00  0.00     0.129 C 
HETATM   11  C   UNK N   1      29.510  10.071   1.609  0.00  0.00     0.035 C 
HETATM   12  O   UNK N   1      28.170  11.243   3.156  0.00  0.00    -0.375 OA
HETATM   13  C   UNK N   1      27.298  11.825   2.211  0.00  0.00     0.182 C 
HETATM   14  C   UNK N   1      27.180  10.916   0.907  0.00  0.00     0.153 C 
HETATM   15  C   UNK N   1      28.573  10.426   0.450  0.00  0.00     0.037 C 
HETATM   16  C   UNK N   1      25.935  12.019   2.907  0.00  0.00     0.188 C 
HETATM   17  C   UNK N   1      25.415  10.598   3.006  0.00  0.00     0.185 C 
HETATM   18  C   UNK N   1      25.018  10.215   1.623  0.00  0.00     0.185 C 
HETATM   19  O   UNK N   1      26.253   9.798   1.022  0.00  0.00    -0.373 OA
HETATM   20  O   UNK N   1      25.134  12.911   2.128  0.00  0.00    -0.344 OA
HETATM   21  C   UNK N   1      23.496  10.667   1.709  0.00  0.00     0.185 C 
HETATM   22  C   UNK N   1      23.226  10.783   3.222  0.00  0.00     0.159 C 
HETATM   23  C   UNK N   1      23.125  12.265   3.498  0.00  0.00     0.103 C 
HETATM   24  C   UNK N   1      23.705  12.852   2.230  0.00  0.00     0.168 C 
HETATM   25  C   UNK N   1      23.228  14.304   2.005  0.00  0.00     0.071 C 
HETATM   26  C   UNK N   1      22.059  14.856   2.838  0.00  0.00     0.037 C 
HETATM   27  O   UNK N   1      24.364  10.372   3.899  0.00  0.00    -0.372 OA
HETATM   28  O   UNK N   1      23.221  11.997   1.221  0.00  0.00    -0.344 OA
HETATM   29  C   UNK N   1      22.470  15.325   4.243  0.00  0.00     0.126 C 
HETATM   30  O   UNK N   1      23.598  16.180   4.217  0.00  0.00    -0.376 OA
HETATM   31  C   UNK N   1      23.504  17.015   5.356  0.00  0.00     0.150 C 
HETATM   32  C   UNK N   1      22.051  17.075   5.667  0.00  0.00    -0.058 C 
HETATM   33  C   UNK N   1      21.317  16.087   4.871  0.00  0.00     0.068 C 
HETATM   34  C   UNK N   1      21.439  18.185   6.082  0.00  0.00     0.017 C 
HETATM   35  C   UNK N   1      24.138  18.393   5.061  0.00  0.00     0.039 C 
HETATM   36  C   UNK N   1      25.670  18.449   5.236  0.00  0.00     0.035 C 
HETATM   37  C   UNK N   1      26.355  17.245   4.616  0.00  0.00     0.123 C 
HETATM   38  C   UNK N   1      28.298  15.921   4.312  0.00  0.00     0.153 C 
HETATM   39  O   UNK N   1      27.755  17.137   4.862  0.00  0.00    -0.376 OA
HETATM   40  C   UNK N   1      26.035  17.007   3.142  0.00  0.00     0.040 C 
HETATM   41  C   UNK N   1      26.213  15.504   2.905  0.00  0.00     0.014 C 
HETATM   42  C   UNK N   1      27.243  14.945   3.866  0.00  0.00    -0.057 C 
HETATM   43  C   UNK N   1      26.872  14.017   4.746  0.00  0.00     0.017 C 
HETATM   44  C   UNK N   1      26.614  15.286   1.458  0.00  0.00     0.015 C 
HETATM   45  C   UNK N   1      29.163  16.231   3.087  0.00  0.00     0.069 C 
ENDROOT
BRANCH   2  46
HETATM   46  C   UNK N   1      31.430  17.401   6.811  0.00  0.00     0.068 C 
BRANCH  46  47
HETATM   47  C   UNK N   1      30.262  17.506   7.765  0.00  0.00     0.137 C 
BRANCH  47  48
HETATM   48  C   UNK N   1      30.648  18.453   8.882  0.00  0.00     0.142 C 
BRANCH  48  49
HETATM   49  N   UNK N   1      29.751  18.277  10.011  0.00  0.00    -0.428 N 
HETATM   50  H   UNK N   1      30.078  18.313  10.976  0.00  0.00     0.150 HD
HETATM   51  H   UNK N   1      28.761  18.111   9.832  0.00  0.00     0.150 HD
ENDBRANCH  48  49
ENDBRANCH  47  48
BRANCH  47  52
HETATM   52  O   UNK N   1      29.165  18.030   7.077  0.00  0.00    -0.394 OA
HETATM   53  H   UNK N   1      29.080  18.503   6.235  0.00  0.00     0.210 HD
ENDBRANCH  47  52
ENDBRANCH  46  47
ENDBRANCH   2  46
BRANCH   1  54
HETATM   54  O   UNK N   1      33.304  16.043   4.678  0.00  0.00    -0.388 OA
HETATM   55  C   UNK N   1      34.293  15.212   5.208  0.00  0.00     0.202 C 
ENDBRANCH   1  54
TORSDOF 6
ENDMDL
MODEL 5
REMARK VINA RESULT:      -8.2      1.610      2.252
REMARK  6 active torsions:
REMARK  status: ('A' for Active; 'I' for Inactive)
REMARK    1  A    between atoms: C_1  and  O_6 
REMARK    2  A    between atoms: C_2  and  C_8 
REMARK    3  A    between atoms: C_8  and  C_9 
REMARK    4  A    between atoms: C_9  and  C_10 
REMARK    5  A    between atoms: C_9  and  O_12 
REMARK    6  A    between atoms: C_10  and  N_11 
ROOT
HETATM    1  C   UNK N   1      21.430  12.241   1.228  0.00  0.00     0.156 C 
HETATM    2  C   UNK N   1      21.230  13.692   1.621  0.00  0.00     0.153 C 
HETATM    3  O   UNK N   1      21.039  13.759   3.015  0.00  0.00    -0.377 OA
HETATM    4  C   UNK N   1      21.969  12.820   3.519  0.00  0.00     0.131 C 
HETATM    5  C   UNK N   1      22.397  11.978   2.331  0.00  0.00     0.053 C 
HETATM    6  C   UNK N   1      23.448  10.871   2.329  0.00  0.00     0.088 C 
HETATM    7  C   UNK N   1      24.511  11.129   1.280  0.00  0.00     0.129 C 
HETATM    8  C   UNK N   1      25.683  10.202   1.135  0.00  0.00     0.110 C 
HETATM    9  O   UNK N   1      24.426  12.097   0.533  0.00  0.00    -0.298 OA
HETATM   10  C   UNK N   1      26.605  10.359   2.331  0.00  0.00     0.129 C 
HETATM   11  C   UNK N   1      27.516   9.184   2.614  0.00  0.00     0.035 C 
HETATM   12  O   UNK N   1      27.405  11.506   2.219  0.00  0.00    -0.375 OA
HETATM   13  C   UNK N   1      27.702  11.912   3.537  0.00  0.00     0.182 C 
HETATM   14  C   UNK N   1      28.595  10.822   4.284  0.00  0.00     0.153 C 
HETATM   15  C   UNK N   1      28.046   9.399   4.036  0.00  0.00     0.037 C 
HETATM   16  C   UNK N   1      28.414  13.278   3.446  0.00  0.00     0.188 C 
HETATM   17  C   UNK N   1      29.777  12.899   2.901  0.00  0.00     0.185 C 
HETATM   18  C   UNK N   1      30.493  12.240   4.027  0.00  0.00     0.185 C 
HETATM   19  O   UNK N   1      30.019  10.885   3.981  0.00  0.00    -0.373 OA
HETATM   20  O   UNK N   1      28.419  13.892   4.736  0.00  0.00    -0.344 OA
HETATM   21  C   UNK N   1      31.203  13.536   4.612  0.00  0.00     0.185 C 
HETATM   22  C   UNK N   1      31.120  14.558   3.462  0.00  0.00     0.159 C 
HETATM   23  C   UNK N   1      30.092  15.575   3.903  0.00  0.00     0.103 C 
HETATM   24  C   UNK N   1      29.429  14.857   5.058  0.00  0.00     0.168 C 
HETATM   25  C   UNK N   1      28.743  15.847   6.025  0.00  0.00     0.071 C 
HETATM   26  C   UNK N   1      29.047  17.350   5.914  0.00  0.00     0.037 C 
HETATM   27  O   UNK N   1      30.550  13.931   2.363  0.00  0.00    -0.372 OA
HETATM   28  O   UNK N   1      30.498  14.190   5.687  0.00  0.00    -0.344 OA
HETATM   29  C   UNK N   1      28.257  18.059   4.802  0.00  0.00     0.126 C 
HETATM   30  O   UNK N   1      26.873  17.765   4.854  0.00  0.00    -0.376 OA
HETATM   31  C   UNK N   1      26.199  18.869   4.281  0.00  0.00     0.150 C 
HETATM   32  C   UNK N   1      27.115  20.023   4.484  0.00  0.00    -0.058 C 
HETATM   33  C   UNK N   1      28.424  19.559   4.951  0.00  0.00     0.068 C 
HETATM   34  C   UNK N   1      26.688  21.247   4.800  0.00  0.00     0.017 C 
HETATM   35  C   UNK N   1      24.812  19.048   4.938  0.00  0.00     0.039 C 
HETATM   36  C   UNK N   1      23.699  18.156   4.350  0.00  0.00     0.035 C 
HETATM   37  C   UNK N   1      24.169  16.727   4.144  0.00  0.00     0.123 C 
HETATM   38  C   UNK N   1      23.822  14.565   3.236  0.00  0.00     0.153 C 
HETATM   39  O   UNK N   1      23.255  15.870   3.464  0.00  0.00    -0.376 OA
HETATM   40  C   UNK N   1      24.740  16.050   5.387  0.00  0.00     0.040 C 
HETATM   41  C   UNK N   1      25.724  14.991   4.880  0.00  0.00     0.014 C 
HETATM   42  C   UNK N   1      25.300  14.501   3.509  0.00  0.00    -0.057 C 
HETATM   43  C   UNK N   1      26.112  14.695   2.472  0.00  0.00     0.017 C 
HETATM   44  C   UNK N   1      25.783  13.861   5.890  0.00  0.00     0.015 C 
HETATM   45  C   UNK N   1      23.157  13.530   4.148  0.00  0.00     0.069 C 
ENDROOT
BRANCH   2  46
HETATM   46  C   UNK N   1      20.304  14.590   0.812  0.00  0.00     0.068 C 
BRANCH  46  47
HETATM   47  C   UNK N   1      20.348  16.050   1.203  0.00  0.00     0.137 C 
BRANCH  47  48
HETATM   48  C   UNK N   1      19.771  16.862   0.063  0.00  0.00     0.142 C 
BRANCH  48  49
HETATM   49  N   UNK N   1      18.409  16.435  -0.207  0.00  0.00    -0.428 N 
HETATM   50  H   UNK N   1      17.700  17.075  -0.565  0.00  0.00     0.150 HD
HETATM   51  H   UNK N   1      18.154  15.464  -0.032  0.00  0.00     0.150 HD
ENDBRANCH  48  49
ENDBRANCH  47  48
BRANCH  47  52
HETATM   52  O   UNK N   1      19.562  16.234   2.343  0.00  0.00    -0.394 OA
HETATM   53  H   UNK N   1      19.103  15.618   2.933  0.00  0.00     0.210 HD
ENDBRANCH  47  52
ENDBRANCH  46  47
ENDBRANCH   2  46
BRANCH   1  54
HETATM   54  O   UNK N   1      20.254  11.511   1.461  0.00  0.00    -0.388 OA
HETATM   55  C   UNK N   1      20.193  10.564   0.437  0.00  0.00     0.202 C 
ENDBRANCH   1  54
TORSDOF 6
ENDMDL
MODEL 6
REMARK VINA RESULT:      -8.1      2.035      3.657
REMARK  6 active torsions:
REMARK  status: ('A' for Active; 'I' for Inactive)
REMARK    1  A    between atoms: C_1  and  O_6 
REMARK    2  A    between atoms: C_2  and  C_8 
REMARK    3  A    between atoms: C_8  and  C_9 
REMARK    4  A    between atoms: C_9  and  C_10 
REMARK    5  A    between atoms: C_9  and  O_12 
REMARK    6  A    between atoms: C_10  and  N_11 
ROOT
HETATM    1  C   UNK N   1      22.498  16.312   3.380  0.00  0.00     0.156 C 
HETATM    2  C   UNK N   1      23.560  17.209   3.985  0.00  0.00     0.153 C 
HETATM    3  O   UNK N   1      23.908  16.706   5.253  0.00  0.00    -0.377 OA
HETATM    4  C   UNK N   1      23.933  15.306   5.055  0.00  0.00     0.131 C 
HETATM    5  C   UNK N   1      23.220  15.059   3.737  0.00  0.00     0.053 C 
HETATM    6  C   UNK N   1      23.046  13.715   3.033  0.00  0.00     0.088 C 
HETATM    7  C   UNK N   1      23.570  13.772   1.612  0.00  0.00     0.129 C 
HETATM    8  C   UNK N   1      23.559  12.546   0.744  0.00  0.00     0.110 C 
HETATM    9  O   UNK N   1      24.008  14.819   1.152  0.00  0.00    -0.298 OA
HETATM   10  C   UNK N   1      24.591  11.555   1.252  0.00  0.00     0.129 C 
HETATM   11  C   UNK N   1      24.365  10.112   0.853  0.00  0.00     0.035 C 
HETATM   12  O   UNK N   1      25.888  11.913   0.856  0.00  0.00    -0.375 OA
HETATM   13  C   UNK N   1      26.760  11.389   1.834  0.00  0.00     0.182 C 
HETATM   14  C   UNK N   1      26.723   9.796   1.839  0.00  0.00     0.153 C 
HETATM   15  C   UNK N   1      25.269   9.279   1.768  0.00  0.00     0.037 C 
HETATM   16  C   UNK N   1      28.170  11.935   1.528  0.00  0.00     0.188 C 
HETATM   17  C   UNK N   1      28.559  11.154   0.288  0.00  0.00     0.185 C 
HETATM   18  C   UNK N   1      28.845   9.770   0.754  0.00  0.00     0.185 C 
HETATM   19  O   UNK N   1      27.547   9.161   0.818  0.00  0.00    -0.373 OA
HETATM   20  O   UNK N   1      29.009  11.732   2.668  0.00  0.00    -0.344 OA
HETATM   21  C   UNK N   1      30.405   9.950   1.003  0.00  0.00     0.185 C 
HETATM   22  C   UNK N   1      30.764  11.224   0.213  0.00  0.00     0.159 C 
HETATM   23  C   UNK N   1      31.018  12.285   1.258  0.00  0.00     0.103 C 
HETATM   24  C   UNK N   1      30.429  11.643   2.495  0.00  0.00     0.168 C 
HETATM   25  C   UNK N   1      31.028  12.241   3.787  0.00  0.00     0.071 C 
HETATM   26  C   UNK N   1      32.285  13.122   3.703  0.00  0.00     0.037 C 
HETATM   27  O   UNK N   1      29.629  11.652  -0.460  0.00  0.00    -0.372 OA
HETATM   28  O   UNK N   1      30.777  10.285   2.356  0.00  0.00    -0.344 OA
HETATM   29  C   UNK N   1      31.995  14.575   3.294  0.00  0.00     0.126 C 
HETATM   30  O   UNK N   1      30.952  15.151   4.059  0.00  0.00    -0.376 OA
HETATM   31  C   UNK N   1      31.184  16.547   4.080  0.00  0.00     0.150 C 
HETATM   32  C   UNK N   1      32.651  16.694   3.882  0.00  0.00    -0.058 C 
HETATM   33  C   UNK N   1      33.245  15.410   3.501  0.00  0.00     0.068 C 
HETATM   34  C   UNK N   1      33.385  17.607   4.520  0.00  0.00     0.017 C 
HETATM   35  C   UNK N   1      30.667  17.155   5.403  0.00  0.00     0.039 C 
HETATM   36  C   UNK N   1      29.159  17.478   5.419  0.00  0.00     0.035 C 
HETATM   37  C   UNK N   1      28.332  16.352   4.826  0.00  0.00     0.123 C 
HETATM   38  C   UNK N   1      26.260  15.537   4.011  0.00  0.00     0.153 C 
HETATM   39  O   UNK N   1      26.943  16.627   4.661  0.00  0.00    -0.376 OA
HETATM   40  C   UNK N   1      28.551  14.983   5.467  0.00  0.00     0.040 C 
HETATM   41  C   UNK N   1      28.220  13.950   4.385  0.00  0.00     0.014 C 
HETATM   42  C   UNK N   1      27.194  14.514   3.423  0.00  0.00    -0.057 C 
HETATM   43  C   UNK N   1      27.522  14.666   2.142  0.00  0.00     0.017 C 
HETATM   44  C   UNK N   1      27.725  12.684   5.061  0.00  0.00     0.015 C 
HETATM   45  C   UNK N   1      25.365  14.799   5.010  0.00  0.00     0.069 C 
ENDROOT
BRANCH   2  46
HETATM   46  C   UNK N   1      23.417  18.724   3.923  0.00  0.00     0.068 C 
BRANCH  46  47
HETATM   47  C   UNK N   1      24.688  19.460   3.565  0.00  0.00     0.137 C 
BRANCH  47  48
HETATM   48  C   UNK N   1      25.208  20.140   4.814  0.00  0.00     0.142 C 
BRANCH  48  49
HETATM   49  N   UNK N   1      25.868  19.169   5.667  0.00  0.00    -0.428 N 
HETATM   50  H   UNK N   1      25.736  19.155   6.679  0.00  0.00     0.150 HD
HETATM   51  H   UNK N   1      26.484  18.477   5.241  0.00  0.00     0.150 HD
ENDBRANCH  48  49
ENDBRANCH  47  48
BRANCH  47  52
HETATM   52  O   UNK N   1      25.634  18.533   3.119  0.00  0.00    -0.394 OA
HETATM   53  H   UNK N   1      26.603  18.532   3.112  0.00  0.00     0.210 HD
ENDBRANCH  47  52
ENDBRANCH  46  47
ENDBRANCH   2  46
BRANCH   1  54
HETATM   54  O   UNK N   1      21.314  16.391   4.131  0.00  0.00    -0.388 OA
HETATM   55  C   UNK N   1      20.305  16.671   3.209  0.00  0.00     0.202 C 
ENDBRANCH   1  54
TORSDOF 6
ENDMDL
MODEL 7
REMARK VINA RESULT:      -8.1     11.065     15.096
REMARK  6 active torsions:
REMARK  status: ('A' for Active; 'I' for Inactive)
REMARK    1  A    between atoms: C_1  and  O_6 
REMARK    2  A    between atoms: C_2  and  C_8 
REMARK    3  A    between atoms: C_8  and  C_9 
REMARK    4  A    between atoms: C_9  and  C_10 
REMARK    5  A    between atoms: C_9  and  O_12 
REMARK    6  A    between atoms: C_10  and  N_11 
ROOT
HETATM    1  C   UNK N   1      35.810  10.698  15.719  0.00  0.00     0.156 C 
HETATM    2  C   UNK N   1      35.606  12.184  15.496  0.00  0.00     0.153 C 
HETATM    3  O   UNK N   1      36.840  12.759  15.133  0.00  0.00    -0.377 OA
HETATM    4  C   UNK N   1      37.407  11.798  14.264  0.00  0.00     0.131 C 
HETATM    5  C   UNK N   1      36.606  10.525  14.471  0.00  0.00     0.053 C 
HETATM    6  C   UNK N   1      36.770   9.212  13.711  0.00  0.00     0.088 C 
HETATM    7  C   UNK N   1      35.459   8.770  13.094  0.00  0.00     0.129 C 
HETATM    8  C   UNK N   1      35.392   7.532  12.246  0.00  0.00     0.110 C 
HETATM    9  O   UNK N   1      34.435   9.416  13.280  0.00  0.00    -0.298 OA
HETATM   10  C   UNK N   1      36.108   7.779  10.930  0.00  0.00     0.129 C 
HETATM   11  C   UNK N   1      36.586   6.541  10.203  0.00  0.00     0.035 C 
HETATM   12  O   UNK N   1      35.314   8.519  10.041  0.00  0.00    -0.375 OA
HETATM   13  C   UNK N   1      36.206   9.221   9.203  0.00  0.00     0.182 C 
HETATM   14  C   UNK N   1      37.056   8.216   8.304  0.00  0.00     0.153 C 
HETATM   15  C   UNK N   1      37.582   7.034   9.148  0.00  0.00     0.037 C 
HETATM   16  C   UNK N   1      35.363  10.191   8.349  0.00  0.00     0.188 C 
HETATM   17  C   UNK N   1      34.669   9.253   7.381  0.00  0.00     0.185 C 
HETATM   18  C   UNK N   1      35.719   8.811   6.423  0.00  0.00     0.185 C 
HETATM   19  O   UNK N   1      36.371   7.734   7.111  0.00  0.00    -0.373 OA
HETATM   20  O   UNK N   1      36.227  11.160   7.750  0.00  0.00    -0.344 OA
HETATM   21  C   UNK N   1      35.493   9.941   5.327  0.00  0.00     0.185 C 
HETATM   22  C   UNK N   1      34.096  10.503   5.655  0.00  0.00     0.159 C 
HETATM   23  C   UNK N   1      34.343  11.873   6.243  0.00  0.00     0.103 C 
HETATM   24  C   UNK N   1      35.826  11.815   6.540  0.00  0.00     0.168 C 
HETATM   25  C   UNK N   1      36.445  13.227   6.624  0.00  0.00     0.071 C 
HETATM   26  C   UNK N   1      35.642  14.439   6.124  0.00  0.00     0.037 C 
HETATM   27  O   UNK N   1      33.561   9.760   6.697  0.00  0.00    -0.372 OA
HETATM   28  O   UNK N   1      36.351  11.095   5.448  0.00  0.00    -0.344 OA
HETATM   29  C   UNK N   1      34.604  14.952   7.135  0.00  0.00     0.126 C 
HETATM   30  O   UNK N   1      35.156  15.135   8.426  0.00  0.00    -0.376 OA
HETATM   31  C   UNK N   1      34.389  16.142   9.059  0.00  0.00     0.150 C 
HETATM   32  C   UNK N   1      33.833  16.956   7.946  0.00  0.00    -0.058 C 
HETATM   33  C   UNK N   1      34.066  16.290   6.661  0.00  0.00     0.068 C 
HETATM   34  C   UNK N   1      33.720  18.284   7.999  0.00  0.00     0.017 C 
HETATM   35  C   UNK N   1      35.270  16.946  10.042  0.00  0.00     0.039 C 
HETATM   36  C   UNK N   1      35.438  16.300  11.433  0.00  0.00     0.035 C 
HETATM   37  C   UNK N   1      35.721  14.812  11.337  0.00  0.00     0.123 C 
HETATM   38  C   UNK N   1      35.925  12.691  12.376  0.00  0.00     0.153 C 
HETATM   39  O   UNK N   1      35.740  14.107  12.575  0.00  0.00    -0.376 OA
HETATM   40  C   UNK N   1      36.920  14.437  10.470  0.00  0.00     0.040 C 
HETATM   41  C   UNK N   1      36.645  13.021   9.953  0.00  0.00     0.014 C 
HETATM   42  C   UNK N   1      35.777  12.267  10.941  0.00  0.00    -0.057 C 
HETATM   43  C   UNK N   1      34.573  11.850  10.557  0.00  0.00     0.017 C 
HETATM   44  C   UNK N   1      37.972  12.325   9.720  0.00  0.00     0.015 C 
HETATM   45  C   UNK N   1      37.328  12.271  12.822  0.00  0.00     0.069 C 
ENDROOT
BRANCH   2  46
HETATM   46  C   UNK N   1      34.790  13.007  16.482  0.00  0.00     0.068 C 
BRANCH  46  47
HETATM   47  C   UNK N   1      35.537  13.405  17.736  0.00  0.00     0.137 C 
BRANCH  47  48
HETATM   48  C   UNK N   1      35.119  14.812  18.108  0.00  0.00     0.142 C 
BRANCH  48  49
HETATM   49  N   UNK N   1      36.294  15.644  18.292  0.00  0.00    -0.428 N 
HETATM   50  H   UNK N   1      36.229  16.639  18.507  0.00  0.00     0.150 HD
HETATM   51  H   UNK N   1      37.217  15.219  18.203  0.00  0.00     0.150 HD
ENDBRANCH  48  49
ENDBRANCH  47  48
BRANCH  47  52
HETATM   52  O   UNK N   1      35.182  12.532  18.766  0.00  0.00    -0.394 OA
HETATM   53  H   UNK N   1      34.328  12.261  19.136  0.00  0.00     0.210 HD
ENDBRANCH  47  52
ENDBRANCH  46  47
ENDBRANCH   2  46
BRANCH   1  54
HETATM   54  O   UNK N   1      36.641  10.486  16.830  0.00  0.00    -0.388 OA
HETATM   55  C   UNK N   1      36.168   9.319  17.432  0.00  0.00     0.202 C 
ENDBRANCH   1  54
TORSDOF 6
ENDMDL
MODEL 8
REMARK VINA RESULT:      -8.0     12.990     17.187
REMARK  6 active torsions:
REMARK  status: ('A' for Active; 'I' for Inactive)
REMARK    1  A    between atoms: C_1  and  O_6 
REMARK    2  A    between atoms: C_2  and  C_8 
REMARK    3  A    between atoms: C_8  and  C_9 
REMARK    4  A    between atoms: C_9  and  C_10 
REMARK    5  A    between atoms: C_9  and  O_12 
REMARK    6  A    between atoms: C_10  and  N_11 
ROOT
HETATM    1  C   UNK N   1      35.743  24.902  -6.777  0.00  0.00     0.156 C 
HETATM    2  C   UNK N   1      34.997  23.698  -7.318  0.00  0.00     0.153 C 
HETATM    3  O   UNK N   1      34.741  22.810  -6.254  0.00  0.00    -0.377 OA
HETATM    4  C   UNK N   1      34.390  23.669  -5.188  0.00  0.00     0.131 C 
HETATM    5  C   UNK N   1      34.831  25.059  -5.609  0.00  0.00     0.053 C 
HETATM    6  C   UNK N   1      34.609  26.358  -4.838  0.00  0.00     0.088 C 
HETATM    7  C   UNK N   1      33.905  27.389  -5.697  0.00  0.00     0.129 C 
HETATM    8  C   UNK N   1      33.527  28.727  -5.129  0.00  0.00     0.110 C 
HETATM    9  O   UNK N   1      33.636  27.146  -6.867  0.00  0.00    -0.298 OA
HETATM   10  C   UNK N   1      32.394  28.554  -4.133  0.00  0.00     0.129 C 
HETATM   11  C   UNK N   1      32.246  29.661  -3.111  0.00  0.00     0.035 C 
HETATM   12  O   UNK N   1      31.159  28.397  -4.778  0.00  0.00    -0.375 OA
HETATM   13  C   UNK N   1      30.350  27.637  -3.907  0.00  0.00     0.182 C 
HETATM   14  C   UNK N   1      30.047  28.437  -2.563  0.00  0.00     0.153 C 
HETATM   15  C   UNK N   1      31.332  29.101  -2.017  0.00  0.00     0.037 C 
HETATM   16  C   UNK N   1      29.059  27.284  -4.674  0.00  0.00     0.188 C 
HETATM   17  C   UNK N   1      28.334  28.615  -4.720  0.00  0.00     0.185 C 
HETATM   18  C   UNK N   1      27.832  28.850  -3.339  0.00  0.00     0.185 C 
HETATM   19  O   UNK N   1      28.966  29.409  -2.659  0.00  0.00    -0.373 OA
HETATM   20  O   UNK N   1      28.374  26.237  -3.983  0.00  0.00    -0.344 OA
HETATM   21  C   UNK N   1      26.401  28.182  -3.518  0.00  0.00     0.185 C 
HETATM   22  C   UNK N   1      26.208  28.119  -5.046  0.00  0.00     0.159 C 
HETATM   23  C   UNK N   1      26.343  26.657  -5.406  0.00  0.00     0.103 C 
HETATM   24  C   UNK N   1      26.958  26.088  -4.146  0.00  0.00     0.168 C 
HETATM   25  C   UNK N   1      26.698  24.570  -4.023  0.00  0.00     0.071 C 
HETATM   26  C   UNK N   1      25.658  23.901  -4.936  0.00  0.00     0.037 C 
HETATM   27  O   UNK N   1      27.295  28.735  -5.647  0.00  0.00    -0.372 OA
HETATM   28  O   UNK N   1      26.313  26.799  -3.116  0.00  0.00    -0.344 OA
HETATM   29  C   UNK N   1      26.187  23.585  -6.345  0.00  0.00     0.126 C 
HETATM   30  O   UNK N   1      27.430  22.907  -6.313  0.00  0.00    -0.376 OA
HETATM   31  C   UNK N   1      27.506  22.138  -7.498  0.00  0.00     0.150 C 
HETATM   32  C   UNK N   1      26.092  21.881  -7.878  0.00  0.00    -0.058 C 
HETATM   33  C   UNK N   1      25.188  22.698  -7.065  0.00  0.00     0.068 C 
HETATM   34  C   UNK N   1      25.671  20.719  -8.381  0.00  0.00     0.017 C 
HETATM   35  C   UNK N   1      28.330  20.855  -7.250  0.00  0.00     0.039 C 
HETATM   36  C   UNK N   1      29.858  21.039  -7.357  0.00  0.00     0.035 C 
HETATM   37  C   UNK N   1      30.329  22.292  -6.642  0.00  0.00     0.123 C 
HETATM   38  C   UNK N   1      32.037  23.870  -6.178  0.00  0.00     0.153 C 
HETATM   39  O   UNK N   1      31.705  22.621  -6.817  0.00  0.00    -0.376 OA
HETATM   40  C   UNK N   1      29.922  22.390  -5.174  0.00  0.00     0.040 C 
HETATM   41  C   UNK N   1      29.862  23.885  -4.848  0.00  0.00     0.014 C 
HETATM   42  C   UNK N   1      30.830  24.649  -5.729  0.00  0.00    -0.057 C 
HETATM   43  C   UNK N   1      30.356  25.562  -6.573  0.00  0.00     0.017 C 
HETATM   44  C   UNK N   1      30.171  24.073  -3.374  0.00  0.00     0.015 C 
HETATM   45  C   UNK N   1      32.892  23.619  -4.933  0.00  0.00     0.069 C 
ENDROOT
BRANCH   2  46
HETATM   46  C   UNK N   1      35.448  23.027  -8.608  0.00  0.00     0.068 C 
BRANCH  46  47
HETATM   47  C   UNK N   1      34.320  22.534  -9.486  0.00  0.00     0.137 C 
BRANCH  47  48
HETATM   48  C   UNK N   1      34.217  21.032  -9.325  0.00  0.00     0.142 C 
BRANCH  48  49
HETATM   49  N   UNK N   1      33.420  20.714  -8.154  0.00  0.00    -0.428 N 
HETATM   50  H   UNK N   1      32.704  19.988  -8.164  0.00  0.00     0.150 HD
HETATM   51  H   UNK N   1      33.580  21.236  -7.293  0.00  0.00     0.150 HD
ENDBRANCH  48  49
ENDBRANCH  47  48
BRANCH  47  52
HETATM   52  O   UNK N   1      33.128  23.125  -9.060  0.00  0.00    -0.394 OA
HETATM   53  H   UNK N   1      32.773  23.336  -8.183  0.00  0.00     0.210 HD
ENDBRANCH  47  52
ENDBRANCH  46  47
ENDBRANCH   2  46
BRANCH   1  54
HETATM   54  O   UNK N   1      37.014  24.518  -6.321  0.00  0.00    -0.388 OA
HETATM   55  C   UNK N   1      37.871  25.557  -6.688  0.00  0.00     0.202 C 
ENDBRANCH   1  54
TORSDOF 6
ENDMDL
MODEL 9
REMARK VINA RESULT:      -7.7      6.578     11.718
REMARK  6 active torsions:
REMARK  status: ('A' for Active; 'I' for Inactive)
REMARK    1  A    between atoms: C_1  and  O_6 
REMARK    2  A    between atoms: C_2  and  C_8 
REMARK    3  A    between atoms: C_8  and  C_9 
REMARK    4  A    between atoms: C_9  and  C_10 
REMARK    5  A    between atoms: C_9  and  O_12 
REMARK    6  A    between atoms: C_10  and  N_11 
ROOT
HETATM    1  C   UNK N   1      30.063  13.902   3.023  0.00  0.00     0.156 C 
HETATM    2  C   UNK N   1      30.858  12.642   2.741  0.00  0.00     0.153 C 
HETATM    3  O   UNK N   1      32.045  12.998   2.070  0.00  0.00    -0.377 OA
HETATM    4  C   UNK N   1      32.454  14.179   2.731  0.00  0.00     0.131 C 
HETATM    5  C   UNK N   1      31.250  14.650   3.526  0.00  0.00     0.053 C 
HETATM    6  C   UNK N   1      31.195  15.845   4.475  0.00  0.00     0.088 C 
HETATM    7  C   UNK N   1      30.707  15.429   5.848  0.00  0.00     0.129 C 
HETATM    8  C   UNK N   1      30.629  16.429   6.967  0.00  0.00     0.110 C 
HETATM    9  O   UNK N   1      30.367  14.272   6.064  0.00  0.00    -0.298 OA
HETATM   10  C   UNK N   1      32.032  16.807   7.408  0.00  0.00     0.129 C 
HETATM   11  C   UNK N   1      32.157  18.136   8.122  0.00  0.00     0.035 C 
HETATM   12  O   UNK N   1      32.597  15.822   8.230  0.00  0.00    -0.375 OA
HETATM   13  C   UNK N   1      33.994  15.912   8.053  0.00  0.00     0.182 C 
HETATM   14  C   UNK N   1      34.550  17.306   8.588  0.00  0.00     0.153 C 
HETATM   15  C   UNK N   1      33.652  18.473   8.119  0.00  0.00     0.037 C 
HETATM   16  C   UNK N   1      34.627  14.714   8.792  0.00  0.00     0.188 C 
HETATM   17  C   UNK N   1      34.453  15.102  10.247  0.00  0.00     0.185 C 
HETATM   18  C   UNK N   1      35.439  16.189  10.497  0.00  0.00     0.185 C 
HETATM   19  O   UNK N   1      34.766  17.367  10.028  0.00  0.00    -0.373 OA
HETATM   20  O   UNK N   1      35.979  14.556   8.357  0.00  0.00    -0.344 OA
HETATM   21  C   UNK N   1      36.640  15.274  10.992  0.00  0.00     0.185 C 
HETATM   22  C   UNK N   1      35.966  13.936  11.354  0.00  0.00     0.159 C 
HETATM   23  C   UNK N   1      36.383  12.971  10.269  0.00  0.00     0.103 C 
HETATM   24  C   UNK N   1      36.929  13.912   9.217  0.00  0.00     0.168 C 
HETATM   25  C   UNK N   1      37.908  13.192   8.263  0.00  0.00     0.071 C 
HETATM   26  C   UNK N   1      38.441  11.798   8.633  0.00  0.00     0.037 C 
HETATM   27  O   UNK N   1      34.596  14.082  11.193  0.00  0.00    -0.372 OA
HETATM   28  O   UNK N   1      37.590  14.900   9.972  0.00  0.00    -0.344 OA
HETATM   29  C   UNK N   1      37.461  10.658   8.312  0.00  0.00     0.126 C 
HETATM   30  O   UNK N   1      36.958  10.737   6.991  0.00  0.00    -0.376 OA
HETATM   31  C   UNK N   1      36.629   9.418   6.599  0.00  0.00     0.150 C 
HETATM   32  C   UNK N   1      37.511   8.545   7.418  0.00  0.00    -0.058 C 
HETATM   33  C   UNK N   1      38.178   9.328   8.461  0.00  0.00     0.068 C 
HETATM   34  C   UNK N   1      38.085   7.437   6.945  0.00  0.00     0.017 C 
HETATM   35  C   UNK N   1      36.822   9.249   5.075  0.00  0.00     0.039 C 
HETATM   36  C   UNK N   1      35.632   9.724   4.217  0.00  0.00     0.035 C 
HETATM   37  C   UNK N   1      35.096  11.065   4.685  0.00  0.00     0.123 C 
HETATM   38  C   UNK N   1      33.420  12.741   4.616  0.00  0.00     0.153 C 
HETATM   39  O   UNK N   1      33.901  11.508   4.046  0.00  0.00    -0.376 OA
HETATM   40  C   UNK N   1      36.130  12.185   4.756  0.00  0.00     0.040 C 
HETATM   41  C   UNK N   1      35.627  13.162   5.823  0.00  0.00     0.014 C 
HETATM   42  C   UNK N   1      34.114  13.115   5.898  0.00  0.00    -0.057 C 
HETATM   43  C   UNK N   1      33.533  12.725   7.031  0.00  0.00     0.017 C 
HETATM   44  C   UNK N   1      36.132  14.552   5.484  0.00  0.00     0.015 C 
HETATM   45  C   UNK N   1      33.640  13.900   3.639  0.00  0.00     0.069 C 
ENDROOT
BRANCH   2  46
HETATM   46  C   UNK N   1      30.169  11.401   2.192  0.00  0.00     0.068 C 
BRANCH  46  47
HETATM   47  C   UNK N   1      30.462  11.113   0.737  0.00  0.00     0.137 C 
BRANCH  47  48
HETATM   48  C   UNK N   1      29.669   9.889   0.328  0.00  0.00     0.142 C 
BRANCH  48  49
HETATM   49  N   UNK N   1      28.329   9.961   0.883  0.00  0.00    -0.428 N 
HETATM   50  H   UNK N   1      27.761   9.129   1.042  0.00  0.00     0.150 HD
HETATM   51  H   UNK N   1      27.943  10.874   1.120  0.00  0.00     0.150 HD
ENDBRANCH  48  49
ENDBRANCH  47  48
BRANCH  47  52
HETATM   52  O   UNK N   1      30.049  12.205  -0.030  0.00  0.00    -0.394 OA
HETATM   53  H   UNK N   1      29.546  13.006   0.181  0.00  0.00     0.210 HD
ENDBRANCH  47  52
ENDBRANCH  46  47
ENDBRANCH   2  46
BRANCH   1  54
HETATM   54  O   UNK N   1      29.631  14.480   1.819  0.00  0.00    -0.388 OA
HETATM   55  C   UNK N   1      28.274  14.753   2.002  0.00  0.00     0.202 C 
ENDBRANCH   1  54
TORSDOF 6
ENDMDL
