MODEL 1
REMARK VINA RESULT:      -6.4      0.000      0.000
REMARK  4 active torsions:
REMARK  status: ('A' for Active; 'I' for Inactive)
REMARK    1  A    between atoms: O_18  and  C_7 
REMARK    2  A    between atoms: C_12  and  C_8 
REMARK    3  A    between atoms: N_17  and  C_9 
REMARK    4  A    between atoms: C_11  and  C_10 
REMARK       I    between atoms: N_17  and  C_11 
ROOT
HETATM    1  C   UNK N   1      37.838  14.210   9.816  0.00  0.00     0.077 C 
HETATM    2  C   UNK N   1      35.856  15.655  11.374  0.00  0.00     0.107 C 
HETATM    3  C   UNK N   1      37.276  13.670  11.081  0.00  0.00     0.065 C 
HETATM    4  C   UNK N   1      36.348  14.368  11.800  0.00  0.00     0.141 C 
HETATM    5  N   UNK N   1      35.426  16.687  11.082  0.00  0.00    -0.191 NA
ENDROOT
BRANCH   4   6
HETATM    6  C   UNK N   1      35.782  13.832  13.040  0.00  0.00     0.269 C 
HETATM    7  N   UNK N   1      36.612  13.627  14.075  0.00  0.00    -0.322 N 
HETATM    8  H   UNK N   1      37.542  13.930  13.963  0.00  0.00     0.169 HD
HETATM    9  O   UNK N   1      34.597  13.525  13.103  0.00  0.00    -0.266 OA
BRANCH   7  10
HETATM   10  C   UNK N   1      36.294  13.029  15.286  0.00  0.00     0.035 A 
HETATM   11  C   UNK N   1      36.490  11.659  15.383  0.00  0.00     0.030 A 
HETATM   12  C   UNK N   1      36.129  11.000  16.539  0.00  0.00     0.018 A 
HETATM   13  C   UNK N   1      35.558  11.717  17.592  0.00  0.00     0.048 A 
HETATM   14  C   UNK N   1      35.367  13.097  17.495  0.00  0.00     0.018 A 
HETATM   15  C   UNK N   1      35.724  13.752  16.335  0.00  0.00     0.030 A 
BRANCH  13  16
HETATM   16  C   UNK N   1      35.320  11.045  18.882  0.00  0.00     0.417 C 
HETATM   17  F   UNK N   1      34.906  11.972  19.818  0.00  0.00    -0.166 F 
HETATM   18  F   UNK N   1      36.493  10.441  19.296  0.00  0.00    -0.166 F 
HETATM   19  F   UNK N   1      34.354  10.071  18.714  0.00  0.00    -0.166 F 
ENDBRANCH  13  16
ENDBRANCH   7  10
ENDBRANCH   4   6
BRANCH   3  20
HETATM   20  O   UNK N   1      37.713  12.454  11.483  0.00  0.00    -0.364 OA
HETATM   21  H   UNK N   1      37.370  11.678  11.088  0.00  0.00     0.217 HD
ENDBRANCH   3  20
TORSDOF 4
ENDMDL
MODEL 2
REMARK VINA RESULT:      -6.2      8.802     11.097
REMARK  4 active torsions:
REMARK  status: ('A' for Active; 'I' for Inactive)
REMARK    1  A    between atoms: O_18  and  C_7 
REMARK    2  A    between atoms: C_12  and  C_8 
REMARK    3  A    between atoms: N_17  and  C_9 
REMARK    4  A    between atoms: C_11  and  C_10 
REMARK       I    between atoms: N_17  and  C_11 
ROOT
HETATM    1  C   UNK N   1      36.211  15.422  10.765  0.00  0.00     0.077 C 
HETATM    2  C   UNK N   1      33.823  14.532   9.368  0.00  0.00     0.107 C 
HETATM    3  C   UNK N   1      35.255  16.373  10.141  0.00  0.00     0.065 C 
HETATM    4  C   UNK N   1      34.142  15.933   9.485  0.00  0.00     0.141 C 
HETATM    5  N   UNK N   1      33.518  13.424   9.243  0.00  0.00    -0.191 NA
ENDROOT
BRANCH   4   6
HETATM    6  C   UNK N   1      33.191  16.870   8.881  0.00  0.00     0.269 C 
HETATM    7  N   UNK N   1      31.895  16.520   8.849  0.00  0.00    -0.322 N 
HETATM    8  H   UNK N   1      31.651  15.686   9.313  0.00  0.00     0.169 HD
HETATM    9  O   UNK N   1      33.582  17.911   8.367  0.00  0.00    -0.266 OA
BRANCH   7  10
HETATM   10  C   UNK N   1      30.865  17.212   8.229  0.00  0.00     0.035 A 
HETATM   11  C   UNK N   1      30.155  18.115   9.007  0.00  0.00     0.030 A 
HETATM   12  C   UNK N   1      29.078  18.782   8.463  0.00  0.00     0.018 A 
HETATM   13  C   UNK N   1      28.706  18.530   7.142  0.00  0.00     0.048 A 
HETATM   14  C   UNK N   1      29.426  17.624   6.358  0.00  0.00     0.018 A 
HETATM   15  C   UNK N   1      30.499  16.955   6.907  0.00  0.00     0.030 A 
BRANCH  13  16
HETATM   16  C   UNK N   1      27.660  19.355   6.513  0.00  0.00     0.417 C 
HETATM   17  F   UNK N   1      28.219  20.135   5.520  0.00  0.00    -0.166 F 
HETATM   18  F   UNK N   1      27.080  20.158   7.479  0.00  0.00    -0.166 F 
HETATM   19  F   UNK N   1      26.689  18.527   5.981  0.00  0.00    -0.166 F 
ENDBRANCH  13  16
ENDBRANCH   7  10
ENDBRANCH   4   6
BRANCH   3  20
HETATM   20  O   UNK N   1      35.531  17.693  10.260  0.00  0.00    -0.364 OA
HETATM   21  H   UNK N   1      36.275  17.974  10.753  0.00  0.00     0.217 HD
ENDBRANCH   3  20
TORSDOF 4
ENDMDL
MODEL 3
REMARK VINA RESULT:      -6.1     16.391     17.849
REMARK  4 active torsions:
REMARK  status: ('A' for Active; 'I' for Inactive)
REMARK    1  A    between atoms: O_18  and  C_7 
REMARK    2  A    between atoms: C_12  and  C_8 
REMARK    3  A    between atoms: N_17  and  C_9 
REMARK    4  A    between atoms: C_11  and  C_10 
REMARK       I    between atoms: N_17  and  C_11 
ROOT
HETATM    1  C   UNK N   1      20.692  20.606   1.581  0.00  0.00     0.077 C 
HETATM    2  C   UNK N   1      22.595  19.481   3.467  0.00  0.00     0.107 C 
HETATM    3  C   UNK N   1      20.318  19.540   2.546  0.00  0.00     0.065 C 
HETATM    4  C   UNK N   1      21.230  19.022   3.421  0.00  0.00     0.141 C 
HETATM    5  N   UNK N   1      23.701  19.810   3.549  0.00  0.00    -0.191 NA
ENDROOT
BRANCH   4   6
HETATM    6  C   UNK N   1      20.860  17.982   4.383  0.00  0.00     0.269 C 
HETATM    7  N   UNK N   1      21.506  17.952   5.559  0.00  0.00    -0.322 N 
HETATM    8  H   UNK N   1      22.135  18.689   5.737  0.00  0.00     0.169 HD
HETATM    9  O   UNK N   1      20.029  17.130   4.091  0.00  0.00    -0.266 OA
BRANCH   7  10
HETATM   10  C   UNK N   1      21.380  16.989   6.550  0.00  0.00     0.035 A 
HETATM   11  C   UNK N   1      22.185  15.864   6.441  0.00  0.00     0.030 A 
HETATM   12  C   UNK N   1      22.056  14.843   7.358  0.00  0.00     0.018 A 
HETATM   13  C   UNK N   1      21.108  14.947   8.378  0.00  0.00     0.048 A 
HETATM   14  C   UNK N   1      20.303  16.083   8.489  0.00  0.00     0.018 A 
HETATM   15  C   UNK N   1      20.431  17.100   7.567  0.00  0.00     0.030 A 
BRANCH  13  16
HETATM   16  C   UNK N   1      21.079  13.935   9.447  0.00  0.00     0.417 C 
HETATM   17  F   UNK N   1      22.229  14.028  10.206  0.00  0.00    -0.166 F 
HETATM   18  F   UNK N   1      20.988  12.679   8.875  0.00  0.00    -0.166 F 
HETATM   19  F   UNK N   1      19.965  14.144  10.239  0.00  0.00    -0.166 F 
ENDBRANCH  13  16
ENDBRANCH   7  10
ENDBRANCH   4   6
BRANCH   3  20
HETATM   20  O   UNK N   1      19.033  19.113   2.528  0.00  0.00    -0.364 OA
HETATM   21  H   UNK N   1      18.710  18.570   3.220  0.00  0.00     0.217 HD
ENDBRANCH   3  20
TORSDOF 4
ENDMDL
MODEL 4
REMARK VINA RESULT:      -6.0     21.627     24.209
REMARK  4 active torsions:
REMARK  status: ('A' for Active; 'I' for Inactive)
REMARK    1  A    between atoms: O_18  and  C_7 
REMARK    2  A    between atoms: C_12  and  C_8 
REMARK    3  A    between atoms: N_17  and  C_9 
REMARK    4  A    between atoms: C_11  and  C_10 
REMARK       I    between atoms: N_17  and  C_11 
ROOT
HETATM    1  C   UNK N   1      31.737  19.921  -5.307  0.00  0.00     0.077 C 
HETATM    2  C   UNK N   1      31.742  21.607  -2.939  0.00  0.00     0.107 C 
HETATM    3  C   UNK N   1      30.675  20.928  -5.047  0.00  0.00     0.065 C 
HETATM    4  C   UNK N   1      30.695  21.706  -3.925  0.00  0.00     0.141 C 
HETATM    5  N   UNK N   1      32.554  21.570  -2.117  0.00  0.00    -0.191 NA
ENDROOT
BRANCH   4   6
HETATM    6  C   UNK N   1      29.657  22.709  -3.674  0.00  0.00     0.269 C 
HETATM    7  N   UNK N   1      29.284  23.499  -4.693  0.00  0.00    -0.322 N 
HETATM    8  H   UNK N   1      29.674  23.298  -5.575  0.00  0.00     0.169 HD
HETATM    9  O   UNK N   1      29.193  22.858  -2.549  0.00  0.00    -0.266 OA
BRANCH   7  10
HETATM   10  C   UNK N   1      28.406  24.572  -4.631  0.00  0.00     0.035 A 
HETATM   11  C   UNK N   1      27.081  24.320  -4.956  0.00  0.00     0.030 A 
HETATM   12  C   UNK N   1      26.176  25.360  -4.979  0.00  0.00     0.018 A 
HETATM   13  C   UNK N   1      26.606  26.656  -4.687  0.00  0.00     0.048 A 
HETATM   14  C   UNK N   1      27.940  26.906  -4.354  0.00  0.00     0.018 A 
HETATM   15  C   UNK N   1      28.843  25.864  -4.338  0.00  0.00     0.030 A 
BRANCH  13  16
HETATM   16  C   UNK N   1      25.615  27.737  -4.554  0.00  0.00     0.417 C 
HETATM   17  F   UNK N   1      26.157  28.922  -5.011  0.00  0.00    -0.166 F 
HETATM   18  F   UNK N   1      25.259  27.858  -3.223  0.00  0.00    -0.166 F 
HETATM   19  F   UNK N   1      24.489  27.412  -5.288  0.00  0.00    -0.166 F 
ENDBRANCH  13  16
ENDBRANCH   7  10
ENDBRANCH   4   6
BRANCH   3  20
HETATM   20  O   UNK N   1      29.696  21.047  -5.974  0.00  0.00    -0.364 OA
HETATM   21  H   UNK N   1      29.001  21.661  -5.845  0.00  0.00     0.217 HD
ENDBRANCH   3  20
TORSDOF 4
ENDMDL
MODEL 5
REMARK VINA RESULT:      -6.0      9.148     11.468
REMARK  4 active torsions:
REMARK  status: ('A' for Active; 'I' for Inactive)
REMARK    1  A    between atoms: O_18  and  C_7 
REMARK    2  A    between atoms: C_12  and  C_8 
REMARK    3  A    between atoms: N_17  and  C_9 
REMARK    4  A    between atoms: C_11  and  C_10 
REMARK       I    between atoms: N_17  and  C_11 
ROOT
HETATM    1  C   UNK N   1      34.535  13.786   9.730  0.00  0.00     0.077 C 
HETATM    2  C   UNK N   1      34.834  16.669   9.941  0.00  0.00     0.107 C 
HETATM    3  C   UNK N   1      33.589  14.732   9.082  0.00  0.00     0.065 C 
HETATM    4  C   UNK N   1      33.746  16.083   9.198  0.00  0.00     0.141 C 
HETATM    5  N   UNK N   1      35.684  17.193  10.522  0.00  0.00    -0.191 NA
ENDROOT
BRANCH   4   6
HETATM    6  C   UNK N   1      32.823  17.017   8.548  0.00  0.00     0.269 C 
HETATM    7  N   UNK N   1      31.507  16.771   8.642  0.00  0.00    -0.322 N 
HETATM    8  H   UNK N   1      31.238  16.018   9.217  0.00  0.00     0.169 HD
HETATM    9  O   UNK N   1      33.250  17.958   7.889  0.00  0.00    -0.266 OA
BRANCH   7  10
HETATM   10  C   UNK N   1      30.487  17.468   8.011  0.00  0.00     0.035 A 
HETATM   11  C   UNK N   1      29.779  18.381   8.779  0.00  0.00     0.030 A 
HETATM   12  C   UNK N   1      28.711  19.053   8.224  0.00  0.00     0.018 A 
HETATM   13  C   UNK N   1      28.346  18.797   6.901  0.00  0.00     0.048 A 
HETATM   14  C   UNK N   1      29.064  17.882   6.128  0.00  0.00     0.018 A 
HETATM   15  C   UNK N   1      30.128  17.207   6.687  0.00  0.00     0.030 A 
BRANCH  13  16
HETATM   16  C   UNK N   1      27.311  19.627   6.261  0.00  0.00     0.417 C 
HETATM   17  F   UNK N   1      26.721  20.444   7.205  0.00  0.00    -0.166 F 
HETATM   18  F   UNK N   1      26.362  18.799   5.689  0.00  0.00    -0.166 F 
HETATM   19  F   UNK N   1      27.893  20.390   5.265  0.00  0.00    -0.166 F 
ENDBRANCH  13  16
ENDBRANCH   7  10
ENDBRANCH   4   6
BRANCH   3  20
HETATM   20  O   UNK N   1      32.574  14.197   8.363  0.00  0.00    -0.364 OA
HETATM   21  H   UNK N   1      32.754  13.738   7.567  0.00  0.00     0.217 HD
ENDBRANCH   3  20
TORSDOF 4
ENDMDL
MODEL 6
REMARK VINA RESULT:      -6.0     21.854     24.245
REMARK  4 active torsions:
REMARK  status: ('A' for Active; 'I' for Inactive)
REMARK    1  A    between atoms: O_18  and  C_7 
REMARK    2  A    between atoms: C_12  and  C_8 
REMARK    3  A    between atoms: N_17  and  C_9 
REMARK    4  A    between atoms: C_11  and  C_10 
REMARK       I    between atoms: N_17  and  C_11 
ROOT
HETATM    1  C   UNK N   1      32.803  20.380  -3.660  0.00  0.00     0.077 C 
HETATM    2  C   UNK N   1      30.582  20.879  -5.466  0.00  0.00     0.107 C 
HETATM    3  C   UNK N   1      31.760  21.399  -3.373  0.00  0.00     0.065 C 
HETATM    4  C   UNK N   1      30.728  21.620  -4.238  0.00  0.00     0.141 C 
HETATM    5  N   UNK N   1      30.415  20.317  -6.463  0.00  0.00    -0.191 NA
ENDROOT
BRANCH   4   6
HETATM    6  C   UNK N   1      29.691  22.614  -3.951  0.00  0.00     0.269 C 
HETATM    7  N   UNK N   1      29.122  23.250  -4.988  0.00  0.00    -0.322 N 
HETATM    8  H   UNK N   1      29.381  22.946  -5.888  0.00  0.00     0.169 HD
HETATM    9  O   UNK N   1      29.400  22.896  -2.794  0.00  0.00    -0.266 OA
BRANCH   7  10
HETATM   10  C   UNK N   1      28.210  24.293  -4.921  0.00  0.00     0.035 A 
HETATM   11  C   UNK N   1      28.726  25.576  -4.811  0.00  0.00     0.030 A 
HETATM   12  C   UNK N   1      27.867  26.645  -4.673  0.00  0.00     0.018 A 
HETATM   13  C   UNK N   1      26.489  26.424  -4.632  0.00  0.00     0.048 A 
HETATM   14  C   UNK N   1      25.971  25.131  -4.749  0.00  0.00     0.018 A 
HETATM   15  C   UNK N   1      26.833  24.063  -4.882  0.00  0.00     0.030 A 
BRANCH  13  16
HETATM   16  C   UNK N   1      25.569  27.573  -4.646  0.00  0.00     0.417 C 
HETATM   17  F   UNK N   1      26.179  28.649  -5.261  0.00  0.00    -0.166 F 
HETATM   18  F   UNK N   1      25.235  27.897  -3.343  0.00  0.00    -0.166 F 
HETATM   19  F   UNK N   1      24.417  27.224  -5.325  0.00  0.00    -0.166 F 
ENDBRANCH  13  16
ENDBRANCH   7  10
ENDBRANCH   4   6
BRANCH   3  20
HETATM   20  O   UNK N   1      31.872  22.088  -2.214  0.00  0.00    -0.364 OA
HETATM   21  H   UNK N   1      32.555  22.720  -2.108  0.00  0.00     0.217 HD
ENDBRANCH   3  20
TORSDOF 4
ENDMDL
MODEL 7
REMARK VINA RESULT:      -5.9      4.688      7.104
REMARK  4 active torsions:
REMARK  status: ('A' for Active; 'I' for Inactive)
REMARK    1  A    between atoms: O_18  and  C_7 
REMARK    2  A    between atoms: C_12  and  C_8 
REMARK    3  A    between atoms: N_17  and  C_9 
REMARK    4  A    between atoms: C_11  and  C_10 
REMARK       I    between atoms: N_17  and  C_11 
ROOT
HETATM    1  C   UNK N   1      35.341  11.892  19.663  0.00  0.00     0.077 C 
HETATM    2  C   UNK N   1      35.386  14.339  18.096  0.00  0.00     0.107 C 
HETATM    3  C   UNK N   1      35.279  11.885  18.178  0.00  0.00     0.065 C 
HETATM    4  C   UNK N   1      35.297  13.047  17.462  0.00  0.00     0.141 C 
HETATM    5  N   UNK N   1      35.456  15.400  18.549  0.00  0.00    -0.191 NA
ENDROOT
BRANCH   4   6
HETATM    6  C   UNK N   1      35.251  13.042  15.998  0.00  0.00     0.269 C 
HETATM    7  N   UNK N   1      36.365  13.381  15.330  0.00  0.00    -0.322 N 
HETATM    8  H   UNK N   1      37.175  13.531  15.870  0.00  0.00     0.169 HD
HETATM    9  O   UNK N   1      34.205  12.796  15.408  0.00  0.00    -0.266 OA
BRANCH   7  10
HETATM   10  C   UNK N   1      36.493  13.542  13.958  0.00  0.00     0.035 A 
HETATM   11  C   UNK N   1      36.156  14.782  13.436  0.00  0.00     0.030 A 
HETATM   12  C   UNK N   1      36.198  14.980  12.072  0.00  0.00     0.018 A 
HETATM   13  C   UNK N   1      36.567  13.928  11.233  0.00  0.00     0.048 A 
HETATM   14  C   UNK N   1      36.912  12.681  11.762  0.00  0.00     0.018 A 
HETATM   15  C   UNK N   1      36.863  12.485  13.126  0.00  0.00     0.030 A 
BRANCH  13  16
HETATM   16  C   UNK N   1      36.767  14.181   9.796  0.00  0.00     0.417 C 
HETATM   17  F   UNK N   1      38.067  14.589   9.573  0.00  0.00    -0.166 F 
HETATM   18  F   UNK N   1      35.884  15.164   9.386  0.00  0.00    -0.166 F 
HETATM   19  F   UNK N   1      36.501  13.023   9.090  0.00  0.00    -0.166 F 
ENDBRANCH  13  16
ENDBRANCH   7  10
ENDBRANCH   4   6
BRANCH   3  20
HETATM   20  O   UNK N   1      35.216  10.678  17.568  0.00  0.00    -0.364 OA
HETATM   21  H   UNK N   1      35.452  10.596  16.665  0.00  0.00     0.217 HD
ENDBRANCH   3  20
TORSDOF 4
ENDMDL
MODEL 8
REMARK VINA RESULT:      -5.9      5.985      8.149
REMARK  4 active torsions:
REMARK  status: ('A' for Active; 'I' for Inactive)
REMARK    1  A    between atoms: O_18  and  C_7 
REMARK    2  A    between atoms: C_12  and  C_8 
REMARK    3  A    between atoms: N_17  and  C_9 
REMARK    4  A    between atoms: C_11  and  C_10 
REMARK       I    between atoms: N_17  and  C_11 
ROOT
HETATM    1  C   UNK N   1      35.323   9.623  13.798  0.00  0.00     0.077 C 
HETATM    2  C   UNK N   1      34.709  12.415  14.321  0.00  0.00     0.107 C 
HETATM    3  C   UNK N   1      35.501  10.681  12.770  0.00  0.00     0.065 C 
HETATM    4  C   UNK N   1      35.201  11.986  13.036  0.00  0.00     0.141 C 
HETATM    5  N   UNK N   1      34.312  12.815  15.331  0.00  0.00    -0.191 NA
ENDROOT
BRANCH   4   6
HETATM    6  C   UNK N   1      35.389  13.033  12.029  0.00  0.00     0.269 C 
HETATM    7  N   UNK N   1      34.505  14.043  11.997  0.00  0.00    -0.322 N 
HETATM    8  H   UNK N   1      33.828  14.061  12.712  0.00  0.00     0.169 HD
HETATM    9  O   UNK N   1      36.291  12.950  11.204  0.00  0.00    -0.266 OA
BRANCH   7  10
HETATM   10  C   UNK N   1      34.445  15.063  11.058  0.00  0.00     0.035 A 
HETATM   11  C   UNK N   1      33.553  14.902  10.008  0.00  0.00     0.030 A 
HETATM   12  C   UNK N   1      33.498  15.850   9.010  0.00  0.00     0.018 A 
HETATM   13  C   UNK N   1      34.351  16.955   9.059  0.00  0.00     0.048 A 
HETATM   14  C   UNK N   1      35.244  17.118  10.121  0.00  0.00     0.018 A 
HETATM   15  C   UNK N   1      35.300  16.165  11.116  0.00  0.00     0.030 A 
BRANCH  13  16
HETATM   16  C   UNK N   1      34.183  18.045   8.083  0.00  0.00     0.417 C 
HETATM   17  F   UNK N   1      32.920  18.589   8.207  0.00  0.00    -0.166 F 
HETATM   18  F   UNK N   1      34.360  17.538   6.809  0.00  0.00    -0.166 F 
HETATM   19  F   UNK N   1      35.144  19.011   8.314  0.00  0.00    -0.166 F 
ENDBRANCH  13  16
ENDBRANCH   7  10
ENDBRANCH   4   6
BRANCH   3  20
HETATM   20  O   UNK N   1      35.982  10.297  11.565  0.00  0.00    -0.364 OA
HETATM   21  H   UNK N   1      36.905  10.208  11.435  0.00  0.00     0.217 HD
ENDBRANCH   3  20
TORSDOF 4
ENDMDL
MODEL 9
REMARK VINA RESULT:      -5.9      5.061      6.693
REMARK  4 active torsions:
REMARK  status: ('A' for Active; 'I' for Inactive)
REMARK    1  A    between atoms: O_18  and  C_7 
REMARK    2  A    between atoms: C_12  and  C_8 
REMARK    3  A    between atoms: N_17  and  C_9 
REMARK    4  A    between atoms: C_11  and  C_10 
REMARK       I    between atoms: N_17  and  C_11 
ROOT
HETATM    1  C   UNK N   1      33.042  17.561   4.611  0.00  0.00     0.077 C 
HETATM    2  C   UNK N   1      31.502  15.668   6.189  0.00  0.00     0.107 C 
HETATM    3  C   UNK N   1      33.351  17.280   6.037  0.00  0.00     0.065 C 
HETATM    4  C   UNK N   1      32.611  16.390   6.762  0.00  0.00     0.141 C 
HETATM    5  N   UNK N   1      30.604  15.063   5.784  0.00  0.00    -0.191 NA
ENDROOT
BRANCH   4   6
HETATM    6  C   UNK N   1      32.922  16.101   8.163  0.00  0.00     0.269 C 
HETATM    7  N   UNK N   1      34.170  15.707   8.464  0.00  0.00    -0.322 N 
HETATM    8  H   UNK N   1      34.826  15.718   7.730  0.00  0.00     0.169 HD
HETATM    9  O   UNK N   1      32.048  16.159   9.021  0.00  0.00    -0.266 OA
BRANCH   7  10
HETATM   10  C   UNK N   1      34.629  15.285   9.703  0.00  0.00     0.035 A 
HETATM   11  C   UNK N   1      35.235  16.238  10.508  0.00  0.00     0.030 A 
HETATM   12  C   UNK N   1      35.772  15.863  11.722  0.00  0.00     0.018 A 
HETATM   13  C   UNK N   1      35.711  14.526  12.120  0.00  0.00     0.048 A 
HETATM   14  C   UNK N   1      35.094  13.569  11.310  0.00  0.00     0.018 A 
HETATM   15  C   UNK N   1      34.564  13.947  10.094  0.00  0.00     0.030 A 
BRANCH  13  16
HETATM   16  C   UNK N   1      36.138  14.154  13.479  0.00  0.00     0.417 C 
HETATM   17  F   UNK N   1      35.045  13.733  14.210  0.00  0.00    -0.166 F 
HETATM   18  F   UNK N   1      36.721  15.253  14.084  0.00  0.00    -0.166 F 
HETATM   19  F   UNK N   1      37.077  13.142  13.398  0.00  0.00    -0.166 F 
ENDBRANCH  13  16
ENDBRANCH   7  10
ENDBRANCH   4   6
BRANCH   3  20
HETATM   20  O   UNK N   1      34.402  17.935   6.583  0.00  0.00    -0.364 OA
HETATM   21  H   UNK N   1      35.089  17.454   7.001  0.00  0.00     0.217 HD
ENDBRANCH   3  20
TORSDOF 4
ENDMDL
