MODEL 1
REMARK VINA RESULT:      -6.5      0.000      0.000
REMARK  11 active torsions:
REMARK  status: ('A' for Active; 'I' for Inactive)
REMARK    1  A    between atoms: C_9  and  C_8 
REMARK    2  A    between atoms: O_23  and  C_8 
REMARK    3  A    between atoms: O_25  and  C_9 
REMARK    4  A    between atoms: C_11  and  C_10 
REMARK    5  A    between atoms: O_25  and  C_10 
REMARK    6  A    between atoms: O_26  and  C_11 
REMARK    7  A    between atoms: C_18  and  C_13 
REMARK    8  A    between atoms: N_22  and  C_14 
REMARK    9  A    between atoms: C_17  and  C_15 
REMARK   10  A    between atoms: N_22  and  C_16 
REMARK   11  A    between atoms: O_26  and  C_17 
ROOT
HETATM    1  C   UNK N   1      27.808  14.446   2.084  0.00  0.00     0.001 A 
HETATM    2  C   UNK N   1      26.844  15.358   2.529  0.00  0.00     0.002 A 
HETATM    3  C   UNK N   1      29.165  14.708   2.287  0.00  0.00     0.020 A 
HETATM    4  C   UNK N   1      27.238  16.544   3.160  0.00  0.00     0.030 A 
HETATM    5  C   UNK N   1      29.568  15.883   2.940  0.00  0.00     0.066 A 
HETATM    6  C   UNK N   1      28.599  16.802   3.363  0.00  0.00     0.049 A 
ENDROOT
BRANCH   6   7
HETATM    7  N   UNK N   1      29.067  18.023   3.900  0.00  0.00    -0.355 N 
HETATM    8  H   UNK N   1      29.791  18.454   3.392  0.00  0.00     0.166 HD
BRANCH   7   9
HETATM    9  C   UNK N   1      28.652  18.714   5.047  0.00  0.00     0.033 A 
HETATM   10  C   UNK N   1      27.877  19.878   4.996  0.00  0.00     0.029 A 
HETATM   11  C   UNK N   1      27.375  20.420   6.185  0.00  0.00     0.003 A 
HETATM   12  C   UNK N   1      27.614  19.776   7.410  0.00  0.00     0.016 A 
HETATM   13  C   UNK N   1      28.380  18.603   7.449  0.00  0.00     0.050 A 
HETATM   14  C   UNK N   1      28.895  18.090   6.264  0.00  0.00     0.045 A 
BRANCH  13  15
HETATM   15  C   UNK N   1      28.608  17.865   8.735  0.00  0.00     0.417 C 
HETATM   16  F   UNK N   1      27.460  17.172   9.072  0.00  0.00    -0.166 F 
HETATM   17  F   UNK N   1      29.649  16.957   8.610  0.00  0.00    -0.166 F 
HETATM   18  F   UNK N   1      28.918  18.760   9.740  0.00  0.00    -0.166 F 
ENDBRANCH  13  15
ENDBRANCH   7   9
ENDBRANCH   6   7
BRANCH   5  19
HETATM   19  C   UNK N   1      31.010  16.147   3.232  0.00  0.00     0.295 C 
HETATM   20  O   UNK N   1      31.700  16.703   2.385  0.00  0.00    -0.259 OA
BRANCH  19  21
HETATM   21  O   UNK N   1      31.595  15.792   4.392  0.00  0.00    -0.315 OA
BRANCH  21  22
HETATM   22  C   UNK N   1      32.859  16.206   4.742  0.00  0.00     0.205 C 
BRANCH  22  23
HETATM   23  C   UNK N   1      32.770  17.386   5.688  0.00  0.00     0.194 C 
BRANCH  23  24
HETATM   24  O   UNK N   1      34.048  17.887   5.957  0.00  0.00    -0.387 OA
BRANCH  24  25
HETATM   25  C   UNK N   1      34.409  17.330   7.183  0.00  0.00     0.193 C 
BRANCH  25  26
HETATM   26  C   UNK N   1      34.162  18.330   8.296  0.00  0.00     0.190 C 
BRANCH  26  27
HETATM   27  O   UNK N   1      35.268  19.170   8.406  0.00  0.00    -0.399 OA
HETATM   28  H   UNK N   1      35.496  19.847   7.750  0.00  0.00     0.209 HD
ENDBRANCH  26  27
ENDBRANCH  25  26
ENDBRANCH  24  25
ENDBRANCH  23  24
ENDBRANCH  22  23
ENDBRANCH  21  22
ENDBRANCH  19  21
ENDBRANCH   5  19
TORSDOF 11
ENDMDL
MODEL 2
REMARK VINA RESULT:      -6.2     12.969     14.215
REMARK  11 active torsions:
REMARK  status: ('A' for Active; 'I' for Inactive)
REMARK    1  A    between atoms: C_9  and  C_8 
REMARK    2  A    between atoms: O_23  and  C_8 
REMARK    3  A    between atoms: O_25  and  C_9 
REMARK    4  A    between atoms: C_11  and  C_10 
REMARK    5  A    between atoms: O_25  and  C_10 
REMARK    6  A    between atoms: O_26  and  C_11 
REMARK    7  A    between atoms: C_18  and  C_13 
REMARK    8  A    between atoms: N_22  and  C_14 
REMARK    9  A    between atoms: C_17  and  C_15 
REMARK   10  A    between atoms: N_22  and  C_16 
REMARK   11  A    between atoms: O_26  and  C_17 
ROOT
HETATM    1  C   UNK N   1      27.322  22.774  -7.878  0.00  0.00     0.001 A 
HETATM    2  C   UNK N   1      26.431  23.587  -8.589  0.00  0.00     0.002 A 
HETATM    3  C   UNK N   1      27.483  22.950  -6.501  0.00  0.00     0.020 A 
HETATM    4  C   UNK N   1      25.715  24.591  -7.927  0.00  0.00     0.030 A 
HETATM    5  C   UNK N   1      26.750  23.938  -5.825  0.00  0.00     0.066 A 
HETATM    6  C   UNK N   1      25.877  24.763  -6.547  0.00  0.00     0.049 A 
ENDROOT
BRANCH   6   7
HETATM    7  N   UNK N   1      25.262  25.820  -5.837  0.00  0.00    -0.355 N 
HETATM    8  H   UNK N   1      24.349  25.635  -5.519  0.00  0.00     0.166 HD
BRANCH   7   9
HETATM    9  C   UNK N   1      25.759  27.090  -5.517  0.00  0.00     0.033 A 
HETATM   10  C   UNK N   1      25.393  27.781  -4.357  0.00  0.00     0.029 A 
HETATM   11  C   UNK N   1      26.049  28.974  -4.033  0.00  0.00     0.003 A 
HETATM   12  C   UNK N   1      27.092  29.449  -4.845  0.00  0.00     0.016 A 
HETATM   13  C   UNK N   1      27.461  28.742  -5.999  0.00  0.00     0.050 A 
HETATM   14  C   UNK N   1      26.783  27.573  -6.323  0.00  0.00     0.045 A 
BRANCH  13  15
HETATM   15  C   UNK N   1      28.605  29.196  -6.856  0.00  0.00     0.417 C 
HETATM   16  F   UNK N   1      28.393  28.777  -8.157  0.00  0.00    -0.166 F 
HETATM   17  F   UNK N   1      28.712  30.578  -6.852  0.00  0.00    -0.166 F 
HETATM   18  F   UNK N   1      29.786  28.657  -6.386  0.00  0.00    -0.166 F 
ENDBRANCH  13  15
ENDBRANCH   7   9
ENDBRANCH   6   7
BRANCH   5  19
HETATM   19  C   UNK N   1      26.852  24.093  -4.342  0.00  0.00     0.295 C 
HETATM   20  O   UNK N   1      25.825  24.148  -3.674  0.00  0.00    -0.259 OA
BRANCH  19  21
HETATM   21  O   UNK N   1      28.032  24.182  -3.699  0.00  0.00    -0.315 OA
BRANCH  21  22
HETATM   22  C   UNK N   1      28.236  23.650  -2.448  0.00  0.00     0.205 C 
BRANCH  22  23
HETATM   23  C   UNK N   1      29.489  22.798  -2.449  0.00  0.00     0.194 C 
BRANCH  23  24
HETATM   24  O   UNK N   1      30.621  23.602  -2.281  0.00  0.00    -0.387 OA
BRANCH  24  25
HETATM   25  C   UNK N   1      31.590  23.049  -3.117  0.00  0.00     0.193 C 
BRANCH  25  26
HETATM   26  C   UNK N   1      31.615  21.542  -2.950  0.00  0.00     0.190 C 
BRANCH  26  27
HETATM   27  O   UNK N   1      32.672  21.195  -2.112  0.00  0.00    -0.399 OA
HETATM   28  H   UNK N   1      33.037  21.787  -1.435  0.00  0.00     0.209 HD
ENDBRANCH  26  27
ENDBRANCH  25  26
ENDBRANCH  24  25
ENDBRANCH  23  24
ENDBRANCH  22  23
ENDBRANCH  21  22
ENDBRANCH  19  21
ENDBRANCH   5  19
TORSDOF 11
ENDMDL
MODEL 3
REMARK VINA RESULT:      -6.2     12.348     14.125
REMARK  11 active torsions:
REMARK  status: ('A' for Active; 'I' for Inactive)
REMARK    1  A    between atoms: C_9  and  C_8 
REMARK    2  A    between atoms: O_23  and  C_8 
REMARK    3  A    between atoms: O_25  and  C_9 
REMARK    4  A    between atoms: C_11  and  C_10 
REMARK    5  A    between atoms: O_25  and  C_10 
REMARK    6  A    between atoms: O_26  and  C_11 
REMARK    7  A    between atoms: C_18  and  C_13 
REMARK    8  A    between atoms: N_22  and  C_14 
REMARK    9  A    between atoms: C_17  and  C_15 
REMARK   10  A    between atoms: N_22  and  C_16 
REMARK   11  A    between atoms: O_26  and  C_17 
ROOT
HETATM    1  C   UNK N   1      25.913  28.045  -3.703  0.00  0.00     0.001 A 
HETATM    2  C   UNK N   1      25.180  28.059  -4.895  0.00  0.00     0.002 A 
HETATM    3  C   UNK N   1      26.511  26.861  -3.263  0.00  0.00     0.020 A 
HETATM    4  C   UNK N   1      25.025  26.883  -5.639  0.00  0.00     0.030 A 
HETATM    5  C   UNK N   1      26.382  25.684  -4.016  0.00  0.00     0.066 A 
HETATM    6  C   UNK N   1      25.627  25.699  -5.196  0.00  0.00     0.049 A 
ENDROOT
BRANCH   6   7
HETATM    7  N   UNK N   1      25.427  24.459  -5.845  0.00  0.00    -0.355 N 
HETATM    8  H   UNK N   1      24.860  23.819  -5.357  0.00  0.00     0.166 HD
BRANCH   7   9
HETATM    9  C   UNK N   1      25.914  24.005  -7.078  0.00  0.00     0.033 A 
HETATM   10  C   UNK N   1      25.961  24.810  -8.221  0.00  0.00     0.029 A 
HETATM   11  C   UNK N   1      26.601  24.333  -9.371  0.00  0.00     0.003 A 
HETATM   12  C   UNK N   1      27.225  23.076  -9.360  0.00  0.00     0.016 A 
HETATM   13  C   UNK N   1      27.184  22.281  -8.205  0.00  0.00     0.050 A 
HETATM   14  C   UNK N   1      26.522  22.756  -7.079  0.00  0.00     0.045 A 
BRANCH  13  15
HETATM   15  C   UNK N   1      27.886  20.957  -8.146  0.00  0.00     0.417 C 
HETATM   16  F   UNK N   1      28.820  20.981  -7.127  0.00  0.00    -0.166 F 
HETATM   17  F   UNK N   1      26.990  19.929  -7.897  0.00  0.00    -0.166 F 
HETATM   18  F   UNK N   1      28.522  20.710  -9.347  0.00  0.00    -0.166 F 
ENDBRANCH  13  15
ENDBRANCH   7   9
ENDBRANCH   6   7
BRANCH   5  19
HETATM   19  C   UNK N   1      27.075  24.425  -3.602  0.00  0.00     0.295 C 
HETATM   20  O   UNK N   1      26.711  23.849  -2.582  0.00  0.00    -0.259 OA
BRANCH  19  21
HETATM   21  O   UNK N   1      28.095  23.892  -4.301  0.00  0.00    -0.315 OA
BRANCH  21  22
HETATM   22  C   UNK N   1      29.114  24.654  -4.823  0.00  0.00     0.205 C 
BRANCH  22  23
HETATM   23  C   UNK N   1      30.376  23.823  -4.929  0.00  0.00     0.194 C 
BRANCH  23  24
HETATM   24  O   UNK N   1      30.255  22.659  -4.164  0.00  0.00    -0.387 OA
BRANCH  24  25
HETATM   25  C   UNK N   1      31.255  22.750  -3.197  0.00  0.00     0.193 C 
BRANCH  25  26
HETATM   26  C   UNK N   1      32.138  21.519  -3.250  0.00  0.00     0.190 C 
BRANCH  26  27
HETATM   27  O   UNK N   1      32.640  21.264  -1.976  0.00  0.00    -0.399 OA
HETATM   28  H   UNK N   1      32.387  21.770  -1.188  0.00  0.00     0.209 HD
ENDBRANCH  26  27
ENDBRANCH  25  26
ENDBRANCH  24  25
ENDBRANCH  23  24
ENDBRANCH  22  23
ENDBRANCH  21  22
ENDBRANCH  19  21
ENDBRANCH   5  19
TORSDOF 11
ENDMDL
MODEL 4
REMARK VINA RESULT:      -6.2      6.670     10.060
REMARK  11 active torsions:
REMARK  status: ('A' for Active; 'I' for Inactive)
REMARK    1  A    between atoms: C_9  and  C_8 
REMARK    2  A    between atoms: O_23  and  C_8 
REMARK    3  A    between atoms: O_25  and  C_9 
REMARK    4  A    between atoms: C_11  and  C_10 
REMARK    5  A    between atoms: O_25  and  C_10 
REMARK    6  A    between atoms: O_26  and  C_11 
REMARK    7  A    between atoms: C_18  and  C_13 
REMARK    8  A    between atoms: N_22  and  C_14 
REMARK    9  A    between atoms: C_17  and  C_15 
REMARK   10  A    between atoms: N_22  and  C_16 
REMARK   11  A    between atoms: O_26  and  C_17 
ROOT
HETATM    1  C   UNK N   1      37.076  13.378   8.371  0.00  0.00     0.001 A 
HETATM    2  C   UNK N   1      38.007  13.013   9.351  0.00  0.00     0.002 A 
HETATM    3  C   UNK N   1      35.969  14.159   8.715  0.00  0.00     0.020 A 
HETATM    4  C   UNK N   1      37.820  13.409  10.680  0.00  0.00     0.030 A 
HETATM    5  C   UNK N   1      35.788  14.582  10.041  0.00  0.00     0.066 A 
HETATM    6  C   UNK N   1      36.711  14.193  11.021  0.00  0.00     0.049 A 
ENDROOT
BRANCH   6   7
HETATM    7  N   UNK N   1      36.411  14.541  12.357  0.00  0.00    -0.355 N 
HETATM    8  H   UNK N   1      36.362  15.507  12.537  0.00  0.00     0.166 HD
BRANCH   7   9
HETATM    9  C   UNK N   1      36.169  13.715  13.464  0.00  0.00     0.033 A 
HETATM   10  C   UNK N   1      36.542  14.061  14.768  0.00  0.00     0.029 A 
HETATM   11  C   UNK N   1      36.128  13.257  15.836  0.00  0.00     0.003 A 
HETATM   12  C   UNK N   1      35.314  12.137  15.602  0.00  0.00     0.016 A 
HETATM   13  C   UNK N   1      34.935  11.806  14.293  0.00  0.00     0.050 A 
HETATM   14  C   UNK N   1      35.373  12.599  13.239  0.00  0.00     0.045 A 
BRANCH  13  15
HETATM   15  C   UNK N   1      34.023  10.648  14.017  0.00  0.00     0.417 C 
HETATM   16  F   UNK N   1      32.905  10.745  14.826  0.00  0.00    -0.166 F 
HETATM   17  F   UNK N   1      33.608  10.644  12.694  0.00  0.00    -0.166 F 
HETATM   18  F   UNK N   1      34.679   9.461  14.279  0.00  0.00    -0.166 F 
ENDBRANCH  13  15
ENDBRANCH   7   9
ENDBRANCH   6   7
BRANCH   5  19
HETATM   19  C   UNK N   1      34.651  15.477  10.415  0.00  0.00     0.295 C 
HETATM   20  O   UNK N   1      33.749  15.037  11.120  0.00  0.00    -0.259 OA
BRANCH  19  21
HETATM   21  O   UNK N   1      34.567  16.758  10.005  0.00  0.00    -0.315 OA
BRANCH  21  22
HETATM   22  C   UNK N   1      33.840  17.135   8.901  0.00  0.00     0.205 C 
BRANCH  22  23
HETATM   23  C   UNK N   1      34.483  18.342   8.249  0.00  0.00     0.194 C 
BRANCH  23  24
HETATM   24  O   UNK N   1      34.584  18.150   6.868  0.00  0.00    -0.387 OA
BRANCH  24  25
HETATM   25  C   UNK N   1      33.872  16.980   6.609  0.00  0.00     0.193 C 
BRANCH  25  26
HETATM   26  C   UNK N   1      33.294  17.027   5.208  0.00  0.00     0.190 C 
BRANCH  26  27
HETATM   27  O   UNK N   1      31.983  17.492   5.273  0.00  0.00    -0.399 OA
HETATM   28  H   UNK N   1      31.717  18.390   5.019  0.00  0.00     0.209 HD
ENDBRANCH  26  27
ENDBRANCH  25  26
ENDBRANCH  24  25
ENDBRANCH  23  24
ENDBRANCH  22  23
ENDBRANCH  21  22
ENDBRANCH  19  21
ENDBRANCH   5  19
TORSDOF 11
ENDMDL
MODEL 5
REMARK VINA RESULT:      -6.1     13.138     14.829
REMARK  11 active torsions:
REMARK  status: ('A' for Active; 'I' for Inactive)
REMARK    1  A    between atoms: C_9  and  C_8 
REMARK    2  A    between atoms: O_23  and  C_8 
REMARK    3  A    between atoms: O_25  and  C_9 
REMARK    4  A    between atoms: C_11  and  C_10 
REMARK    5  A    between atoms: O_25  and  C_10 
REMARK    6  A    between atoms: O_26  and  C_11 
REMARK    7  A    between atoms: C_18  and  C_13 
REMARK    8  A    between atoms: N_22  and  C_14 
REMARK    9  A    between atoms: C_17  and  C_15 
REMARK   10  A    between atoms: N_22  and  C_16 
REMARK   11  A    between atoms: O_26  and  C_17 
ROOT
HETATM    1  C   UNK N   1      25.935  28.046  -3.764  0.00  0.00     0.001 A 
HETATM    2  C   UNK N   1      25.134  27.963  -4.909  0.00  0.00     0.002 A 
HETATM    3  C   UNK N   1      26.597  26.911  -3.289  0.00  0.00     0.020 A 
HETATM    4  C   UNK N   1      24.976  26.738  -5.568  0.00  0.00     0.030 A 
HETATM    5  C   UNK N   1      26.464  25.685  -3.959  0.00  0.00     0.066 A 
HETATM    6  C   UNK N   1      25.642  25.603  -5.090  0.00  0.00     0.049 A 
ENDROOT
BRANCH   6   7
HETATM    7  N   UNK N   1      25.446  24.319  -5.648  0.00  0.00    -0.355 N 
HETATM    8  H   UNK N   1      24.985  23.675  -5.063  0.00  0.00     0.166 HD
BRANCH   7   9
HETATM    9  C   UNK N   1      25.808  23.826  -6.909  0.00  0.00     0.033 A 
HETATM   10  C   UNK N   1      26.114  22.481  -7.142  0.00  0.00     0.029 A 
HETATM   11  C   UNK N   1      26.315  22.040  -8.455  0.00  0.00     0.003 A 
HETATM   12  C   UNK N   1      26.169  22.933  -9.529  0.00  0.00     0.016 A 
HETATM   13  C   UNK N   1      25.850  24.277  -9.286  0.00  0.00     0.050 A 
HETATM   14  C   UNK N   1      25.679  24.707  -7.976  0.00  0.00     0.045 A 
BRANCH  13  15
HETATM   15  C   UNK N   1      25.637  25.242 -10.415  0.00  0.00     0.417 C 
HETATM   16  F   UNK N   1      26.301  24.783 -11.538  0.00  0.00    -0.166 F 
HETATM   17  F   UNK N   1      24.289  25.362 -10.720  0.00  0.00    -0.166 F 
HETATM   18  F   UNK N   1      26.125  26.486 -10.067  0.00  0.00    -0.166 F 
ENDBRANCH  13  15
ENDBRANCH   7   9
ENDBRANCH   6   7
BRANCH   5  19
HETATM   19  C   UNK N   1      27.221  24.476  -3.510  0.00  0.00     0.295 C 
HETATM   20  O   UNK N   1      26.772  23.794  -2.596  0.00  0.00    -0.259 OA
BRANCH  19  21
HETATM   21  O   UNK N   1      28.390  24.101  -4.066  0.00  0.00    -0.315 OA
BRANCH  21  22
HETATM   22  C   UNK N   1      29.602  24.598  -3.648  0.00  0.00     0.205 C 
BRANCH  22  23
HETATM   23  C   UNK N   1      30.303  23.577  -2.775  0.00  0.00     0.194 C 
BRANCH  23  24
HETATM   24  O   UNK N   1      31.485  23.147  -3.387  0.00  0.00    -0.387 OA
BRANCH  24  25
HETATM   25  C   UNK N   1      31.309  21.782  -3.605  0.00  0.00     0.193 C 
BRANCH  25  26
HETATM   26  C   UNK N   1      32.607  21.046  -3.338  0.00  0.00     0.190 C 
BRANCH  26  27
HETATM   27  O   UNK N   1      32.919  21.149  -1.985  0.00  0.00    -0.399 OA
HETATM   28  H   UNK N   1      33.294  21.947  -1.579  0.00  0.00     0.209 HD
ENDBRANCH  26  27
ENDBRANCH  25  26
ENDBRANCH  24  25
ENDBRANCH  23  24
ENDBRANCH  22  23
ENDBRANCH  21  22
ENDBRANCH  19  21
ENDBRANCH   5  19
TORSDOF 11
ENDMDL
MODEL 6
REMARK VINA RESULT:      -6.0     11.952     13.671
REMARK  11 active torsions:
REMARK  status: ('A' for Active; 'I' for Inactive)
REMARK    1  A    between atoms: C_9  and  C_8 
REMARK    2  A    between atoms: O_23  and  C_8 
REMARK    3  A    between atoms: O_25  and  C_9 
REMARK    4  A    between atoms: C_11  and  C_10 
REMARK    5  A    between atoms: O_25  and  C_10 
REMARK    6  A    between atoms: O_26  and  C_11 
REMARK    7  A    between atoms: C_18  and  C_13 
REMARK    8  A    between atoms: N_22  and  C_14 
REMARK    9  A    between atoms: C_17  and  C_15 
REMARK   10  A    between atoms: N_22  and  C_16 
REMARK   11  A    between atoms: O_26  and  C_17 
ROOT
HETATM    1  C   UNK N   1      25.831  21.514  -7.702  0.00  0.00     0.001 A 
HETATM    2  C   UNK N   1      27.214  21.350  -7.844  0.00  0.00     0.002 A 
HETATM    3  C   UNK N   1      25.327  22.517  -6.870  0.00  0.00     0.020 A 
HETATM    4  C   UNK N   1      28.095  22.176  -7.137  0.00  0.00     0.030 A 
HETATM    5  C   UNK N   1      26.204  23.366  -6.177  0.00  0.00     0.066 A 
HETATM    6  C   UNK N   1      27.587  23.182  -6.306  0.00  0.00     0.049 A 
ENDROOT
BRANCH   6   7
HETATM    7  N   UNK N   1      28.417  23.981  -5.488  0.00  0.00    -0.355 N 
HETATM    8  H   UNK N   1      28.404  24.944  -5.693  0.00  0.00     0.166 HD
BRANCH   7   9
HETATM    9  C   UNK N   1      29.255  23.609  -4.428  0.00  0.00     0.033 A 
HETATM   10  C   UNK N   1      28.818  23.535  -3.101  0.00  0.00     0.029 A 
HETATM   11  C   UNK N   1      29.672  23.008  -2.126  0.00  0.00     0.003 A 
HETATM   12  C   UNK N   1      30.939  22.521  -2.485  0.00  0.00     0.016 A 
HETATM   13  C   UNK N   1      31.363  22.588  -3.820  0.00  0.00     0.050 A 
HETATM   14  C   UNK N   1      30.516  23.138  -4.774  0.00  0.00     0.045 A 
BRANCH  13  15
HETATM   15  C   UNK N   1      32.690  22.029  -4.244  0.00  0.00     0.417 C 
HETATM   16  F   UNK N   1      33.306  21.442  -3.153  0.00  0.00    -0.166 F 
HETATM   17  F   UNK N   1      32.533  21.067  -5.230  0.00  0.00    -0.166 F 
HETATM   18  F   UNK N   1      33.490  23.042  -4.734  0.00  0.00    -0.166 F 
ENDBRANCH  13  15
ENDBRANCH   7   9
ENDBRANCH   6   7
BRANCH   5  19
HETATM   19  C   UNK N   1      25.686  24.491  -5.341  0.00  0.00     0.295 C 
HETATM   20  O   UNK N   1      25.773  24.418  -4.119  0.00  0.00    -0.259 OA
BRANCH  19  21
HETATM   21  O   UNK N   1      25.116  25.591  -5.871  0.00  0.00    -0.315 OA
BRANCH  21  22
HETATM   22  C   UNK N   1      25.666  26.271  -6.932  0.00  0.00     0.205 C 
BRANCH  22  23
HETATM   23  C   UNK N   1      26.853  27.086  -6.460  0.00  0.00     0.194 C 
BRANCH  23  24
HETATM   24  O   UNK N   1      26.418  28.200  -5.735  0.00  0.00    -0.387 OA
BRANCH  24  25
HETATM   25  C   UNK N   1      26.966  28.045  -4.463  0.00  0.00     0.193 C 
BRANCH  25  26
HETATM   26  C   UNK N   1      25.869  28.113  -3.418  0.00  0.00     0.190 C 
BRANCH  26  27
HETATM   27  O   UNK N   1      25.967  27.001  -2.585  0.00  0.00    -0.399 OA
HETATM   28  H   UNK N   1      25.970  26.086  -2.907  0.00  0.00     0.209 HD
ENDBRANCH  26  27
ENDBRANCH  25  26
ENDBRANCH  24  25
ENDBRANCH  23  24
ENDBRANCH  22  23
ENDBRANCH  21  22
ENDBRANCH  19  21
ENDBRANCH   5  19
TORSDOF 11
ENDMDL
MODEL 7
REMARK VINA RESULT:      -6.0      4.647      7.100
REMARK  11 active torsions:
REMARK  status: ('A' for Active; 'I' for Inactive)
REMARK    1  A    between atoms: C_9  and  C_8 
REMARK    2  A    between atoms: O_23  and  C_8 
REMARK    3  A    between atoms: O_25  and  C_9 
REMARK    4  A    between atoms: C_11  and  C_10 
REMARK    5  A    between atoms: O_25  and  C_10 
REMARK    6  A    between atoms: O_26  and  C_11 
REMARK    7  A    between atoms: C_18  and  C_13 
REMARK    8  A    between atoms: N_22  and  C_14 
REMARK    9  A    between atoms: C_17  and  C_15 
REMARK   10  A    between atoms: N_22  and  C_16 
REMARK   11  A    between atoms: O_26  and  C_17 
ROOT
HETATM    1  C   UNK N   1      25.962  19.910   3.212  0.00  0.00     0.001 A 
HETATM    2  C   UNK N   1      26.747  20.565   4.168  0.00  0.00     0.002 A 
HETATM    3  C   UNK N   1      25.586  18.579   3.408  0.00  0.00     0.020 A 
HETATM    4  C   UNK N   1      27.176  19.881   5.312  0.00  0.00     0.030 A 
HETATM    5  C   UNK N   1      25.990  17.894   4.564  0.00  0.00     0.066 A 
HETATM    6  C   UNK N   1      26.796  18.548   5.506  0.00  0.00     0.049 A 
ENDROOT
BRANCH   6   7
HETATM    7  N   UNK N   1      27.276  17.772   6.586  0.00  0.00    -0.355 N 
HETATM    8  H   UNK N   1      26.785  16.935   6.751  0.00  0.00     0.166 HD
BRANCH   7   9
HETATM    9  C   UNK N   1      28.349  18.014   7.454  0.00  0.00     0.033 A 
HETATM   10  C   UNK N   1      28.178  18.411   8.785  0.00  0.00     0.029 A 
HETATM   11  C   UNK N   1      29.292  18.483   9.628  0.00  0.00     0.003 A 
HETATM   12  C   UNK N   1      30.562  18.120   9.152  0.00  0.00     0.016 A 
HETATM   13  C   UNK N   1      30.722  17.710   7.820  0.00  0.00     0.050 A 
HETATM   14  C   UNK N   1      29.612  17.669   6.986  0.00  0.00     0.045 A 
BRANCH  13  15
HETATM   15  C   UNK N   1      32.056  17.267   7.298  0.00  0.00     0.417 C 
HETATM   16  F   UNK N   1      32.340  16.004   7.787  0.00  0.00    -0.166 F 
HETATM   17  F   UNK N   1      32.056  17.211   5.913  0.00  0.00    -0.166 F 
HETATM   18  F   UNK N   1      33.037  18.150   7.706  0.00  0.00    -0.166 F 
ENDBRANCH  13  15
ENDBRANCH   7   9
ENDBRANCH   6   7
BRANCH   5  19
HETATM   19  C   UNK N   1      25.538  16.493   4.828  0.00  0.00     0.295 C 
HETATM   20  O   UNK N   1      25.658  15.650   3.946  0.00  0.00    -0.259 OA
BRANCH  19  21
HETATM   21  O   UNK N   1      24.993  16.113   5.999  0.00  0.00    -0.315 OA
BRANCH  21  22
HETATM   22  C   UNK N   1      23.985  15.181   6.079  0.00  0.00     0.205 C 
BRANCH  22  23
HETATM   23  C   UNK N   1      22.641  15.880   6.118  0.00  0.00     0.194 C 
BRANCH  23  24
HETATM   24  O   UNK N   1      22.020  15.666   7.352  0.00  0.00    -0.387 OA
BRANCH  24  25
HETATM   25  C   UNK N   1      20.908  16.508   7.354  0.00  0.00     0.193 C 
BRANCH  25  26
HETATM   26  C   UNK N   1      21.216  17.769   6.570  0.00  0.00     0.190 C 
BRANCH  26  27
HETATM   27  O   UNK N   1      20.832  18.876   7.322  0.00  0.00    -0.399 OA
HETATM   28  H   UNK N   1      21.142  19.779   7.147  0.00  0.00     0.209 HD
ENDBRANCH  26  27
ENDBRANCH  25  26
ENDBRANCH  24  25
ENDBRANCH  23  24
ENDBRANCH  22  23
ENDBRANCH  21  22
ENDBRANCH  19  21
ENDBRANCH   5  19
TORSDOF 11
ENDMDL
MODEL 8
REMARK VINA RESULT:      -5.9      3.170      5.363
REMARK  11 active torsions:
REMARK  status: ('A' for Active; 'I' for Inactive)
REMARK    1  A    between atoms: C_9  and  C_8 
REMARK    2  A    between atoms: O_23  and  C_8 
REMARK    3  A    between atoms: O_25  and  C_9 
REMARK    4  A    between atoms: C_11  and  C_10 
REMARK    5  A    between atoms: O_25  and  C_10 
REMARK    6  A    between atoms: O_26  and  C_11 
REMARK    7  A    between atoms: C_18  and  C_13 
REMARK    8  A    between atoms: N_22  and  C_14 
REMARK    9  A    between atoms: C_17  and  C_15 
REMARK   10  A    between atoms: N_22  and  C_16 
REMARK   11  A    between atoms: O_26  and  C_17 
ROOT
HETATM    1  C   UNK N   1      27.185  20.958   5.526  0.00  0.00     0.001 A 
HETATM    2  C   UNK N   1      27.070  20.213   4.346  0.00  0.00     0.002 A 
HETATM    3  C   UNK N   1      27.653  20.349   6.693  0.00  0.00     0.020 A 
HETATM    4  C   UNK N   1      27.403  18.854   4.337  0.00  0.00     0.030 A 
HETATM    5  C   UNK N   1      28.013  18.993   6.687  0.00  0.00     0.066 A 
HETATM    6  C   UNK N   1      27.873  18.248   5.509  0.00  0.00     0.049 A 
ENDROOT
BRANCH   6   7
HETATM    7  N   UNK N   1      28.130  16.861   5.595  0.00  0.00    -0.355 N 
HETATM    8  H   UNK N   1      27.398  16.323   5.974  0.00  0.00     0.166 HD
BRANCH   7   9
HETATM    9  C   UNK N   1      29.269  16.136   5.219  0.00  0.00     0.033 A 
HETATM   10  C   UNK N   1      29.348  14.742   5.303  0.00  0.00     0.029 A 
HETATM   11  C   UNK N   1      30.459  14.084   4.765  0.00  0.00     0.003 A 
HETATM   12  C   UNK N   1      31.464  14.815   4.111  0.00  0.00     0.016 A 
HETATM   13  C   UNK N   1      31.370  16.211   4.020  0.00  0.00     0.050 A 
HETATM   14  C   UNK N   1      30.274  16.854   4.582  0.00  0.00     0.045 A 
BRANCH  13  15
HETATM   15  C   UNK N   1      32.401  17.014   3.283  0.00  0.00     0.417 C 
HETATM   16  F   UNK N   1      31.925  17.316   2.020  0.00  0.00    -0.166 F 
HETATM   17  F   UNK N   1      32.675  18.201   3.945  0.00  0.00    -0.166 F 
HETATM   18  F   UNK N   1      33.570  16.287   3.172  0.00  0.00    -0.166 F 
ENDBRANCH  13  15
ENDBRANCH   7   9
ENDBRANCH   6   7
BRANCH   5  19
HETATM   19  C   UNK N   1      28.585  18.342   7.906  0.00  0.00     0.295 C 
HETATM   20  O   UNK N   1      27.866  18.168   8.884  0.00  0.00    -0.259 OA
BRANCH  19  21
HETATM   21  O   UNK N   1      29.868  17.940   7.982  0.00  0.00    -0.315 OA
BRANCH  21  22
HETATM   22  C   UNK N   1      30.741  18.425   8.927  0.00  0.00     0.205 C 
BRANCH  22  23
HETATM   23  C   UNK N   1      32.153  17.985   8.596  0.00  0.00     0.194 C 
BRANCH  23  24
HETATM   24  O   UNK N   1      32.173  17.297   7.379  0.00  0.00    -0.387 OA
BRANCH  24  25
HETATM   25  C   UNK N   1      33.495  17.366   6.942  0.00  0.00     0.193 C 
BRANCH  25  26
HETATM   26  C   UNK N   1      34.007  15.973   6.628  0.00  0.00     0.190 C 
BRANCH  26  27
HETATM   27  O   UNK N   1      35.191  16.077   5.903  0.00  0.00    -0.399 OA
HETATM   28  H   UNK N   1      35.697  16.901   5.815  0.00  0.00     0.209 HD
ENDBRANCH  26  27
ENDBRANCH  25  26
ENDBRANCH  24  25
ENDBRANCH  23  24
ENDBRANCH  22  23
ENDBRANCH  21  22
ENDBRANCH  19  21
ENDBRANCH   5  19
TORSDOF 11
ENDMDL
MODEL 9
REMARK VINA RESULT:      -5.9      6.925      9.298
REMARK  11 active torsions:
REMARK  status: ('A' for Active; 'I' for Inactive)
REMARK    1  A    between atoms: C_9  and  C_8 
REMARK    2  A    between atoms: O_23  and  C_8 
REMARK    3  A    between atoms: O_25  and  C_9 
REMARK    4  A    between atoms: C_11  and  C_10 
REMARK    5  A    between atoms: O_25  and  C_10 
REMARK    6  A    between atoms: O_26  and  C_11 
REMARK    7  A    between atoms: C_18  and  C_13 
REMARK    8  A    between atoms: N_22  and  C_14 
REMARK    9  A    between atoms: C_17  and  C_15 
REMARK   10  A    between atoms: N_22  and  C_16 
REMARK   11  A    between atoms: O_26  and  C_17 
ROOT
HETATM    1  C   UNK N   1      21.829  13.331   0.665  0.00  0.00     0.001 A 
HETATM    2  C   UNK N   1      23.009  13.184   1.403  0.00  0.00     0.002 A 
HETATM    3  C   UNK N   1      21.029  14.464   0.843  0.00  0.00     0.020 A 
HETATM    4  C   UNK N   1      23.381  14.159   2.335  0.00  0.00     0.030 A 
HETATM    5  C   UNK N   1      21.408  15.458   1.758  0.00  0.00     0.066 A 
HETATM    6  C   UNK N   1      22.579  15.293   2.510  0.00  0.00     0.049 A 
ENDROOT
BRANCH   6   7
HETATM    7  N   UNK N   1      22.843  16.263   3.503  0.00  0.00    -0.355 N 
HETATM    8  H   UNK N   1      22.048  16.624   3.957  0.00  0.00     0.166 HD
BRANCH   7   9
HETATM    9  C   UNK N   1      24.068  16.786   3.941  0.00  0.00     0.033 A 
HETATM   10  C   UNK N   1      25.116  15.984   4.406  0.00  0.00     0.029 A 
HETATM   11  C   UNK N   1      26.358  16.569   4.678  0.00  0.00     0.003 A 
HETATM   12  C   UNK N   1      26.559  17.938   4.446  0.00  0.00     0.016 A 
HETATM   13  C   UNK N   1      25.506  18.731   3.966  0.00  0.00     0.050 A 
HETATM   14  C   UNK N   1      24.271  18.144   3.726  0.00  0.00     0.045 A 
BRANCH  13  15
HETATM   15  C   UNK N   1      25.706  20.186   3.659  0.00  0.00     0.417 C 
HETATM   16  F   UNK N   1      24.689  20.620   2.829  0.00  0.00    -0.166 F 
HETATM   17  F   UNK N   1      25.682  20.948   4.818  0.00  0.00    -0.166 F 
HETATM   18  F   UNK N   1      26.923  20.371   3.033  0.00  0.00    -0.166 F 
ENDBRANCH  13  15
ENDBRANCH   7   9
ENDBRANCH   6   7
BRANCH   5  19
HETATM   19  C   UNK N   1      20.606  16.711   1.910  0.00  0.00     0.295 C 
HETATM   20  O   UNK N   1      20.293  17.346   0.908  0.00  0.00    -0.259 OA
BRANCH  19  21
HETATM   21  O   UNK N   1      20.212  17.182   3.108  0.00  0.00    -0.315 OA
BRANCH  21  22
HETATM   22  C   UNK N   1      19.728  18.458   3.279  0.00  0.00     0.205 C 
BRANCH  22  23
HETATM   23  C   UNK N   1      20.795  19.335   3.902  0.00  0.00     0.194 C 
BRANCH  23  24
HETATM   24  O   UNK N   1      20.713  20.634   3.390  0.00  0.00    -0.387 OA
BRANCH  24  25
HETATM   25  C   UNK N   1      21.503  20.624   2.241  0.00  0.00     0.193 C 
BRANCH  25  26
HETATM   26  C   UNK N   1      20.674  21.042   1.042  0.00  0.00     0.190 C 
BRANCH  26  27
HETATM   27  O   UNK N   1      20.661  20.003   0.115  0.00  0.00    -0.399 OA
HETATM   28  H   UNK N   1      20.062  19.242   0.168  0.00  0.00     0.209 HD
ENDBRANCH  26  27
ENDBRANCH  25  26
ENDBRANCH  24  25
ENDBRANCH  23  24
ENDBRANCH  22  23
ENDBRANCH  21  22
ENDBRANCH  19  21
ENDBRANCH   5  19
TORSDOF 11
ENDMDL
