MODEL 1
REMARK VINA RESULT:      -8.2      0.000      0.000
REMARK  4 active torsions:
REMARK  status: ('A' for Active; 'I' for Inactive)
REMARK    1  A    between atoms: C_4  and  C_18 
REMARK    2  A    between atoms: C_6  and  O_16 
REMARK       I    between atoms: C_18  and  N_19 
REMARK    3  A    between atoms: N_19  and  C_21 
REMARK    4  A    between atoms: C_21  and  C_22 
ROOT
HETATM    1  C   UNK N   1      34.849  15.111   9.776  0.00  0.00     0.141 A 
HETATM    2  N   UNK N   1      35.109  13.785   9.520  0.00  0.00    -0.345 N 
HETATM    3  C   UNK N   1      35.715  12.993  10.447  0.00  0.00     0.113 A 
HETATM    4  C   UNK N   1      36.103  13.508  11.691  0.00  0.00     0.100 A 
HETATM    5  C   UNK N   1      35.859  14.875  11.960  0.00  0.00     0.224 A 
HETATM    6  C   UNK N   1      35.229  15.671  11.006  0.00  0.00     0.150 A 
HETATM    7  C   UNK N   1      34.133  15.913   8.745  0.00  0.00     0.276 C 
HETATM    8  N   UNK N   1      34.027  15.419   7.474  0.00  0.00    -0.314 N 
HETATM    9  C   UNK N   1      34.797  14.207   7.138  0.00  0.00     0.244 C 
HETATM   10  C   UNK N   1      34.666  13.180   8.259  0.00  0.00     0.182 C 
HETATM   11  C   UNK N   1      33.141  16.073   6.508  0.00  0.00     0.088 C 
HETATM   12  C   UNK N   1      33.002  15.304   5.207  0.00  0.00     0.051 C 
HETATM   13  C   UNK N   1      33.171  13.840   5.524  0.00  0.00     0.172 C 
HETATM   14  O   UNK N   1      34.514  13.638   5.870  0.00  0.00    -0.365 OA
HETATM   15  O   UNK N   1      33.589  16.966   9.050  0.00  0.00    -0.266 OA
HETATM   16  O   UNK N   1      36.178  15.372  13.027  0.00  0.00    -0.284 OA
HETATM   17  C   UNK N   1      33.593  17.492   6.202  0.00  0.00     0.032 C 
ENDROOT
BRANCH   4  18
HETATM   18  C   UNK N   1      36.673  12.596  12.724  0.00  0.00     0.257 C 
HETATM   19  N   UNK N   1      35.971  12.374  13.858  0.00  0.00    -0.352 N 
HETATM   20  H   UNK N   1      35.197  12.954  14.035  0.00  0.00     0.163 HD
HETATM   21  O   UNK N   1      37.711  11.986  12.509  0.00  0.00    -0.267 OA
BRANCH  19  22
HETATM   22  C   UNK N   1      36.271  11.351  14.824  0.00  0.00     0.164 C 
BRANCH  22  23
HETATM   23  C   UNK N   1      35.880  11.852  16.185  0.00  0.00    -0.002 A 
HETATM   24  C   UNK N   1      35.586  13.210  16.354  0.00  0.00     0.015 A 
HETATM   25  C   UNK N   1      35.208  13.698  17.609  0.00  0.00     0.043 A 
HETATM   26  C   UNK N   1      35.113  12.830  18.700  0.00  0.00     0.119 A 
HETATM   27  C   UNK N   1      35.404  11.475  18.542  0.00  0.00     0.085 A 
HETATM   28  F   UNK N   1      34.734  13.301  19.912  0.00  0.00    -0.206 F 
HETATM   29  C   UNK N   1      35.793  10.982  17.295  0.00  0.00     0.127 A 
HETATM   30  F   UNK N   1      36.065   9.658  17.170  0.00  0.00    -0.205 F 
ENDBRANCH  22  23
ENDBRANCH  19  22
ENDBRANCH   4  18
BRANCH   6  31
HETATM   31  O   UNK N   1      34.987  16.968  11.279  0.00  0.00    -0.355 OA
HETATM   32  H   UNK N   1      34.700  17.560  10.612  0.00  0.00     0.218 HD
ENDBRANCH   6  31
TORSDOF 4
ENDMDL
MODEL 2
REMARK VINA RESULT:      -8.2      4.279      9.492
REMARK  4 active torsions:
REMARK  status: ('A' for Active; 'I' for Inactive)
REMARK    1  A    between atoms: C_4  and  C_18 
REMARK    2  A    between atoms: C_6  and  O_16 
REMARK       I    between atoms: C_18  and  N_19 
REMARK    3  A    between atoms: N_19  and  C_21 
REMARK    4  A    between atoms: C_21  and  C_22 
ROOT
HETATM    1  C   UNK N   1      36.283  12.923  11.528  0.00  0.00     0.141 A 
HETATM    2  N   UNK N   1      35.722  13.914  12.298  0.00  0.00    -0.345 N 
HETATM    3  C   UNK N   1      35.272  15.072  11.740  0.00  0.00     0.113 A 
HETATM    4  C   UNK N   1      35.375  15.293  10.360  0.00  0.00     0.100 A 
HETATM    5  C   UNK N   1      35.968  14.290   9.559  0.00  0.00     0.224 A 
HETATM    6  C   UNK N   1      36.414  13.106  10.143  0.00  0.00     0.150 A 
HETATM    7  C   UNK N   1      36.706  11.656  12.189  0.00  0.00     0.276 C 
HETATM    8  N   UNK N   1      36.815  11.621  13.551  0.00  0.00    -0.314 N 
HETATM    9  C   UNK N   1      36.700  12.895  14.286  0.00  0.00     0.244 C 
HETATM   10  C   UNK N   1      35.531  13.707  13.738  0.00  0.00     0.182 C 
HETATM   11  C   UNK N   1      37.005  10.340  14.236  0.00  0.00     0.088 C 
HETATM   12  C   UNK N   1      36.931  10.453  15.747  0.00  0.00     0.051 C 
HETATM   13  C   UNK N   1      35.999  11.592  16.074  0.00  0.00     0.172 C 
HETATM   14  O   UNK N   1      36.643  12.779  15.698  0.00  0.00    -0.365 OA
HETATM   15  O   UNK N   1      36.885  10.644  11.524  0.00  0.00    -0.266 OA
HETATM   16  O   UNK N   1      36.083  14.433   8.353  0.00  0.00    -0.284 OA
HETATM   17  C   UNK N   1      38.322   9.685  13.849  0.00  0.00     0.032 C 
ENDROOT
BRANCH   4  18
HETATM   18  C   UNK N   1      34.785  16.525   9.762  0.00  0.00     0.257 C 
HETATM   19  N   UNK N   1      33.593  16.437   9.129  0.00  0.00    -0.352 N 
HETATM   20  H   UNK N   1      33.246  15.537   8.936  0.00  0.00     0.163 HD
HETATM   21  O   UNK N   1      35.322  17.612   9.923  0.00  0.00    -0.267 OA
BRANCH  19  22
HETATM   22  C   UNK N   1      32.794  17.561   8.719  0.00  0.00     0.164 C 
BRANCH  22  23
HETATM   23  C   UNK N   1      32.553  17.458   7.240  0.00  0.00    -0.002 A 
HETATM   24  C   UNK N   1      33.632  17.595   6.361  0.00  0.00     0.015 A 
HETATM   25  C   UNK N   1      33.434  17.491   4.979  0.00  0.00     0.043 A 
HETATM   26  C   UNK N   1      32.156  17.238   4.471  0.00  0.00     0.119 A 
HETATM   27  C   UNK N   1      31.074  17.100   5.339  0.00  0.00     0.085 A 
HETATM   28  F   UNK N   1      31.968  17.125   3.135  0.00  0.00    -0.206 F 
HETATM   29  C   UNK N   1      31.261  17.215   6.719  0.00  0.00     0.127 A 
HETATM   30  F   UNK N   1      30.190  17.070   7.539  0.00  0.00    -0.205 F 
ENDBRANCH  22  23
ENDBRANCH  19  22
ENDBRANCH   4  18
BRANCH   6  31
HETATM   31  O   UNK N   1      36.964  12.150   9.368  0.00  0.00    -0.355 OA
HETATM   32  H   UNK N   1      36.434  11.506   8.941  0.00  0.00     0.218 HD
ENDBRANCH   6  31
TORSDOF 4
ENDMDL
MODEL 3
REMARK VINA RESULT:      -8.1      1.672      2.211
REMARK  4 active torsions:
REMARK  status: ('A' for Active; 'I' for Inactive)
REMARK    1  A    between atoms: C_4  and  C_18 
REMARK    2  A    between atoms: C_6  and  O_16 
REMARK       I    between atoms: C_18  and  N_19 
REMARK    3  A    between atoms: N_19  and  C_21 
REMARK    4  A    between atoms: C_21  and  C_22 
ROOT
HETATM    1  C   UNK N   1      34.306  15.752   7.915  0.00  0.00     0.141 A 
HETATM    2  N   UNK N   1      34.945  14.558   7.676  0.00  0.00    -0.345 N 
HETATM    3  C   UNK N   1      35.644  13.924   8.658  0.00  0.00     0.113 A 
HETATM    4  C   UNK N   1      35.741  14.474   9.943  0.00  0.00     0.100 A 
HETATM    5  C   UNK N   1      35.105  15.711  10.196  0.00  0.00     0.224 A 
HETATM    6  C   UNK N   1      34.385  16.344   9.185  0.00  0.00     0.150 A 
HETATM    7  C   UNK N   1      33.510  16.370   6.817  0.00  0.00     0.276 C 
HETATM    8  N   UNK N   1      33.679  15.918   5.538  0.00  0.00    -0.314 N 
HETATM    9  C   UNK N   1      34.783  14.975   5.279  0.00  0.00     0.244 C 
HETATM   10  C   UNK N   1      34.820  13.907   6.367  0.00  0.00     0.182 C 
HETATM   11  C   UNK N   1      32.754  16.346   4.484  0.00  0.00     0.088 C 
HETATM   12  C   UNK N   1      32.971  15.621   3.169  0.00  0.00     0.051 C 
HETATM   13  C   UNK N   1      33.500  14.246   3.488  0.00  0.00     0.172 C 
HETATM   14  O   UNK N   1      34.802  14.403   3.981  0.00  0.00    -0.365 OA
HETATM   15  O   UNK N   1      32.670  17.223   7.070  0.00  0.00    -0.266 OA
HETATM   16  O   UNK N   1      35.160  16.233  11.297  0.00  0.00    -0.284 OA
HETATM   17  C   UNK N   1      32.830  17.845   4.245  0.00  0.00     0.032 C 
ENDROOT
BRANCH   4  18
HETATM   18  C   UNK N   1      36.427  13.710  11.025  0.00  0.00     0.257 C 
HETATM   19  N   UNK N   1      35.680  13.139  11.995  0.00  0.00    -0.352 N 
HETATM   20  H   UNK N   1      34.731  13.394  12.049  0.00  0.00     0.163 HD
HETATM   21  O   UNK N   1      37.635  13.524  10.982  0.00  0.00    -0.267 OA
BRANCH  19  22
HETATM   22  C   UNK N   1      36.168  12.185  12.956  0.00  0.00     0.164 C 
BRANCH  22  23
HETATM   23  C   UNK N   1      35.908  12.723  14.334  0.00  0.00    -0.002 A 
HETATM   24  C   UNK N   1      36.808  13.638  14.891  0.00  0.00     0.015 A 
HETATM   25  C   UNK N   1      36.582  14.162  16.168  0.00  0.00     0.043 A 
HETATM   26  C   UNK N   1      35.447  13.781  16.891  0.00  0.00     0.119 A 
HETATM   27  C   UNK N   1      34.544  12.870  16.345  0.00  0.00     0.085 A 
HETATM   28  F   UNK N   1      35.222  14.298  18.122  0.00  0.00    -0.206 F 
HETATM   29  C   UNK N   1      34.769  12.333  15.075  0.00  0.00     0.127 A 
HETATM   30  F   UNK N   1      33.870  11.453  14.568  0.00  0.00    -0.205 F 
ENDBRANCH  22  23
ENDBRANCH  19  22
ENDBRANCH   4  18
BRANCH   6  31
HETATM   31  O   UNK N   1      33.769  17.515   9.442  0.00  0.00    -0.355 OA
HETATM   32  H   UNK N   1      34.259  18.287   9.646  0.00  0.00     0.218 HD
ENDBRANCH   6  31
TORSDOF 4
ENDMDL
MODEL 4
REMARK VINA RESULT:      -8.1      4.373      8.814
REMARK  4 active torsions:
REMARK  status: ('A' for Active; 'I' for Inactive)
REMARK    1  A    between atoms: C_4  and  C_18 
REMARK    2  A    between atoms: C_6  and  O_16 
REMARK       I    between atoms: C_18  and  N_19 
REMARK    3  A    between atoms: N_19  and  C_21 
REMARK    4  A    between atoms: C_21  and  C_22 
ROOT
HETATM    1  C   UNK N   1      35.506  13.427  12.062  0.00  0.00     0.141 A 
HETATM    2  N   UNK N   1      34.771  12.897  11.029  0.00  0.00    -0.345 N 
HETATM    3  C   UNK N   1      34.233  13.693  10.064  0.00  0.00     0.113 A 
HETATM    4  C   UNK N   1      34.405  15.084  10.100  0.00  0.00     0.100 A 
HETATM    5  C   UNK N   1      35.142  15.644  11.169  0.00  0.00     0.224 A 
HETATM    6  C   UNK N   1      35.696  14.815  12.143  0.00  0.00     0.150 A 
HETATM    7  C   UNK N   1      36.117  12.500  13.056  0.00  0.00     0.276 C 
HETATM    8  N   UNK N   1      35.690  11.201  13.104  0.00  0.00    -0.314 N 
HETATM    9  C   UNK N   1      34.508  10.834  12.302  0.00  0.00     0.244 C 
HETATM   10  C   UNK N   1      34.615  11.442  10.908  0.00  0.00     0.182 C 
HETATM   11  C   UNK N   1      36.425  10.220  13.906  0.00  0.00     0.088 C 
HETATM   12  C   UNK N   1      35.930   8.799  13.713  0.00  0.00     0.051 C 
HETATM   13  C   UNK N   1      35.396   8.689  12.308  0.00  0.00     0.172 C 
HETATM   14  O   UNK N   1      34.218   9.446  12.248  0.00  0.00    -0.365 OA
HETATM   15  O   UNK N   1      37.035  12.880  13.771  0.00  0.00    -0.266 OA
HETATM   16  O   UNK N   1      35.320  16.848  11.247  0.00  0.00    -0.284 OA
HETATM   17  C   UNK N   1      36.388  10.564  15.387  0.00  0.00     0.032 C 
ENDROOT
BRANCH   4  18
HETATM   18  C   UNK N   1      33.891  15.922   8.980  0.00  0.00     0.257 C 
HETATM   19  N   UNK N   1      32.953  16.859   9.242  0.00  0.00    -0.352 N 
HETATM   20  H   UNK N   1      32.520  16.835  10.125  0.00  0.00     0.163 HD
HETATM   21  O   UNK N   1      34.378  15.830   7.861  0.00  0.00    -0.267 OA
BRANCH  19  22
HETATM   22  C   UNK N   1      32.541  17.891   8.328  0.00  0.00     0.164 C 
BRANCH  22  23
HETATM   23  C   UNK N   1      31.108  17.648   7.951  0.00  0.00    -0.002 A 
HETATM   24  C   UNK N   1      30.820  16.826   6.856  0.00  0.00     0.015 A 
HETATM   25  C   UNK N   1      29.492  16.575   6.493  0.00  0.00     0.043 A 
HETATM   26  C   UNK N   1      28.445  17.137   7.230  0.00  0.00     0.119 A 
HETATM   27  C   UNK N   1      28.722  17.958   8.322  0.00  0.00     0.085 A 
HETATM   28  F   UNK N   1      27.160  16.883   6.885  0.00  0.00    -0.206 F 
HETATM   29  C   UNK N   1      30.045  18.222   8.685  0.00  0.00     0.127 A 
HETATM   30  F   UNK N   1      30.283  19.020   9.756  0.00  0.00    -0.205 F 
ENDBRANCH  22  23
ENDBRANCH  19  22
ENDBRANCH   4  18
BRANCH   6  31
HETATM   31  O   UNK N   1      36.411  15.358  13.148  0.00  0.00    -0.355 OA
HETATM   32  H   UNK N   1      36.205  15.176  14.044  0.00  0.00     0.218 HD
ENDBRANCH   6  31
TORSDOF 4
ENDMDL
MODEL 5
REMARK VINA RESULT:      -8.0      4.819      9.711
REMARK  4 active torsions:
REMARK  status: ('A' for Active; 'I' for Inactive)
REMARK    1  A    between atoms: C_4  and  C_18 
REMARK    2  A    between atoms: C_6  and  O_16 
REMARK       I    between atoms: C_18  and  N_19 
REMARK    3  A    between atoms: N_19  and  C_21 
REMARK    4  A    between atoms: C_21  and  C_22 
ROOT
HETATM    1  C   UNK N   1      35.416  14.863  10.801  0.00  0.00     0.141 A 
HETATM    2  N   UNK N   1      35.396  13.943   9.780  0.00  0.00    -0.345 N 
HETATM    3  C   UNK N   1      35.099  14.312   8.503  0.00  0.00     0.113 A 
HETATM    4  C   UNK N   1      34.795  15.644   8.191  0.00  0.00     0.100 A 
HETATM    5  C   UNK N   1      34.792  16.597   9.237  0.00  0.00     0.224 A 
HETATM    6  C   UNK N   1      35.108  16.206  10.536  0.00  0.00     0.150 A 
HETATM    7  C   UNK N   1      35.803  14.409  12.166  0.00  0.00     0.276 C 
HETATM    8  N   UNK N   1      35.827  13.069  12.439  0.00  0.00    -0.314 N 
HETATM    9  C   UNK N   1      35.279  12.148  11.426  0.00  0.00     0.244 C 
HETATM   10  C   UNK N   1      35.771  12.548  10.039  0.00  0.00     0.182 C 
HETATM   11  C   UNK N   1      36.417  12.589  13.692  0.00  0.00     0.088 C 
HETATM   12  C   UNK N   1      36.524  11.078  13.762  0.00  0.00     0.051 C 
HETATM   13  C   UNK N   1      36.702  10.567  12.355  0.00  0.00     0.172 C 
HETATM   14  O   UNK N   1      35.490  10.769  11.681  0.00  0.00    -0.365 OA
HETATM   15  O   UNK N   1      36.159  15.222  13.009  0.00  0.00    -0.266 OA
HETATM   16  O   UNK N   1      34.532  17.769   9.019  0.00  0.00    -0.284 OA
HETATM   17  C   UNK N   1      35.649  13.092  14.904  0.00  0.00     0.032 C 
ENDROOT
BRANCH   4  18
HETATM   18  C   UNK N   1      34.572  16.040   6.771  0.00  0.00     0.257 C 
HETATM   19  N   UNK N   1      33.550  16.875   6.479  0.00  0.00    -0.352 N 
HETATM   20  H   UNK N   1      32.889  17.050   7.186  0.00  0.00     0.163 HD
HETATM   21  O   UNK N   1      35.356  15.692   5.899  0.00  0.00    -0.267 OA
BRANCH  19  22
HETATM   22  C   UNK N   1      33.357  17.527   5.211  0.00  0.00     0.164 C 
BRANCH  22  23
HETATM   23  C   UNK N   1      31.991  17.174   4.697  0.00  0.00    -0.002 A 
HETATM   24  C   UNK N   1      30.898  17.231   5.569  0.00  0.00     0.015 A 
HETATM   25  C   UNK N   1      29.613  16.919   5.110  0.00  0.00     0.043 A 
HETATM   26  C   UNK N   1      29.414  16.557   3.775  0.00  0.00     0.119 A 
HETATM   27  C   UNK N   1      30.496  16.497   2.898  0.00  0.00     0.085 A 
HETATM   28  F   UNK N   1      28.168  16.267   3.329  0.00  0.00    -0.206 F 
HETATM   29  C   UNK N   1      31.784  16.796   3.351  0.00  0.00     0.127 A 
HETATM   30  F   UNK N   1      32.817  16.734   2.474  0.00  0.00    -0.205 F 
ENDBRANCH  22  23
ENDBRANCH  19  22
ENDBRANCH   4  18
BRANCH   6  31
HETATM   31  O   UNK N   1      35.118  17.126  11.521  0.00  0.00    -0.355 OA
HETATM   32  H   UNK N   1      34.494  17.825  11.540  0.00  0.00     0.218 HD
ENDBRANCH   6  31
TORSDOF 4
ENDMDL
MODEL 6
REMARK VINA RESULT:      -8.0      3.274      5.348
REMARK  4 active torsions:
REMARK  status: ('A' for Active; 'I' for Inactive)
REMARK    1  A    between atoms: C_4  and  C_18 
REMARK    2  A    between atoms: C_6  and  O_16 
REMARK       I    between atoms: C_18  and  N_19 
REMARK    3  A    between atoms: N_19  and  C_21 
REMARK    4  A    between atoms: C_21  and  C_22 
ROOT
HETATM    1  C   UNK N   1      32.245  16.822   6.646  0.00  0.00     0.141 A 
HETATM    2  N   UNK N   1      31.919  17.170   7.935  0.00  0.00    -0.345 N 
HETATM    3  C   UNK N   1      32.783  16.953   8.965  0.00  0.00     0.113 A 
HETATM    4  C   UNK N   1      34.032  16.357   8.743  0.00  0.00     0.100 A 
HETATM    5  C   UNK N   1      34.372  15.976   7.425  0.00  0.00     0.224 A 
HETATM    6  C   UNK N   1      33.482  16.214   6.380  0.00  0.00     0.150 A 
HETATM    7  C   UNK N   1      31.281  17.135   5.554  0.00  0.00     0.276 C 
HETATM    8  N   UNK N   1      29.995  17.469   5.878  0.00  0.00    -0.314 N 
HETATM    9  C   UNK N   1      29.574  17.311   7.282  0.00  0.00     0.244 C 
HETATM   10  C   UNK N   1      30.651  17.856   8.213  0.00  0.00     0.182 C 
HETATM   11  C   UNK N   1      29.097  17.999   4.848  0.00  0.00     0.088 C 
HETATM   12  C   UNK N   1      27.771  18.483   5.403  0.00  0.00     0.051 C 
HETATM   13  C   UNK N   1      28.014  18.964   6.811  0.00  0.00     0.172 C 
HETATM   14  O   UNK N   1      28.294  17.836   7.595  0.00  0.00    -0.365 OA
HETATM   15  O   UNK N   1      31.656  17.160   4.389  0.00  0.00    -0.266 OA
HETATM   16  O   UNK N   1      35.446  15.453   7.178  0.00  0.00    -0.284 OA
HETATM   17  C   UNK N   1      28.836  16.979   3.751  0.00  0.00     0.032 C 
ENDROOT
BRANCH   4  18
HETATM   18  C   UNK N   1      34.998  16.223   9.871  0.00  0.00     0.257 C 
HETATM   19  N   UNK N   1      35.322  14.986  10.309  0.00  0.00    -0.352 N 
HETATM   20  H   UNK N   1      34.779  14.232   9.986  0.00  0.00     0.163 HD
HETATM   21  O   UNK N   1      35.561  17.209  10.328  0.00  0.00    -0.267 OA
BRANCH  19  22
HETATM   22  C   UNK N   1      36.403  14.688  11.211  0.00  0.00     0.164 C 
BRANCH  22  23
HETATM   23  C   UNK N   1      35.874  13.820  12.317  0.00  0.00    -0.002 A 
HETATM   24  C   UNK N   1      35.214  12.630  11.994  0.00  0.00     0.015 A 
HETATM   25  C   UNK N   1      34.724  11.799  13.007  0.00  0.00     0.043 A 
HETATM   26  C   UNK N   1      34.900  12.149  14.349  0.00  0.00     0.119 A 
HETATM   27  C   UNK N   1      35.556  13.334  14.681  0.00  0.00     0.085 A 
HETATM   28  F   UNK N   1      34.437  11.338  15.329  0.00  0.00    -0.206 F 
HETATM   29  C   UNK N   1      36.039  14.175  13.676  0.00  0.00     0.127 A 
HETATM   30  F   UNK N   1      36.678  15.318  14.029  0.00  0.00    -0.205 F 
ENDBRANCH  22  23
ENDBRANCH  19  22
ENDBRANCH   4  18
BRANCH   6  31
HETATM   31  O   UNK N   1      33.822  15.860   5.124  0.00  0.00    -0.355 OA
HETATM   32  H   UNK N   1      33.417  15.131   4.698  0.00  0.00     0.218 HD
ENDBRANCH   6  31
TORSDOF 4
ENDMDL
MODEL 7
REMARK VINA RESULT:      -7.9      5.766     10.214
REMARK  4 active torsions:
REMARK  status: ('A' for Active; 'I' for Inactive)
REMARK    1  A    between atoms: C_4  and  C_18 
REMARK    2  A    between atoms: C_6  and  O_16 
REMARK       I    between atoms: C_18  and  N_19 
REMARK    3  A    between atoms: N_19  and  C_21 
REMARK    4  A    between atoms: C_21  and  C_22 
ROOT
HETATM    1  C   UNK N   1      34.700  15.509   8.144  0.00  0.00     0.141 A 
HETATM    2  N   UNK N   1      33.959  15.588   9.299  0.00  0.00    -0.345 N 
HETATM    3  C   UNK N   1      32.783  16.275   9.337  0.00  0.00     0.113 A 
HETATM    4  C   UNK N   1      32.296  16.932   8.199  0.00  0.00     0.100 A 
HETATM    5  C   UNK N   1      33.060  16.875   7.010  0.00  0.00     0.224 A 
HETATM    6  C   UNK N   1      34.255  16.160   6.983  0.00  0.00     0.150 A 
HETATM    7  C   UNK N   1      35.950  14.697   8.150  0.00  0.00     0.276 C 
HETATM    8  N   UNK N   1      36.488  14.313   9.347  0.00  0.00    -0.314 N 
HETATM    9  C   UNK N   1      35.914  14.888  10.578  0.00  0.00     0.244 C 
HETATM   10  C   UNK N   1      34.391  14.865  10.501  0.00  0.00     0.182 C 
HETATM   11  C   UNK N   1      37.576  13.332   9.377  0.00  0.00     0.088 C 
HETATM   12  C   UNK N   1      37.938  12.884  10.780  0.00  0.00     0.051 C 
HETATM   13  C   UNK N   1      36.690  12.965  11.621  0.00  0.00     0.172 C 
HETATM   14  O   UNK N   1      36.387  14.323  11.790  0.00  0.00    -0.365 OA
HETATM   15  O   UNK N   1      36.446  14.323   7.095  0.00  0.00    -0.266 OA
HETATM   16  O   UNK N   1      32.680  17.430   5.993  0.00  0.00    -0.284 OA
HETATM   17  C   UNK N   1      38.824  13.855   8.683  0.00  0.00     0.032 C 
ENDROOT
BRANCH   4  18
HETATM   18  C   UNK N   1      30.959  17.591   8.241  0.00  0.00     0.257 C 
HETATM   19  N   UNK N   1      29.941  17.047   7.538  0.00  0.00    -0.352 N 
HETATM   20  H   UNK N   1      30.161  16.340   6.890  0.00  0.00     0.163 HD
HETATM   21  O   UNK N   1      30.763  18.551   8.973  0.00  0.00    -0.267 OA
BRANCH  19  22
HETATM   22  C   UNK N   1      28.558  17.422   7.667  0.00  0.00     0.164 C 
BRANCH  22  23
HETATM   23  C   UNK N   1      28.176  18.247   6.472  0.00  0.00    -0.002 A 
HETATM   24  C   UNK N   1      28.337  17.709   5.191  0.00  0.00     0.015 A 
HETATM   25  C   UNK N   1      27.976  18.453   4.063  0.00  0.00     0.043 A 
HETATM   26  C   UNK N   1      27.442  19.737   4.211  0.00  0.00     0.119 A 
HETATM   27  C   UNK N   1      27.278  20.283   5.483  0.00  0.00     0.085 A 
HETATM   28  F   UNK N   1      27.081  20.452   3.119  0.00  0.00    -0.206 F 
HETATM   29  C   UNK N   1      27.646  19.550   6.614  0.00  0.00     0.127 A 
HETATM   30  F   UNK N   1      27.469  20.105   7.840  0.00  0.00    -0.205 F 
ENDBRANCH  22  23
ENDBRANCH  19  22
ENDBRANCH   4  18
BRANCH   6  31
HETATM   31  O   UNK N   1      34.966  16.099   5.840  0.00  0.00    -0.355 OA
HETATM   32  H   UNK N   1      34.543  16.041   5.006  0.00  0.00     0.218 HD
ENDBRANCH   6  31
TORSDOF 4
ENDMDL
MODEL 8
REMARK VINA RESULT:      -7.9     18.386     21.079
REMARK  4 active torsions:
REMARK  status: ('A' for Active; 'I' for Inactive)
REMARK    1  A    between atoms: C_4  and  C_18 
REMARK    2  A    between atoms: C_6  and  O_16 
REMARK       I    between atoms: C_18  and  N_19 
REMARK    3  A    between atoms: N_19  and  C_21 
REMARK    4  A    between atoms: C_21  and  C_22 
ROOT
HETATM    1  C   UNK N   1      31.667  21.388  -4.408  0.00  0.00     0.141 A 
HETATM    2  N   UNK N   1      30.667  21.756  -5.278  0.00  0.00    -0.345 N 
HETATM    3  C   UNK N   1      29.600  22.489  -4.856  0.00  0.00     0.113 A 
HETATM    4  C   UNK N   1      29.483  22.885  -3.517  0.00  0.00     0.100 A 
HETATM    5  C   UNK N   1      30.494  22.495  -2.608  0.00  0.00     0.224 A 
HETATM    6  C   UNK N   1      31.585  21.754  -3.056  0.00  0.00     0.150 A 
HETATM    7  C   UNK N   1      32.836  20.633  -4.940  0.00  0.00     0.276 C 
HETATM    8  N   UNK N   1      32.753  20.065  -6.181  0.00  0.00    -0.314 N 
HETATM    9  C   UNK N   1      31.438  20.059  -6.850  0.00  0.00     0.244 C 
HETATM   10  C   UNK N   1      30.774  21.424  -6.703  0.00  0.00     0.182 C 
HETATM   11  C   UNK N   1      33.955  19.519  -6.817  0.00  0.00     0.088 C 
HETATM   12  C   UNK N   1      33.727  19.087  -8.254  0.00  0.00     0.051 C 
HETATM   13  C   UNK N   1      32.648  19.968  -8.829  0.00  0.00     0.172 C 
HETATM   14  O   UNK N   1      31.445  19.621  -8.199  0.00  0.00    -0.365 OA
HETATM   15  O   UNK N   1      33.880  20.584  -4.302  0.00  0.00    -0.266 OA
HETATM   16  O   UNK N   1      30.438  22.813  -1.432  0.00  0.00    -0.284 OA
HETATM   17  C   UNK N   1      34.525  18.349  -6.030  0.00  0.00     0.032 C 
ENDROOT
BRANCH   4  18
HETATM   18  C   UNK N   1      28.357  23.771  -3.103  0.00  0.00     0.257 C 
HETATM   19  N   UNK N   1      28.108  24.888  -3.821  0.00  0.00    -0.352 N 
HETATM   20  H   UNK N   1      28.783  25.165  -4.481  0.00  0.00     0.163 HD
HETATM   21  O   UNK N   1      27.613  23.443  -2.188  0.00  0.00    -0.267 OA
BRANCH  19  22
HETATM   22  C   UNK N   1      26.928  25.702  -3.694  0.00  0.00     0.164 C 
BRANCH  22  23
HETATM   23  C   UNK N   1      27.251  27.086  -4.180  0.00  0.00    -0.002 A 
HETATM   24  C   UNK N   1      28.451  27.307  -4.864  0.00  0.00     0.015 A 
HETATM   25  C   UNK N   1      28.768  28.585  -5.337  0.00  0.00     0.043 A 
HETATM   26  C   UNK N   1      27.881  29.647  -5.137  0.00  0.00     0.119 A 
HETATM   27  C   UNK N   1      26.682  29.437  -4.456  0.00  0.00     0.085 A 
HETATM   28  F   UNK N   1      28.182  30.881  -5.607  0.00  0.00    -0.206 F 
HETATM   29  C   UNK N   1      26.364  28.167  -3.970  0.00  0.00     0.127 A 
HETATM   30  F   UNK N   1      25.188  27.992  -3.316  0.00  0.00    -0.205 F 
ENDBRANCH  22  23
ENDBRANCH  19  22
ENDBRANCH   4  18
BRANCH   6  31
HETATM   31  O   UNK N   1      32.551  21.402  -2.184  0.00  0.00    -0.355 OA
HETATM   32  H   UNK N   1      33.119  20.676  -2.355  0.00  0.00     0.218 HD
ENDBRANCH   6  31
TORSDOF 4
ENDMDL
MODEL 9
REMARK VINA RESULT:      -7.7      4.242      9.020
REMARK  4 active torsions:
REMARK  status: ('A' for Active; 'I' for Inactive)
REMARK    1  A    between atoms: C_4  and  C_18 
REMARK    2  A    between atoms: C_6  and  O_16 
REMARK       I    between atoms: C_18  and  N_19 
REMARK    3  A    between atoms: N_19  and  C_21 
REMARK    4  A    between atoms: C_21  and  C_22 
ROOT
HETATM    1  C   UNK N   1      35.741  13.743  13.273  0.00  0.00     0.141 A 
HETATM    2  N   UNK N   1      35.180  12.790  12.457  0.00  0.00    -0.345 N 
HETATM    3  C   UNK N   1      35.035  13.002  11.120  0.00  0.00     0.113 A 
HETATM    4  C   UNK N   1      35.446  14.207  10.534  0.00  0.00     0.100 A 
HETATM    5  C   UNK N   1      36.006  15.205  11.365  0.00  0.00     0.224 A 
HETATM    6  C   UNK N   1      36.158  14.969  12.730  0.00  0.00     0.150 A 
HETATM    7  C   UNK N   1      35.925  13.431  14.718  0.00  0.00     0.276 C 
HETATM    8  N   UNK N   1      35.269  12.358  15.255  0.00  0.00    -0.314 N 
HETATM    9  C   UNK N   1      34.257  11.681  14.423  0.00  0.00     0.244 C 
HETATM   10  C   UNK N   1      34.794  11.486  13.008  0.00  0.00     0.182 C 
HETATM   11  C   UNK N   1      35.606  11.896  16.604  0.00  0.00     0.088 C 
HETATM   12  C   UNK N   1      34.918  10.598  16.981  0.00  0.00     0.051 C 
HETATM   13  C   UNK N   1      34.712   9.807  15.714  0.00  0.00     0.172 C 
HETATM   14  O   UNK N   1      33.739  10.474  14.958  0.00  0.00    -0.365 OA
HETATM   15  O   UNK N   1      36.707  14.085  15.396  0.00  0.00    -0.266 OA
HETATM   16  O   UNK N   1      36.378  16.271  10.905  0.00  0.00    -0.284 OA
HETATM   17  C   UNK N   1      35.291  12.950  17.654  0.00  0.00     0.032 C 
ENDROOT
BRANCH   4  18
HETATM   18  C   UNK N   1      35.367  14.375   9.054  0.00  0.00     0.257 C 
HETATM   19  N   UNK N   1      34.179  14.695   8.496  0.00  0.00    -0.352 N 
HETATM   20  H   UNK N   1      33.378  14.633   9.063  0.00  0.00     0.163 HD
HETATM   21  O   UNK N   1      36.379  14.319   8.369  0.00  0.00    -0.267 OA
BRANCH  19  22
HETATM   22  C   UNK N   1      33.997  15.119   7.133  0.00  0.00     0.164 C 
BRANCH  22  23
HETATM   23  C   UNK N   1      32.711  15.890   7.042  0.00  0.00    -0.002 A 
HETATM   24  C   UNK N   1      32.123  16.378   8.213  0.00  0.00     0.015 A 
HETATM   25  C   UNK N   1      30.932  17.109   8.153  0.00  0.00     0.043 A 
HETATM   26  C   UNK N   1      30.328  17.365   6.918  0.00  0.00     0.119 A 
HETATM   27  C   UNK N   1      30.906  16.882   5.745  0.00  0.00     0.085 A 
HETATM   28  F   UNK N   1      29.182  18.083   6.859  0.00  0.00    -0.206 F 
HETATM   29  C   UNK N   1      32.089  16.141   5.798  0.00  0.00     0.127 A 
HETATM   30  F   UNK N   1      32.631  15.689   4.639  0.00  0.00    -0.205 F 
ENDBRANCH  22  23
ENDBRANCH  19  22
ENDBRANCH   4  18
BRANCH   6  31
HETATM   31  O   UNK N   1      36.708  15.920  13.511  0.00  0.00    -0.355 OA
HETATM   32  H   UNK N   1      36.621  15.894  14.443  0.00  0.00     0.218 HD
ENDBRANCH   6  31
TORSDOF 4
ENDMDL
