MODEL 1
REMARK VINA RESULT:      -9.2      0.000      0.000
REMARK  8 active torsions:
REMARK  status: ('A' for Active; 'I' for Inactive)
REMARK    1  A    between atoms: N_1  and  C_8 
REMARK    2  A    between atoms: C_8  and  C_9 
REMARK    3  A    between atoms: C_10  and  C_15 
REMARK    4  A    between atoms: C_12  and  N_19 
REMARK       I    between atoms: N_19  and  C_20 
REMARK    5  A    between atoms: C_20  and  C_21 
REMARK    6  A    between atoms: C_24  and  C_29 
REMARK    7  A    between atoms: C_29  and  C_30 
REMARK    8  A    between atoms: C_30  and  C_31 
ROOT
HETATM    1  N   UNK N   1      27.954  18.212   3.899  0.00  0.00    -0.323 N 
HETATM    2  C   UNK N   1      27.505  19.474   4.003  0.00  0.00     0.256 C 
HETATM    3  O   UNK N   1      28.171  20.329   4.590  0.00  0.00    -0.267 OA
HETATM    4  H   UNK N   1      27.695  17.643   3.139  0.00  0.00     0.169 HD
ENDROOT
BRANCH   2   5
HETATM    5  C   UNK N   1      26.090  19.600   3.979  0.00  0.00     0.033 A 
HETATM    6  C   UNK N   1      25.418  18.551   4.538  0.00  0.00     0.037 A 
HETATM    7  C   UNK N   1      24.076  18.410   4.380  0.00  0.00     0.016 A 
HETATM    8  C   UNK N   1      23.342  19.365   3.655  0.00  0.00    -0.044 A 
HETATM    9  C   UNK N   1      24.029  20.421   3.037  0.00  0.00     0.009 A 
HETATM   10  C   UNK N   1      21.859  19.310   3.567  0.00  0.00     0.049 C 
HETATM   11  C   UNK N   1      25.419  20.517   3.170  0.00  0.00     0.017 A 
BRANCH   7  12
HETATM   12  C   UNK N   1      23.557  17.402   5.190  0.00  0.00    -0.114 C 
BRANCH  12  13
HETATM   13  C   UNK N   1      23.014  16.478   5.694  0.00  0.00     0.089 C 
BRANCH  13  14
HETATM   14  C   UNK N   1      23.126  15.288   6.412  0.00  0.00     0.081 A 
HETATM   15  C   UNK N   1      24.124  14.331   6.477  0.00  0.00     0.122 A 
HETATM   16  N   UNK N   1      23.844  13.526   7.546  0.00  0.00    -0.349 N 
HETATM   17  C   UNK N   1      22.708  14.035   8.079  0.00  0.00     0.127 A 
ATOM     18  HN  UNK N   1      24.375  12.718   7.872  1.00  0.00     0.167 HD
HETATM   19  N   UNK N   1      22.271  15.079   7.398  0.00  0.00    -0.239 N 
HETATM   20  C   UNK N   1      22.035  13.625   9.220  0.00  0.00     0.052 A 
HETATM   21  N   UNK N   1      21.202  15.806   7.721  0.00  0.00    -0.303 N 
HETATM   22  C   UNK N   1      20.477  15.462   8.814  0.00  0.00     0.108 A 
ATOM     23  HN  UNK N   1      20.933  16.610   7.155  1.00  0.00     0.186 HD
HETATM   24  C   UNK N   1      20.887  14.360   9.589  0.00  0.00     0.022 A 
ENDBRANCH  13  14
ENDBRANCH  12  13
ENDBRANCH   7  12
ENDBRANCH   2   5
BRANCH   1  25
HETATM   25  C   UNK N   1      28.798  17.728   4.906  0.00  0.00     0.035 A 
HETATM   26  C   UNK N   1      28.493  18.001   6.256  0.00  0.00     0.046 A 
HETATM   27  C   UNK N   1      29.412  17.754   7.257  0.00  0.00     0.058 A 
HETATM   28  C   UNK N   1      30.653  17.208   6.890  0.00  0.00    -0.015 A 
HETATM   29  C   UNK N   1      30.903  16.846   5.557  0.00  0.00     0.012 A 
HETATM   30  C   UNK N   1      29.970  17.092   4.564  0.00  0.00     0.030 A 
BRANCH  27  31
HETATM   31  C   UNK N   1      29.105  18.176   8.675  0.00  0.00     0.418 C 
HETATM   32  F   UNK N   1      27.871  18.798   8.698  0.00  0.00    -0.166 F 
HETATM   33  F   UNK N   1      29.063  17.090   9.538  0.00  0.00    -0.166 F 
HETATM   34  F   UNK N   1      30.069  19.056   9.132  0.00  0.00    -0.166 F 
ENDBRANCH  27  31
BRANCH  28  35
HETATM   35  C   UNK N   1      31.763  17.120   7.880  0.00  0.00     0.311 C 
BRANCH  35  36
HETATM   36  N   UNK N   1      33.126  17.116   7.347  0.00  0.00     0.096 N 
HETATM   37  C   UNK N   1      34.117  17.969   8.031  0.00  0.00     0.303 C 
HETATM   38  C   UNK N   1      34.735  17.318   9.278  0.00  0.00     0.302 C 
HETATM   39  N   UNK N   1      34.056  16.075   9.625  0.00  0.00     0.087 N 
HETATM   40  C   UNK N   1      34.188  15.154   8.503  0.00  0.00     0.302 C 
HETATM   41  C   UNK N   1      34.780  15.497  10.742  0.00  0.00     0.310 C 
HETATM   42  C   UNK N   1      33.549  15.718   7.222  0.00  0.00     0.303 C 
ENDBRANCH  35  36
ENDBRANCH  28  35
ENDBRANCH   1  25
TORSDOF 8
ENDMDL
MODEL 2
REMARK VINA RESULT:      -9.1      1.098      1.701
REMARK  8 active torsions:
REMARK  status: ('A' for Active; 'I' for Inactive)
REMARK    1  A    between atoms: N_1  and  C_8 
REMARK    2  A    between atoms: C_8  and  C_9 
REMARK    3  A    between atoms: C_10  and  C_15 
REMARK    4  A    between atoms: C_12  and  N_19 
REMARK       I    between atoms: N_19  and  C_20 
REMARK    5  A    between atoms: C_20  and  C_21 
REMARK    6  A    between atoms: C_24  and  C_29 
REMARK    7  A    between atoms: C_29  and  C_30 
REMARK    8  A    between atoms: C_30  and  C_31 
ROOT
HETATM    1  N   UNK N   1      27.200  16.529   4.556  0.00  0.00    -0.323 N 
HETATM    2  C   UNK N   1      27.016  17.734   3.991  0.00  0.00     0.256 C 
HETATM    3  O   UNK N   1      27.957  18.522   3.876  0.00  0.00    -0.267 OA
HETATM    4  H   UNK N   1      26.638  15.761   4.306  0.00  0.00     0.169 HD
ENDROOT
BRANCH   2   5
HETATM    5  C   UNK N   1      25.698  18.250   4.121  0.00  0.00     0.033 A 
HETATM    6  C   UNK N   1      24.798  17.378   4.662  0.00  0.00     0.037 A 
HETATM    7  C   UNK N   1      23.464  17.633   4.630  0.00  0.00     0.016 A 
HETATM    8  C   UNK N   1      22.982  18.823   4.058  0.00  0.00    -0.044 A 
HETATM    9  C   UNK N   1      23.894  19.704   3.458  0.00  0.00     0.009 A 
HETATM   10  C   UNK N   1      21.543  19.192   4.117  0.00  0.00     0.049 C 
HETATM   11  C   UNK N   1      25.259  19.396   3.457  0.00  0.00     0.017 A 
BRANCH   7  12
HETATM   12  C   UNK N   1      22.740  16.731   5.408  0.00  0.00    -0.114 C 
BRANCH  12  13
HETATM   13  C   UNK N   1      22.260  16.029   6.231  0.00  0.00     0.089 C 
BRANCH  13  14
HETATM   14  C   UNK N   1      21.488  15.919   7.387  0.00  0.00     0.081 A 
HETATM   15  C   UNK N   1      20.342  16.573   7.807  0.00  0.00     0.122 A 
HETATM   16  N   UNK N   1      19.849  15.881   8.878  0.00  0.00    -0.349 N 
HETATM   17  C   UNK N   1      20.703  14.844   9.046  0.00  0.00     0.127 A 
ATOM     18  HN  UNK N   1      19.018  16.097   9.429  1.00  0.00     0.167 HD
HETATM   19  N   UNK N   1      21.688  14.870   8.166  0.00  0.00    -0.239 N 
HETATM   20  C   UNK N   1      20.622  13.802   9.959  0.00  0.00     0.052 A 
HETATM   21  N   UNK N   1      22.646  13.950   8.068  0.00  0.00    -0.303 N 
HETATM   22  C   UNK N   1      22.649  12.906   8.934  0.00  0.00     0.108 A 
ATOM     23  HN  UNK N   1      23.368  14.029   7.352  1.00  0.00     0.186 HD
HETATM   24  C   UNK N   1      21.627  12.814   9.898  0.00  0.00     0.022 A 
ENDBRANCH  13  14
ENDBRANCH  12  13
ENDBRANCH   7  12
ENDBRANCH   2   5
BRANCH   1  25
HETATM   25  C   UNK N   1      28.214  16.398   5.514  0.00  0.00     0.035 A 
HETATM   26  C   UNK N   1      28.121  17.119   6.723  0.00  0.00     0.046 A 
HETATM   27  C   UNK N   1      29.199  17.207   7.582  0.00  0.00     0.058 A 
HETATM   28  C   UNK N   1      30.382  16.544   7.222  0.00  0.00    -0.015 A 
HETATM   29  C   UNK N   1      30.426  15.746   6.068  0.00  0.00     0.012 A 
HETATM   30  C   UNK N   1      29.337  15.660   5.219  0.00  0.00     0.030 A 
BRANCH  27  31
HETATM   31  C   UNK N   1      29.110  18.091   8.805  0.00  0.00     0.418 C 
HETATM   32  F   UNK N   1      27.856  18.671   8.845  0.00  0.00    -0.166 F 
HETATM   33  F   UNK N   1      29.297  17.371   9.976  0.00  0.00    -0.166 F 
HETATM   34  F   UNK N   1      30.071  19.084   8.748  0.00  0.00    -0.166 F 
ENDBRANCH  27  31
BRANCH  28  35
HETATM   35  C   UNK N   1      31.641  16.774   7.987  0.00  0.00     0.311 C 
BRANCH  35  36
HETATM   36  N   UNK N   1      32.887  16.793   7.219  0.00  0.00     0.096 N 
HETATM   37  C   UNK N   1      33.759  17.972   7.384  0.00  0.00     0.303 C 
HETATM   38  C   UNK N   1      34.667  17.899   8.622  0.00  0.00     0.302 C 
HETATM   39  N   UNK N   1      34.322  16.767   9.473  0.00  0.00     0.087 N 
HETATM   40  C   UNK N   1      34.491  15.545   8.698  0.00  0.00     0.302 C 
HETATM   41  C   UNK N   1      35.298  16.733  10.546  0.00  0.00     0.310 C 
HETATM   42  C   UNK N   1      33.576  15.522   7.460  0.00  0.00     0.303 C 
ENDBRANCH  35  36
ENDBRANCH  28  35
ENDBRANCH   1  25
TORSDOF 8
ENDMDL
MODEL 3
REMARK VINA RESULT:      -9.0      1.987      2.512
REMARK  8 active torsions:
REMARK  status: ('A' for Active; 'I' for Inactive)
REMARK    1  A    between atoms: N_1  and  C_8 
REMARK    2  A    between atoms: C_8  and  C_9 
REMARK    3  A    between atoms: C_10  and  C_15 
REMARK    4  A    between atoms: C_12  and  N_19 
REMARK       I    between atoms: N_19  and  C_20 
REMARK    5  A    between atoms: C_20  and  C_21 
REMARK    6  A    between atoms: C_24  and  C_29 
REMARK    7  A    between atoms: C_29  and  C_30 
REMARK    8  A    between atoms: C_30  and  C_31 
ROOT
HETATM    1  N   UNK N   1      28.143  18.218   3.849  0.00  0.00    -0.323 N 
HETATM    2  C   UNK N   1      27.544  19.407   4.026  0.00  0.00     0.256 C 
HETATM    3  O   UNK N   1      28.137  20.327   4.594  0.00  0.00    -0.267 OA
HETATM    4  H   UNK N   1      27.905  17.639   3.089  0.00  0.00     0.169 HD
ENDROOT
BRANCH   2   5
HETATM    5  C   UNK N   1      26.127  19.347   4.106  0.00  0.00     0.033 A 
HETATM    6  C   UNK N   1      25.635  18.172   4.595  0.00  0.00     0.037 A 
HETATM    7  C   UNK N   1      24.313  17.871   4.509  0.00  0.00     0.016 A 
HETATM    8  C   UNK N   1      23.413  18.785   3.933  0.00  0.00    -0.044 A 
HETATM    9  C   UNK N   1      23.914  19.976   3.386  0.00  0.00     0.009 A 
HETATM   10  C   UNK N   1      21.946  18.544   3.935  0.00  0.00     0.049 C 
HETATM   11  C   UNK N   1      25.287  20.241   3.439  0.00  0.00     0.017 A 
BRANCH   7  12
HETATM   12  C   UNK N   1      23.987  16.732   5.241  0.00  0.00    -0.114 C 
BRANCH  12  13
HETATM   13  C   UNK N   1      23.624  15.906   6.009  0.00  0.00     0.089 C 
BRANCH  13  14
HETATM   14  C   UNK N   1      23.935  14.776   6.764  0.00  0.00     0.081 A 
HETATM   15  C   UNK N   1      25.103  14.047   6.912  0.00  0.00     0.122 A 
HETATM   16  N   UNK N   1      24.930  13.217   7.984  0.00  0.00    -0.349 N 
HETATM   17  C   UNK N   1      23.684  13.488   8.438  0.00  0.00     0.127 A 
ATOM     18  HN  UNK N   1      25.595  12.541   8.361  1.00  0.00     0.167 HD
HETATM   19  N   UNK N   1      23.084  14.409   7.706  0.00  0.00    -0.239 N 
HETATM   20  C   UNK N   1      23.041  12.965   9.550  0.00  0.00     0.052 A 
HETATM   21  N   UNK N   1      21.870  14.904   7.949  0.00  0.00    -0.303 N 
HETATM   22  C   UNK N   1      21.166  14.434   9.008  0.00  0.00     0.108 A 
ATOM     23  HN  UNK N   1      21.476  15.627   7.347  1.00  0.00     0.186 HD
HETATM   24  C   UNK N   1      21.746  13.452   9.834  0.00  0.00     0.022 A 
ENDBRANCH  13  14
ENDBRANCH  12  13
ENDBRANCH   7  12
ENDBRANCH   2   5
BRANCH   1  25
HETATM   25  C   UNK N   1      29.114  17.823   4.777  0.00  0.00     0.035 A 
HETATM   26  C   UNK N   1      30.471  17.803   4.392  0.00  0.00     0.046 A 
HETATM   27  C   UNK N   1      31.426  17.199   5.187  0.00  0.00     0.058 A 
HETATM   28  C   UNK N   1      31.006  16.621   6.396  0.00  0.00    -0.015 A 
HETATM   29  C   UNK N   1      29.671  16.740   6.814  0.00  0.00     0.012 A 
HETATM   30  C   UNK N   1      28.725  17.353   6.011  0.00  0.00     0.030 A 
BRANCH  27  31
HETATM   31  C   UNK N   1      32.848  17.080   4.689  0.00  0.00     0.418 C 
HETATM   32  F   UNK N   1      33.668  17.842   5.500  0.00  0.00    -0.166 F 
HETATM   33  F   UNK N   1      33.298  15.768   4.722  0.00  0.00    -0.166 F 
HETATM   34  F   UNK N   1      32.938  17.539   3.387  0.00  0.00    -0.166 F 
ENDBRANCH  27  31
BRANCH  28  35
HETATM   35  C   UNK N   1      31.936  15.770   7.191  0.00  0.00     0.311 C 
BRANCH  35  36
HETATM   36  N   UNK N   1      32.117  16.126   8.599  0.00  0.00     0.096 N 
HETATM   37  C   UNK N   1      32.278  15.015   9.556  0.00  0.00     0.303 C 
HETATM   38  C   UNK N   1      33.714  14.473   9.636  0.00  0.00     0.302 C 
HETATM   39  N   UNK N   1      34.561  15.044   8.597  0.00  0.00     0.087 N 
HETATM   40  C   UNK N   1      34.597  16.489   8.782  0.00  0.00     0.302 C 
HETATM   41  C   UNK N   1      35.905  14.548   8.827  0.00  0.00     0.310 C 
HETATM   42  C   UNK N   1      33.197  17.116   8.670  0.00  0.00     0.303 C 
ENDBRANCH  35  36
ENDBRANCH  28  35
ENDBRANCH   1  25
TORSDOF 8
ENDMDL
MODEL 4
REMARK VINA RESULT:      -8.9      3.467      4.554
REMARK  8 active torsions:
REMARK  status: ('A' for Active; 'I' for Inactive)
REMARK    1  A    between atoms: N_1  and  C_8 
REMARK    2  A    between atoms: C_8  and  C_9 
REMARK    3  A    between atoms: C_10  and  C_15 
REMARK    4  A    between atoms: C_12  and  N_19 
REMARK       I    between atoms: N_19  and  C_20 
REMARK    5  A    between atoms: C_20  and  C_21 
REMARK    6  A    between atoms: C_24  and  C_29 
REMARK    7  A    between atoms: C_29  and  C_30 
REMARK    8  A    between atoms: C_30  and  C_31 
ROOT
HETATM    1  N   UNK N   1      28.417  18.044   7.381  0.00  0.00    -0.323 N 
HETATM    2  C   UNK N   1      27.619  17.484   6.456  0.00  0.00     0.256 C 
HETATM    3  O   UNK N   1      27.811  16.324   6.084  0.00  0.00    -0.267 OA
HETATM    4  H   UNK N   1      28.080  18.749   7.980  0.00  0.00     0.169 HD
ENDROOT
BRANCH   2   5
HETATM    5  C   UNK N   1      27.022  18.407   5.556  0.00  0.00     0.033 A 
HETATM    6  C   UNK N   1      25.713  18.152   5.265  0.00  0.00     0.037 A 
HETATM    7  C   UNK N   1      25.080  18.792   4.249  0.00  0.00     0.016 A 
HETATM    8  C   UNK N   1      25.757  19.759   3.487  0.00  0.00    -0.044 A 
HETATM    9  C   UNK N   1      27.116  19.996   3.746  0.00  0.00     0.009 A 
HETATM   10  C   UNK N   1      25.062  20.568   2.451  0.00  0.00     0.049 C 
HETATM   11  C   UNK N   1      27.762  19.287   4.764  0.00  0.00     0.017 A 
BRANCH   7  12
HETATM   12  C   UNK N   1      23.708  18.544   4.248  0.00  0.00    -0.114 C 
BRANCH  12  13
HETATM   13  C   UNK N   1      22.539  18.471   4.075  0.00  0.00     0.089 C 
BRANCH  13  14
HETATM   14  C   UNK N   1      21.468  18.565   3.188  0.00  0.00     0.081 A 
HETATM   15  C   UNK N   1      20.810  19.650   2.634  0.00  0.00     0.122 A 
HETATM   16  N   UNK N   1      20.028  19.175   1.618  0.00  0.00    -0.349 N 
HETATM   17  C   UNK N   1      20.256  17.841   1.597  0.00  0.00     0.127 A 
ATOM     18  HN  UNK N   1      19.409  19.708   1.008  1.00  0.00     0.167 HD
HETATM   19  N   UNK N   1      21.105  17.472   2.539  0.00  0.00    -0.239 N 
HETATM   20  C   UNK N   1      19.758  16.897   0.711  0.00  0.00     0.052 A 
HETATM   21  N   UNK N   1      21.547  16.228   2.722  0.00  0.00    -0.303 N 
HETATM   22  C   UNK N   1      21.096  15.242   1.909  0.00  0.00     0.108 A 
ATOM     23  HN  UNK N   1      22.216  16.020   3.464  1.00  0.00     0.186 HD
HETATM   24  C   UNK N   1      20.189  15.564   0.880  0.00  0.00     0.022 A 
ENDBRANCH  13  14
ENDBRANCH  12  13
ENDBRANCH   7  12
ENDBRANCH   2   5
BRANCH   1  25
HETATM   25  C   UNK N   1      29.741  17.598   7.466  0.00  0.00     0.035 A 
HETATM   26  C   UNK N   1      30.574  17.680   6.331  0.00  0.00     0.046 A 
HETATM   27  C   UNK N   1      31.797  17.040   6.299  0.00  0.00     0.058 A 
HETATM   28  C   UNK N   1      32.192  16.318   7.436  0.00  0.00    -0.015 A 
HETATM   29  C   UNK N   1      31.400  16.331   8.595  0.00  0.00     0.012 A 
HETATM   30  C   UNK N   1      30.179  16.982   8.617  0.00  0.00     0.030 A 
BRANCH  27  31
HETATM   31  C   UNK N   1      32.608  17.040   5.023  0.00  0.00     0.418 C 
HETATM   32  F   UNK N   1      32.810  15.732   4.623  0.00  0.00    -0.166 F 
HETATM   33  F   UNK N   1      31.959  17.715   3.999  0.00  0.00    -0.166 F 
HETATM   34  F   UNK N   1      33.833  17.647   5.235  0.00  0.00    -0.166 F 
ENDBRANCH  27  31
BRANCH  28  35
HETATM   35  C   UNK N   1      33.388  15.430   7.392  0.00  0.00     0.311 C 
BRANCH  35  36
HETATM   36  N   UNK N   1      34.683  16.050   7.678  0.00  0.00     0.096 N 
HETATM   37  C   UNK N   1      34.713  17.085   8.729  0.00  0.00     0.303 C 
HETATM   38  C   UNK N   1      34.809  16.516  10.153  0.00  0.00     0.302 C 
HETATM   39  N   UNK N   1      34.647  15.068  10.163  0.00  0.00     0.087 N 
HETATM   40  C   UNK N   1      35.710  14.485   9.354  0.00  0.00     0.302 C 
HETATM   41  C   UNK N   1      34.858  14.629  11.530  0.00  0.00     0.310 C 
HETATM   42  C   UNK N   1      35.652  14.972   7.896  0.00  0.00     0.303 C 
ENDBRANCH  35  36
ENDBRANCH  28  35
ENDBRANCH   1  25
TORSDOF 8
ENDMDL
MODEL 5
REMARK VINA RESULT:      -8.9      3.180     10.788
REMARK  8 active torsions:
REMARK  status: ('A' for Active; 'I' for Inactive)
REMARK    1  A    between atoms: N_1  and  C_8 
REMARK    2  A    between atoms: C_8  and  C_9 
REMARK    3  A    between atoms: C_10  and  C_15 
REMARK    4  A    between atoms: C_12  and  N_19 
REMARK       I    between atoms: N_19  and  C_20 
REMARK    5  A    between atoms: C_20  and  C_21 
REMARK    6  A    between atoms: C_24  and  C_29 
REMARK    7  A    between atoms: C_29  and  C_30 
REMARK    8  A    between atoms: C_30  and  C_31 
ROOT
HETATM    1  N   UNK N   1      33.125  16.870   8.453  0.00  0.00    -0.323 N 
HETATM    2  C   UNK N   1      34.291  16.894   7.786  0.00  0.00     0.256 C 
HETATM    3  O   UNK N   1      34.454  17.665   6.838  0.00  0.00    -0.267 OA
HETATM    4  H   UNK N   1      33.089  16.611   9.401  0.00  0.00     0.169 HD
ENDROOT
BRANCH   2   5
HETATM    5  C   UNK N   1      35.007  15.666   7.807  0.00  0.00     0.033 A 
HETATM    6  C   UNK N   1      35.475  15.303   9.037  0.00  0.00     0.037 A 
HETATM    7  C   UNK N   1      36.372  14.293   9.178  0.00  0.00     0.016 A 
HETATM    8  C   UNK N   1      36.818  13.576   8.054  0.00  0.00    -0.044 A 
HETATM    9  C   UNK N   1      36.378  13.971   6.781  0.00  0.00     0.009 A 
HETATM   10  C   UNK N   1      37.700  12.387   8.184  0.00  0.00     0.049 C 
HETATM   11  C   UNK N   1      35.495  15.049   6.655  0.00  0.00     0.017 A 
BRANCH   7  12
HETATM   12  C   UNK N   1      36.565  13.948  10.515  0.00  0.00    -0.114 C 
BRANCH  12  13
HETATM   13  C   UNK N   1      36.762  13.451  11.571  0.00  0.00     0.089 C 
BRANCH  13  14
HETATM   14  C   UNK N   1      36.358  13.289  12.896  0.00  0.00     0.081 A 
HETATM   15  C   UNK N   1      36.472  14.104  14.010  0.00  0.00     0.122 A 
HETATM   16  N   UNK N   1      35.658  13.584  14.977  0.00  0.00    -0.349 N 
HETATM   17  C   UNK N   1      35.086  12.498  14.406  0.00  0.00     0.127 A 
ATOM     18  HN  UNK N   1      35.511  13.937  15.923  1.00  0.00     0.167 HD
HETATM   19  N   UNK N   1      35.510  12.313  13.169  0.00  0.00    -0.239 N 
HETATM   20  C   UNK N   1      34.127  11.650  14.939  0.00  0.00     0.052 A 
HETATM   21  N   UNK N   1      35.082  11.350  12.352  0.00  0.00    -0.303 N 
HETATM   22  C   UNK N   1      34.156  10.468  12.803  0.00  0.00     0.108 A 
ATOM     23  HN  UNK N   1      35.445  11.278  11.402  1.00  0.00     0.186 HD
HETATM   24  C   UNK N   1      33.658  10.607  14.112  0.00  0.00     0.022 A 
ENDBRANCH  13  14
ENDBRANCH  12  13
ENDBRANCH   7  12
ENDBRANCH   2   5
BRANCH   1  25
HETATM   25  C   UNK N   1      31.961  17.222   7.758  0.00  0.00     0.035 A 
HETATM   26  C   UNK N   1      30.878  17.787   8.463  0.00  0.00     0.046 A 
HETATM   27  C   UNK N   1      29.638  17.925   7.870  0.00  0.00     0.058 A 
HETATM   28  C   UNK N   1      29.495  17.500   6.540  0.00  0.00    -0.015 A 
HETATM   29  C   UNK N   1      30.606  17.036   5.819  0.00  0.00     0.012 A 
HETATM   30  C   UNK N   1      31.845  16.909   6.422  0.00  0.00     0.030 A 
BRANCH  27  31
HETATM   31  C   UNK N   1      28.467  18.415   8.691  0.00  0.00     0.418 C 
HETATM   32  F   UNK N   1      28.938  18.886   9.901  0.00  0.00    -0.166 F 
HETATM   33  F   UNK N   1      27.787  19.444   8.055  0.00  0.00    -0.166 F 
HETATM   34  F   UNK N   1      27.577  17.381   8.918  0.00  0.00    -0.166 F 
ENDBRANCH  27  31
BRANCH  28  35
HETATM   35  C   UNK N   1      28.145  17.418   5.913  0.00  0.00     0.311 C 
BRANCH  35  36
HETATM   36  N   UNK N   1      28.017  17.928   4.547  0.00  0.00     0.096 N 
HETATM   37  C   UNK N   1      27.222  17.123   3.602  0.00  0.00     0.303 C 
HETATM   38  C   UNK N   1      25.709  17.368   3.703  0.00  0.00     0.302 C 
HETATM   39  N   UNK N   1      25.376  18.198   4.854  0.00  0.00     0.087 N 
HETATM   40  C   UNK N   1      26.048  19.483   4.698  0.00  0.00     0.302 C 
HETATM   41  C   UNK N   1      23.949  18.451   4.794  0.00  0.00     0.310 C 
HETATM   42  C   UNK N   1      27.577  19.324   4.636  0.00  0.00     0.303 C 
ENDBRANCH  35  36
ENDBRANCH  28  35
ENDBRANCH   1  25
TORSDOF 8
ENDMDL
MODEL 6
REMARK VINA RESULT:      -8.8      3.971     10.739
REMARK  8 active torsions:
REMARK  status: ('A' for Active; 'I' for Inactive)
REMARK    1  A    between atoms: N_1  and  C_8 
REMARK    2  A    between atoms: C_8  and  C_9 
REMARK    3  A    between atoms: C_10  and  C_15 
REMARK    4  A    between atoms: C_12  and  N_19 
REMARK       I    between atoms: N_19  and  C_20 
REMARK    5  A    between atoms: C_20  and  C_21 
REMARK    6  A    between atoms: C_24  and  C_29 
REMARK    7  A    between atoms: C_29  and  C_30 
REMARK    8  A    between atoms: C_30  and  C_31 
ROOT
HETATM    1  N   UNK N   1      32.491  17.061   9.045  0.00  0.00    -0.323 N 
HETATM    2  C   UNK N   1      33.509  17.196   8.179  0.00  0.00     0.256 C 
HETATM    3  O   UNK N   1      33.423  17.979   7.230  0.00  0.00    -0.267 OA
HETATM    4  H   UNK N   1      32.654  16.800   9.980  0.00  0.00     0.169 HD
ENDROOT
BRANCH   2   5
HETATM    5  C   UNK N   1      34.329  16.043   8.048  0.00  0.00     0.033 A 
HETATM    6  C   UNK N   1      34.817  15.557   9.227  0.00  0.00     0.037 A 
HETATM    7  C   UNK N   1      35.797  14.617   9.249  0.00  0.00     0.016 A 
HETATM    8  C   UNK N   1      36.314  14.101   8.047  0.00  0.00    -0.044 A 
HETATM    9  C   UNK N   1      35.853  14.627   6.831  0.00  0.00     0.009 A 
HETATM   10  C   UNK N   1      37.296  12.985   8.033  0.00  0.00     0.049 C 
HETATM   11  C   UNK N   1      34.880  15.632   6.833  0.00  0.00     0.017 A 
BRANCH   7  12
HETATM   12  C   UNK N   1      36.007  14.110  10.530  0.00  0.00    -0.114 C 
BRANCH  12  13
HETATM   13  C   UNK N   1      36.325  13.540  11.518  0.00  0.00     0.089 C 
BRANCH  13  14
HETATM   14  C   UNK N   1      36.150  13.365  12.890  0.00  0.00     0.081 A 
HETATM   15  C   UNK N   1      36.450  14.169  13.976  0.00  0.00     0.122 A 
HETATM   16  N   UNK N   1      35.810  13.638  15.062  0.00  0.00    -0.349 N 
HETATM   17  C   UNK N   1      35.151  12.557  14.585  0.00  0.00     0.127 A 
ATOM     18  HN  UNK N   1      35.825  13.982  16.023  1.00  0.00     0.167 HD
HETATM   19  N   UNK N   1      35.361  12.384  13.292  0.00  0.00    -0.239 N 
HETATM   20  C   UNK N   1      34.297  11.701  15.264  0.00  0.00     0.052 A 
HETATM   21  N   UNK N   1      34.802  11.428  12.551  0.00  0.00    -0.303 N 
HETATM   22  C   UNK N   1      33.966  10.539  13.142  0.00  0.00     0.108 A 
ATOM     23  HN  UNK N   1      35.000  11.365  11.552  1.00  0.00     0.186 HD
HETATM   24  C   UNK N   1      33.696  10.665  14.518  0.00  0.00     0.022 A 
ENDBRANCH  13  14
ENDBRANCH  12  13
ENDBRANCH   7  12
ENDBRANCH   2   5
BRANCH   1  25
HETATM   25  C   UNK N   1      31.192  17.299   8.580  0.00  0.00     0.035 A 
HETATM   26  C   UNK N   1      30.671  16.496   7.543  0.00  0.00     0.046 A 
HETATM   27  C   UNK N   1      29.501  16.844   6.896  0.00  0.00     0.058 A 
HETATM   28  C   UNK N   1      28.842  18.011   7.311  0.00  0.00    -0.015 A 
HETATM   29  C   UNK N   1      29.317  18.743   8.411  0.00  0.00     0.012 A 
HETATM   30  C   UNK N   1      30.486  18.380   9.056  0.00  0.00     0.030 A 
BRANCH  27  31
HETATM   31  C   UNK N   1      29.036  16.036   5.706  0.00  0.00     0.418 C 
HETATM   32  F   UNK N   1      27.705  15.710   5.883  0.00  0.00    -0.166 F 
HETATM   33  F   UNK N   1      29.159  16.746   4.521  0.00  0.00    -0.166 F 
HETATM   34  F   UNK N   1      29.780  14.875   5.597  0.00  0.00    -0.166 F 
ENDBRANCH  27  31
BRANCH  28  35
HETATM   35  C   UNK N   1      27.703  18.560   6.520  0.00  0.00     0.311 C 
BRANCH  35  36
HETATM   36  N   UNK N   1      27.911  19.857   5.875  0.00  0.00     0.096 N 
HETATM   37  C   UNK N   1      28.096  19.857   4.412  0.00  0.00     0.303 C 
HETATM   38  C   UNK N   1      26.778  19.814   3.623  0.00  0.00     0.302 C 
HETATM   39  N   UNK N   1      25.637  19.580   4.499  0.00  0.00     0.087 N 
HETATM   40  C   UNK N   1      25.570  20.672   5.462  0.00  0.00     0.302 C 
HETATM   41  C   UNK N   1      24.447  19.662   3.673  0.00  0.00     0.310 C 
HETATM   42  C   UNK N   1      26.841  20.752   6.326  0.00  0.00     0.303 C 
ENDBRANCH  35  36
ENDBRANCH  28  35
ENDBRANCH   1  25
TORSDOF 8
ENDMDL
MODEL 7
REMARK VINA RESULT:      -8.8      3.616     11.440
REMARK  8 active torsions:
REMARK  status: ('A' for Active; 'I' for Inactive)
REMARK    1  A    between atoms: N_1  and  C_8 
REMARK    2  A    between atoms: C_8  and  C_9 
REMARK    3  A    between atoms: C_10  and  C_15 
REMARK    4  A    between atoms: C_12  and  N_19 
REMARK       I    between atoms: N_19  and  C_20 
REMARK    5  A    between atoms: C_20  and  C_21 
REMARK    6  A    between atoms: C_24  and  C_29 
REMARK    7  A    between atoms: C_29  and  C_30 
REMARK    8  A    between atoms: C_30  and  C_31 
ROOT
HETATM    1  N   UNK N   1      32.961  16.144   9.214  0.00  0.00    -0.323 N 
HETATM    2  C   UNK N   1      34.246  16.405   8.921  0.00  0.00     0.256 C 
HETATM    3  O   UNK N   1      34.543  17.377   8.222  0.00  0.00    -0.267 OA
HETATM    4  H   UNK N   1      32.716  15.680  10.047  0.00  0.00     0.169 HD
ENDROOT
BRANCH   2   5
HETATM    5  C   UNK N   1      35.092  15.264   8.909  0.00  0.00     0.033 A 
HETATM    6  C   UNK N   1      35.563  14.893  10.135  0.00  0.00     0.037 A 
HETATM    7  C   UNK N   1      36.561  13.981  10.259  0.00  0.00     0.016 A 
HETATM    8  C   UNK N   1      37.116  13.374   9.119  0.00  0.00    -0.044 A 
HETATM    9  C   UNK N   1      36.671  13.781   7.852  0.00  0.00     0.009 A 
HETATM   10  C   UNK N   1      38.120  12.283   9.223  0.00  0.00     0.049 C 
HETATM   11  C   UNK N   1      35.678  14.761   7.746  0.00  0.00     0.017 A 
BRANCH   7  12
HETATM   12  C   UNK N   1      36.753  13.592  11.584  0.00  0.00    -0.114 C 
BRANCH  12  13
HETATM   13  C   UNK N   1      36.758  13.409  12.754  0.00  0.00     0.089 C 
BRANCH  13  14
HETATM   14  C   UNK N   1      36.024  13.269  13.931  0.00  0.00     0.081 A 
HETATM   15  C   UNK N   1      35.147  12.292  14.371  0.00  0.00     0.122 A 
HETATM   16  N   UNK N   1      34.938  12.505  15.705  0.00  0.00    -0.349 N 
HETATM   17  C   UNK N   1      35.699  13.583  16.010  0.00  0.00     0.127 A 
ATOM     18  HN  UNK N   1      34.340  11.970  16.334  1.00  0.00     0.167 HD
HETATM   19  N   UNK N   1      36.339  14.048  14.952  0.00  0.00    -0.239 N 
HETATM   20  C   UNK N   1      35.896  14.174  17.249  0.00  0.00     0.052 A 
HETATM   21  N   UNK N   1      37.193  15.070  14.967  0.00  0.00    -0.303 N 
HETATM   22  C   UNK N   1      37.429  15.715  16.137  0.00  0.00     0.108 A 
ATOM     23  HN  UNK N   1      37.663  15.365  14.111  1.00  0.00     0.186 HD
HETATM   24  C   UNK N   1      36.782  15.271  17.306  0.00  0.00     0.022 A 
ENDBRANCH  13  14
ENDBRANCH  12  13
ENDBRANCH   7  12
ENDBRANCH   2   5
BRANCH   1  25
HETATM   25  C   UNK N   1      31.980  16.547   8.300  0.00  0.00     0.035 A 
HETATM   26  C   UNK N   1      30.941  17.398   8.730  0.00  0.00     0.046 A 
HETATM   27  C   UNK N   1      29.834  17.625   7.937  0.00  0.00     0.058 A 
HETATM   28  C   UNK N   1      29.783  16.995   6.683  0.00  0.00    -0.015 A 
HETATM   29  C   UNK N   1      30.870  16.234   6.226  0.00  0.00     0.012 A 
HETATM   30  C   UNK N   1      31.977  16.020   7.028  0.00  0.00     0.030 A 
BRANCH  27  31
HETATM   31  C   UNK N   1      28.680  18.438   8.477  0.00  0.00     0.418 C 
HETATM   32  F   UNK N   1      27.595  17.603   8.663  0.00  0.00    -0.166 F 
HETATM   33  F   UNK N   1      28.991  19.028   9.694  0.00  0.00    -0.166 F 
HETATM   34  F   UNK N   1      28.339  19.438   7.584  0.00  0.00    -0.166 F 
ENDBRANCH  27  31
BRANCH  28  35
HETATM   35  C   UNK N   1      28.531  17.019   5.874  0.00  0.00     0.311 C 
BRANCH  35  36
HETATM   36  N   UNK N   1      28.628  17.573   4.523  0.00  0.00     0.096 N 
HETATM   37  C   UNK N   1      28.636  16.613   3.403  0.00  0.00     0.303 C 
HETATM   38  C   UNK N   1      27.234  16.148   2.979  0.00  0.00     0.302 C 
HETATM   39  N   UNK N   1      26.213  16.606   3.913  0.00  0.00     0.087 N 
HETATM   40  C   UNK N   1      26.235  18.064   3.932  0.00  0.00     0.302 C 
HETATM   41  C   UNK N   1      24.930  16.204   3.365  0.00  0.00     0.310 C 
HETATM   42  C   UNK N   1      27.598  18.608   4.394  0.00  0.00     0.303 C 
ENDBRANCH  35  36
ENDBRANCH  28  35
ENDBRANCH   1  25
TORSDOF 8
ENDMDL
MODEL 8
REMARK VINA RESULT:      -8.7      3.987      7.880
REMARK  8 active torsions:
REMARK  status: ('A' for Active; 'I' for Inactive)
REMARK    1  A    between atoms: N_1  and  C_8 
REMARK    2  A    between atoms: C_8  and  C_9 
REMARK    3  A    between atoms: C_10  and  C_15 
REMARK    4  A    between atoms: C_12  and  N_19 
REMARK       I    between atoms: N_19  and  C_20 
REMARK    5  A    between atoms: C_20  and  C_21 
REMARK    6  A    between atoms: C_24  and  C_29 
REMARK    7  A    between atoms: C_29  and  C_30 
REMARK    8  A    between atoms: C_30  and  C_31 
ROOT
HETATM    1  N   UNK N   1      34.174  17.451   8.928  0.00  0.00    -0.323 N 
HETATM    2  C   UNK N   1      32.976  17.055   8.465  0.00  0.00     0.256 C 
HETATM    3  O   UNK N   1      32.340  16.176   9.050  0.00  0.00    -0.267 OA
HETATM    4  H   UNK N   1      34.501  18.365   8.770  0.00  0.00     0.169 HD
ENDROOT
BRANCH   2   5
HETATM    5  C   UNK N   1      32.803  17.216   7.064  0.00  0.00     0.033 A 
HETATM    6  C   UNK N   1      31.502  17.299   6.659  0.00  0.00     0.037 A 
HETATM    7  C   UNK N   1      31.168  17.213   5.346  0.00  0.00     0.016 A 
HETATM    8  C   UNK N   1      32.165  17.063   4.366  0.00  0.00    -0.044 A 
HETATM    9  C   UNK N   1      33.501  16.931   4.775  0.00  0.00     0.009 A 
HETATM   10  C   UNK N   1      31.847  17.091   2.915  0.00  0.00     0.049 C 
HETATM   11  C   UNK N   1      33.817  16.970   6.138  0.00  0.00     0.017 A 
BRANCH   7  12
HETATM   12  C   UNK N   1      29.827  17.523   5.126  0.00  0.00    -0.114 C 
BRANCH  12  13
HETATM   13  C   UNK N   1      28.740  17.983   5.026  0.00  0.00     0.089 C 
BRANCH  13  14
HETATM   14  C   UNK N   1      27.367  17.762   4.928  0.00  0.00     0.081 A 
HETATM   15  C   UNK N   1      26.518  16.879   5.573  0.00  0.00     0.122 A 
HETATM   16  N   UNK N   1      25.238  17.281   5.310  0.00  0.00    -0.349 N 
HETATM   17  C   UNK N   1      25.371  18.384   4.536  0.00  0.00     0.127 A 
ATOM     18  HN  UNK N   1      24.372  16.846   5.628  1.00  0.00     0.167 HD
HETATM   19  N   UNK N   1      26.639  18.667   4.297  0.00  0.00    -0.239 N 
HETATM   20  C   UNK N   1      24.375  19.216   4.046  0.00  0.00     0.052 A 
HETATM   21  N   UNK N   1      27.067  19.721   3.604  0.00  0.00    -0.303 N 
HETATM   22  C   UNK N   1      26.156  20.576   3.075  0.00  0.00     0.108 A 
ATOM     23  HN  UNK N   1      28.065  19.884   3.472  1.00  0.00     0.186 HD
HETATM   24  C   UNK N   1      24.785  20.337   3.293  0.00  0.00     0.022 A 
ENDBRANCH  13  14
ENDBRANCH  12  13
ENDBRANCH   7  12
ENDBRANCH   2   5
BRANCH   1  25
HETATM   25  C   UNK N   1      34.945  16.523   9.639  0.00  0.00     0.035 A 
HETATM   26  C   UNK N   1      35.237  15.272   9.055  0.00  0.00     0.046 A 
HETATM   27  C   UNK N   1      35.782  14.248   9.804  0.00  0.00     0.058 A 
HETATM   28  C   UNK N   1      36.051  14.496  11.159  0.00  0.00    -0.015 A 
HETATM   29  C   UNK N   1      35.852  15.776  11.700  0.00  0.00     0.012 A 
HETATM   30  C   UNK N   1      35.312  16.796  10.937  0.00  0.00     0.030 A 
BRANCH  27  31
HETATM   31  C   UNK N   1      35.963  12.882   9.183  0.00  0.00     0.418 C 
HETATM   32  F   UNK N   1      37.282  12.495   9.335  0.00  0.00    -0.166 F 
HETATM   33  F   UNK N   1      35.156  11.929   9.787  0.00  0.00    -0.166 F 
HETATM   34  F   UNK N   1      35.652  12.924   7.836  0.00  0.00    -0.166 F 
ENDBRANCH  27  31
BRANCH  28  35
HETATM   35  C   UNK N   1      36.432  13.380  12.071  0.00  0.00     0.311 C 
BRANCH  35  36
HETATM   36  N   UNK N   1      35.477  13.032  13.125  0.00  0.00     0.096 N 
HETATM   37  C   UNK N   1      34.911  11.670  13.094  0.00  0.00     0.303 C 
HETATM   38  C   UNK N   1      35.819  10.610  13.736  0.00  0.00     0.302 C 
HETATM   39  N   UNK N   1      37.133  11.153  14.057  0.00  0.00     0.087 N 
HETATM   40  C   UNK N   1      36.955  12.249  15.001  0.00  0.00     0.302 C 
HETATM   41  C   UNK N   1      37.865  10.107  14.747  0.00  0.00     0.310 C 
HETATM   42  C   UNK N   1      36.091  13.377  14.410  0.00  0.00     0.303 C 
ENDBRANCH  35  36
ENDBRANCH  28  35
ENDBRANCH   1  25
TORSDOF 8
ENDMDL
MODEL 9
REMARK VINA RESULT:      -8.5      8.352     13.944
REMARK  8 active torsions:
REMARK  status: ('A' for Active; 'I' for Inactive)
REMARK    1  A    between atoms: N_1  and  C_8 
REMARK    2  A    between atoms: C_8  and  C_9 
REMARK    3  A    between atoms: C_10  and  C_15 
REMARK    4  A    between atoms: C_12  and  N_19 
REMARK       I    between atoms: N_19  and  C_20 
REMARK    5  A    between atoms: C_20  and  C_21 
REMARK    6  A    between atoms: C_24  and  C_29 
REMARK    7  A    between atoms: C_29  and  C_30 
REMARK    8  A    between atoms: C_30  and  C_31 
ROOT
HETATM    1  N   UNK N   1      37.020  13.117  13.650  0.00  0.00    -0.323 N 
HETATM    2  C   UNK N   1      36.352  12.153  14.307  0.00  0.00     0.256 C 
HETATM    3  O   UNK N   1      35.543  11.437  13.714  0.00  0.00    -0.267 OA
HETATM    4  H   UNK N   1      37.913  13.405  13.945  0.00  0.00     0.169 HD
ENDROOT
BRANCH   2   5
HETATM    5  C   UNK N   1      36.161  12.408  15.692  0.00  0.00     0.033 A 
HETATM    6  C   UNK N   1      35.846  11.307  16.434  0.00  0.00     0.037 A 
HETATM    7  C   UNK N   1      35.403  11.423  17.712  0.00  0.00     0.016 A 
HETATM    8  C   UNK N   1      35.284  12.689  18.311  0.00  0.00    -0.044 A 
HETATM    9  C   UNK N   1      35.562  13.830  17.543  0.00  0.00     0.009 A 
HETATM   10  C   UNK N   1      34.923  12.845  19.744  0.00  0.00     0.049 C 
HETATM   11  C   UNK N   1      35.967  13.689  16.211  0.00  0.00     0.017 A 
BRANCH   7  12
HETATM   12  C   UNK N   1      35.333  10.188  18.356  0.00  0.00    -0.114 C 
BRANCH  12  13
HETATM   13  C   UNK N   1      35.057   9.176  18.903  0.00  0.00     0.089 C 
BRANCH  13  14
HETATM   14  C   UNK N   1      34.429   7.932  18.843  0.00  0.00     0.081 A 
HETATM   15  C   UNK N   1      34.907   6.660  18.579  0.00  0.00     0.122 A 
HETATM   16  N   UNK N   1      33.923   5.777  18.929  0.00  0.00    -0.349 N 
HETATM   17  C   UNK N   1      32.912   6.547  19.393  0.00  0.00     0.127 A 
ATOM     18  HN  UNK N   1      33.946   4.759  18.856  1.00  0.00     0.167 HD
HETATM   19  N   UNK N   1      33.205   7.833  19.333  0.00  0.00    -0.239 N 
HETATM   20  C   UNK N   1      31.701   6.142  19.935  0.00  0.00     0.052 A 
HETATM   21  N   UNK N   1      32.416   8.816  19.765  0.00  0.00    -0.303 N 
HETATM   22  C   UNK N   1      31.206   8.506  20.294  0.00  0.00     0.108 A 
ATOM     23  HN  UNK N   1      32.717   9.789  19.699  1.00  0.00     0.186 HD
HETATM   24  C   UNK N   1      30.828   7.153  20.391  0.00  0.00     0.022 A 
ENDBRANCH  13  14
ENDBRANCH  12  13
ENDBRANCH   7  12
ENDBRANCH   2   5
BRANCH   1  25
HETATM   25  C   UNK N   1      36.406  13.700  12.534  0.00  0.00     0.035 A 
HETATM   26  C   UNK N   1      36.633  13.151  11.254  0.00  0.00     0.046 A 
HETATM   27  C   UNK N   1      36.249  13.828  10.113  0.00  0.00     0.058 A 
HETATM   28  C   UNK N   1      35.613  15.070  10.268  0.00  0.00    -0.015 A 
HETATM   29  C   UNK N   1      35.302  15.554  11.548  0.00  0.00     0.012 A 
HETATM   30  C   UNK N   1      35.686  14.863  12.684  0.00  0.00     0.030 A 
BRANCH  27  31
HETATM   31  C   UNK N   1      36.620  13.276   8.756  0.00  0.00     0.418 C 
HETATM   32  F   UNK N   1      37.602  14.076   8.203  0.00  0.00    -0.166 F 
HETATM   33  F   UNK N   1      37.108  11.980   8.842  0.00  0.00    -0.166 F 
HETATM   34  F   UNK N   1      35.514  13.269   7.924  0.00  0.00    -0.166 F 
ENDBRANCH  27  31
BRANCH  28  35
HETATM   35  C   UNK N   1      35.370  15.948   9.088  0.00  0.00     0.311 C 
BRANCH  35  36
HETATM   36  N   UNK N   1      34.060  16.595   9.003  0.00  0.00     0.096 N 
HETATM   37  C   UNK N   1      33.974  17.833   8.206  0.00  0.00     0.303 C 
HETATM   38  C   UNK N   1      33.813  17.587   6.698  0.00  0.00     0.302 C 
HETATM   39  N   UNK N   1      33.983  16.178   6.364  0.00  0.00     0.087 N 
HETATM   40  C   UNK N   1      32.963  15.415   7.074  0.00  0.00     0.302 C 
HETATM   41  C   UNK N   1      33.709  16.045   4.946  0.00  0.00     0.310 C 
HETATM   42  C   UNK N   1      33.088  15.574   8.599  0.00  0.00     0.303 C 
ENDBRANCH  35  36
ENDBRANCH  28  35
ENDBRANCH   1  25
TORSDOF 8
ENDMDL
