MODEL 1
REMARK VINA RESULT:      -6.0      0.000      0.000
REMARK  20 active torsions:
REMARK  status: ('A' for Active; 'I' for Inactive)
REMARK    1  A    between atoms: O_1  and  C_2 
REMARK    2  A    between atoms: O_1  and  C_18 
REMARK    3  A    between atoms: C_2  and  C_3 
REMARK    4  A    between atoms: C_3  and  C_4 
REMARK    5  A    between atoms: C_3  and  O_6 
REMARK    6  A    between atoms: C_4  and  O_5 
REMARK    7  A    between atoms: O_5  and  C_7 
REMARK    8  A    between atoms: O_6  and  C_29 
REMARK    9  A    between atoms: C_7  and  C_8 
REMARK   10  A    between atoms: C_8  and  C_10 
REMARK   11  A    between atoms: C_10  and  C_11 
REMARK   12  A    between atoms: C_11  and  C_12 
REMARK   13  A    between atoms: C_18  and  C_20 
REMARK   14  A    between atoms: C_20  and  C_21 
REMARK   15  A    between atoms: C_21  and  C_22 
REMARK   16  A    between atoms: C_22  and  C_23 
REMARK   17  A    between atoms: C_29  and  C_30 
REMARK   18  A    between atoms: C_30  and  C_32 
REMARK   19  A    between atoms: C_32  and  C_33 
REMARK   20  A    between atoms: C_33  and  C_34 
ROOT
HETATM    1  C   UNK N   1      31.957  21.870  -4.700  0.00  0.00     0.180 C 
ENDROOT
BRANCH   1   2
HETATM    2  C   UNK N   1      31.447  21.445  -3.324  0.00  0.00     0.213 C 
BRANCH   2   3
HETATM    3  O   UNK N   1      30.124  21.816  -3.209  0.00  0.00    -0.319 OA
BRANCH   3   4
HETATM    4  C   UNK N   1      29.694  22.727  -2.292  0.00  0.00     0.258 C 
HETATM    5  O   UNK N   1      30.456  23.116  -1.427  0.00  0.00    -0.265 OA
BRANCH   4   6
HETATM    6  C   UNK N   1      28.282  23.248  -2.323  0.00  0.00     0.111 C 
BRANCH   6   7
HETATM    7  C   UNK N   1      28.046  24.029  -3.608  0.00  0.00     0.014 C 
BRANCH   7   8
HETATM    8  C   UNK N   1      26.573  24.046  -3.980  0.00  0.00     0.039 C 
BRANCH   8   9
HETATM    9  C   UNK N   1      26.129  25.442  -4.248  0.00  0.00    -0.058 A 
HETATM   10  C   UNK N   1      25.369  25.738  -5.388  0.00  0.00     0.007 A 
HETATM   11  C   UNK N   1      24.921  27.041  -5.610  0.00  0.00     0.001 A 
HETATM   12  C   UNK N   1      25.233  28.052  -4.695  0.00  0.00     0.000 A 
HETATM   13  C   UNK N   1      25.996  27.759  -3.561  0.00  0.00     0.001 A 
HETATM   14  C   UNK N   1      26.441  26.454  -3.336  0.00  0.00     0.007 A 
ENDBRANCH   8   9
ENDBRANCH   7   8
ENDBRANCH   6   7
ENDBRANCH   4   6
ENDBRANCH   3   4
ENDBRANCH   2   3
ENDBRANCH   1   2
BRANCH   1  15
HETATM   15  C   UNK N   1      32.747  20.836  -5.498  0.00  0.00     0.213 C 
BRANCH  15  16
HETATM   16  O   UNK N   1      32.041  20.422  -6.602  0.00  0.00    -0.319 OA
BRANCH  16  17
HETATM   17  C   UNK N   1      31.751  21.250  -7.638  0.00  0.00     0.258 C 
HETATM   18  O   UNK N   1      32.635  21.926  -8.126  0.00  0.00    -0.265 OA
BRANCH  17  19
HETATM   19  C   UNK N   1      30.362  21.337  -8.214  0.00  0.00     0.111 C 
BRANCH  19  20
HETATM   20  C   UNK N   1      29.298  20.956  -7.194  0.00  0.00     0.014 C 
BRANCH  20  21
HETATM   21  C   UNK N   1      28.757  22.182  -6.469  0.00  0.00     0.039 C 
BRANCH  21  22
HETATM   22  C   UNK N   1      27.634  22.810  -7.226  0.00  0.00    -0.058 A 
HETATM   23  C   UNK N   1      27.822  24.055  -7.835  0.00  0.00     0.007 A 
HETATM   24  C   UNK N   1      26.780  24.652  -8.550  0.00  0.00     0.001 A 
HETATM   25  C   UNK N   1      25.546  24.002  -8.659  0.00  0.00     0.000 A 
HETATM   26  C   UNK N   1      25.357  22.755  -8.058  0.00  0.00     0.001 A 
HETATM   27  C   UNK N   1      26.399  22.158  -7.344  0.00  0.00     0.007 A 
ENDBRANCH  21  22
ENDBRANCH  20  21
ENDBRANCH  19  20
ENDBRANCH  17  19
ENDBRANCH  16  17
ENDBRANCH  15  16
ENDBRANCH   1  15
BRANCH   1  28
HETATM   28  O   UNK N   1      32.492  23.145  -4.706  0.00  0.00    -0.312 OA
BRANCH  28  29
HETATM   29  C   UNK N   1      31.836  24.301  -5.004  0.00  0.00     0.259 C 
HETATM   30  O   UNK N   1      31.248  24.392  -6.064  0.00  0.00    -0.265 OA
BRANCH  29  31
HETATM   31  C   UNK N   1      31.884  25.495  -4.101  0.00  0.00     0.111 C 
BRANCH  31  32
HETATM   32  C   UNK N   1      30.490  25.978  -3.728  0.00  0.00     0.014 C 
BRANCH  32  33
HETATM   33  C   UNK N   1      30.446  27.499  -3.751  0.00  0.00     0.039 C 
BRANCH  33  34
HETATM   34  C   UNK N   1      29.574  27.987  -4.861  0.00  0.00    -0.058 A 
HETATM   35  C   UNK N   1      29.142  29.317  -4.864  0.00  0.00     0.007 A 
HETATM   36  C   UNK N   1      28.299  29.778  -5.879  0.00  0.00     0.001 A 
HETATM   37  C   UNK N   1      27.889  28.910  -6.896  0.00  0.00     0.000 A 
HETATM   38  C   UNK N   1      28.322  27.581  -6.897  0.00  0.00     0.001 A 
HETATM   39  C   UNK N   1      29.162  27.117  -5.880  0.00  0.00     0.007 A 
ENDBRANCH  33  34
ENDBRANCH  32  33
ENDBRANCH  31  32
ENDBRANCH  29  31
ENDBRANCH  28  29
ENDBRANCH   1  28
TORSDOF 20
ENDMDL
MODEL 2
REMARK VINA RESULT:      -6.0     10.914     15.065
REMARK  20 active torsions:
REMARK  status: ('A' for Active; 'I' for Inactive)
REMARK    1  A    between atoms: O_1  and  C_2 
REMARK    2  A    between atoms: O_1  and  C_18 
REMARK    3  A    between atoms: C_2  and  C_3 
REMARK    4  A    between atoms: C_3  and  C_4 
REMARK    5  A    between atoms: C_3  and  O_6 
REMARK    6  A    between atoms: C_4  and  O_5 
REMARK    7  A    between atoms: O_5  and  C_7 
REMARK    8  A    between atoms: O_6  and  C_29 
REMARK    9  A    between atoms: C_7  and  C_8 
REMARK   10  A    between atoms: C_8  and  C_10 
REMARK   11  A    between atoms: C_10  and  C_11 
REMARK   12  A    between atoms: C_11  and  C_12 
REMARK   13  A    between atoms: C_18  and  C_20 
REMARK   14  A    between atoms: C_20  and  C_21 
REMARK   15  A    between atoms: C_21  and  C_22 
REMARK   16  A    between atoms: C_22  and  C_23 
REMARK   17  A    between atoms: C_29  and  C_30 
REMARK   18  A    between atoms: C_30  and  C_32 
REMARK   19  A    between atoms: C_32  and  C_33 
REMARK   20  A    between atoms: C_33  and  C_34 
ROOT
HETATM    1  C   UNK N   1      20.573  18.537   3.785  0.00  0.00     0.180 C 
ENDROOT
BRANCH   1   2
HETATM    2  C   UNK N   1      19.703  17.784   2.780  0.00  0.00     0.213 C 
BRANCH   2   3
HETATM    3  O   UNK N   1      20.233  16.526   2.591  0.00  0.00    -0.319 OA
BRANCH   3   4
HETATM    4  C   UNK N   1      20.735  16.113   1.394  0.00  0.00     0.258 C 
HETATM    5  O   UNK N   1      20.440  16.714   0.378  0.00  0.00    -0.265 OA
BRANCH   4   6
HETATM    6  C   UNK N   1      21.636  14.910   1.307  0.00  0.00     0.111 C 
BRANCH   6   7
HETATM    7  C   UNK N   1      22.442  14.774   2.591  0.00  0.00     0.014 C 
BRANCH   7   8
HETATM    8  C   UNK N   1      23.508  15.852   2.690  0.00  0.00     0.039 C 
BRANCH   8   9
HETATM    9  C   UNK N   1      24.862  15.248   2.552  0.00  0.00    -0.058 A 
HETATM   10  C   UNK N   1      25.010  13.861   2.410  0.00  0.00     0.007 A 
HETATM   11  C   UNK N   1      26.280  13.308   2.239  0.00  0.00     0.001 A 
HETATM   12  C   UNK N   1      27.405  14.138   2.212  0.00  0.00     0.000 A 
HETATM   13  C   UNK N   1      27.259  15.520   2.359  0.00  0.00     0.001 A 
HETATM   14  C   UNK N   1      25.988  16.076   2.526  0.00  0.00     0.007 A 
ENDBRANCH   8   9
ENDBRANCH   7   8
ENDBRANCH   6   7
ENDBRANCH   4   6
ENDBRANCH   3   4
ENDBRANCH   2   3
ENDBRANCH   1   2
BRANCH   1  15
HETATM   15  C   UNK N   1      21.342  19.749   3.266  0.00  0.00     0.213 C 
BRANCH  15  16
HETATM   16  O   UNK N   1      22.696  19.514   3.274  0.00  0.00    -0.319 OA
BRANCH  16  17
HETATM   17  C   UNK N   1      23.607  20.473   2.970  0.00  0.00     0.258 C 
HETATM   18  O   UNK N   1      23.259  21.638   2.939  0.00  0.00    -0.265 OA
BRANCH  17  19
HETATM   19  C   UNK N   1      25.048  20.135   2.689  0.00  0.00     0.111 C 
BRANCH  19  20
HETATM   20  C   UNK N   1      25.719  19.473   3.885  0.00  0.00     0.014 C 
BRANCH  20  21
HETATM   21  C   UNK N   1      27.222  19.724   3.890  0.00  0.00     0.039 C 
BRANCH  21  22
HETATM   22  C   UNK N   1      27.894  18.979   4.996  0.00  0.00    -0.058 A 
HETATM   23  C   UNK N   1      27.584  19.287   6.324  0.00  0.00     0.007 A 
HETATM   24  C   UNK N   1      28.203  18.595   7.369  0.00  0.00     0.001 A 
HETATM   25  C   UNK N   1      29.133  17.589   7.085  0.00  0.00     0.000 A 
HETATM   26  C   UNK N   1      29.439  17.274   5.759  0.00  0.00     0.001 A 
HETATM   27  C   UNK N   1      28.820  17.966   4.715  0.00  0.00     0.007 A 
ENDBRANCH  21  22
ENDBRANCH  20  21
ENDBRANCH  19  20
ENDBRANCH  17  19
ENDBRANCH  16  17
ENDBRANCH  15  16
ENDBRANCH   1  15
BRANCH   1  28
HETATM   28  O   UNK N   1      21.297  17.695   4.609  0.00  0.00    -0.312 OA
BRANCH  28  29
HETATM   29  C   UNK N   1      21.208  17.611   5.965  0.00  0.00     0.259 C 
HETATM   30  O   UNK N   1      21.597  18.542   6.643  0.00  0.00    -0.265 OA
BRANCH  29  31
HETATM   31  C   UNK N   1      20.722  16.373   6.653  0.00  0.00     0.111 C 
BRANCH  31  32
HETATM   32  C   UNK N   1      21.869  15.561   7.234  0.00  0.00     0.014 C 
BRANCH  32  33
HETATM   33  C   UNK N   1      22.398  14.589   6.190  0.00  0.00     0.039 C 
BRANCH  33  34
HETATM   34  C   UNK N   1      23.890  14.623   6.140  0.00  0.00    -0.058 A 
HETATM   35  C   UNK N   1      24.552  15.855   6.164  0.00  0.00     0.007 A 
HETATM   36  C   UNK N   1      25.947  15.902   6.086  0.00  0.00     0.001 A 
HETATM   37  C   UNK N   1      26.683  14.718   5.987  0.00  0.00     0.000 A 
HETATM   38  C   UNK N   1      26.024  13.485   5.966  0.00  0.00     0.001 A 
HETATM   39  C   UNK N   1      24.628  13.436   6.040  0.00  0.00     0.007 A 
ENDBRANCH  33  34
ENDBRANCH  32  33
ENDBRANCH  31  32
ENDBRANCH  29  31
ENDBRANCH  28  29
ENDBRANCH   1  28
TORSDOF 20
ENDMDL
MODEL 3
REMARK VINA RESULT:      -5.9     10.913     14.482
REMARK  20 active torsions:
REMARK  status: ('A' for Active; 'I' for Inactive)
REMARK    1  A    between atoms: O_1  and  C_2 
REMARK    2  A    between atoms: O_1  and  C_18 
REMARK    3  A    between atoms: C_2  and  C_3 
REMARK    4  A    between atoms: C_3  and  C_4 
REMARK    5  A    between atoms: C_3  and  O_6 
REMARK    6  A    between atoms: C_4  and  O_5 
REMARK    7  A    between atoms: O_5  and  C_7 
REMARK    8  A    between atoms: O_6  and  C_29 
REMARK    9  A    between atoms: C_7  and  C_8 
REMARK   10  A    between atoms: C_8  and  C_10 
REMARK   11  A    between atoms: C_10  and  C_11 
REMARK   12  A    between atoms: C_11  and  C_12 
REMARK   13  A    between atoms: C_18  and  C_20 
REMARK   14  A    between atoms: C_20  and  C_21 
REMARK   15  A    between atoms: C_21  and  C_22 
REMARK   16  A    between atoms: C_22  and  C_23 
REMARK   17  A    between atoms: C_29  and  C_30 
REMARK   18  A    between atoms: C_30  and  C_32 
REMARK   19  A    between atoms: C_32  and  C_33 
REMARK   20  A    between atoms: C_33  and  C_34 
ROOT
HETATM    1  C   UNK N   1      21.762  19.741   2.902  0.00  0.00     0.180 C 
ENDROOT
BRANCH   1   2
HETATM    2  C   UNK N   1      20.809  19.845   1.713  0.00  0.00     0.213 C 
BRANCH   2   3
HETATM    3  O   UNK N   1      19.996  18.732   1.699  0.00  0.00    -0.319 OA
BRANCH   3   4
HETATM    4  C   UNK N   1      20.388  17.543   1.160  0.00  0.00     0.258 C 
HETATM    5  O   UNK N   1      20.402  17.407  -0.049  0.00  0.00    -0.265 OA
BRANCH   4   6
HETATM    6  C   UNK N   1      20.786  16.388   2.040  0.00  0.00     0.111 C 
BRANCH   6   7
HETATM    7  C   UNK N   1      20.450  15.073   1.350  0.00  0.00     0.014 C 
BRANCH   7   8
HETATM    8  C   UNK N   1      20.784  13.886   2.236  0.00  0.00     0.039 C 
BRANCH   8   9
HETATM    9  C   UNK N   1      22.117  13.331   1.871  0.00  0.00    -0.058 A 
HETATM   10  C   UNK N   1      22.623  13.498   0.574  0.00  0.00     0.007 A 
HETATM   11  C   UNK N   1      23.891  13.012   0.251  0.00  0.00     0.001 A 
HETATM   12  C   UNK N   1      24.654  12.355   1.222  0.00  0.00     0.000 A 
HETATM   13  C   UNK N   1      24.148  12.183   2.513  0.00  0.00     0.001 A 
HETATM   14  C   UNK N   1      22.880  12.674   2.839  0.00  0.00     0.007 A 
ENDBRANCH   8   9
ENDBRANCH   7   8
ENDBRANCH   6   7
ENDBRANCH   4   6
ENDBRANCH   3   4
ENDBRANCH   2   3
ENDBRANCH   1   2
BRANCH   1  15
HETATM   15  C   UNK N   1      21.142  19.451   4.266  0.00  0.00     0.213 C 
BRANCH  15  16
HETATM   16  O   UNK N   1      21.695  18.326   4.830  0.00  0.00    -0.319 OA
BRANCH  16  17
HETATM   17  C   UNK N   1      21.415  17.930   6.097  0.00  0.00     0.258 C 
HETATM   18  O   UNK N   1      21.005  18.746   6.900  0.00  0.00    -0.265 OA
BRANCH  17  19
HETATM   19  C   UNK N   1      21.578  16.497   6.532  0.00  0.00     0.111 C 
BRANCH  19  20
HETATM   20  C   UNK N   1      22.358  15.679   5.512  0.00  0.00     0.014 C 
BRANCH  20  21
HETATM   21  C   UNK N   1      23.796  15.454   5.961  0.00  0.00     0.039 C 
BRANCH  21  22
HETATM   22  C   UNK N   1      24.721  15.349   4.793  0.00  0.00    -0.058 A 
HETATM   23  C   UNK N   1      24.358  15.923   3.571  0.00  0.00     0.007 A 
HETATM   24  C   UNK N   1      25.216  15.835   2.471  0.00  0.00     0.001 A 
HETATM   25  C   UNK N   1      26.442  15.174   2.593  0.00  0.00     0.000 A 
HETATM   26  C   UNK N   1      26.810  14.604   3.815  0.00  0.00     0.001 A 
HETATM   27  C   UNK N   1      25.953  14.693   4.914  0.00  0.00     0.007 A 
ENDBRANCH  21  22
ENDBRANCH  20  21
ENDBRANCH  19  20
ENDBRANCH  17  19
ENDBRANCH  16  17
ENDBRANCH  15  16
ENDBRANCH   1  15
BRANCH   1  28
HETATM   28  O   UNK N   1      22.736  20.722   2.899  0.00  0.00    -0.312 OA
BRANCH  28  29
HETATM   29  C   UNK N   1      24.082  20.532   2.982  0.00  0.00     0.259 C 
HETATM   30  O   UNK N   1      24.807  21.070   2.167  0.00  0.00    -0.265 OA
BRANCH  29  31
HETATM   31  C   UNK N   1      24.693  19.615   3.996  0.00  0.00     0.111 C 
BRANCH  31  32
HETATM   32  C   UNK N   1      26.181  19.878   4.172  0.00  0.00     0.014 C 
BRANCH  32  33
HETATM   33  C   UNK N   1      26.982  18.696   3.644  0.00  0.00     0.039 C 
BRANCH  33  34
HETATM   34  C   UNK N   1      27.763  18.052   4.742  0.00  0.00    -0.058 A 
HETATM   35  C   UNK N   1      29.062  17.599   4.489  0.00  0.00     0.007 A 
HETATM   36  C   UNK N   1      29.792  16.965   5.499  0.00  0.00     0.001 A 
HETATM   37  C   UNK N   1      29.225  16.786   6.764  0.00  0.00     0.000 A 
HETATM   38  C   UNK N   1      27.929  17.241   7.020  0.00  0.00     0.001 A 
HETATM   39  C   UNK N   1      27.195  17.872   6.010  0.00  0.00     0.007 A 
ENDBRANCH  33  34
ENDBRANCH  32  33
ENDBRANCH  31  32
ENDBRANCH  29  31
ENDBRANCH  28  29
ENDBRANCH   1  28
TORSDOF 20
ENDMDL
MODEL 4
REMARK VINA RESULT:      -5.8      2.945      6.519
REMARK  20 active torsions:
REMARK  status: ('A' for Active; 'I' for Inactive)
REMARK    1  A    between atoms: O_1  and  C_2 
REMARK    2  A    between atoms: O_1  and  C_18 
REMARK    3  A    between atoms: C_2  and  C_3 
REMARK    4  A    between atoms: C_3  and  C_4 
REMARK    5  A    between atoms: C_3  and  O_6 
REMARK    6  A    between atoms: C_4  and  O_5 
REMARK    7  A    between atoms: O_5  and  C_7 
REMARK    8  A    between atoms: O_6  and  C_29 
REMARK    9  A    between atoms: C_7  and  C_8 
REMARK   10  A    between atoms: C_8  and  C_10 
REMARK   11  A    between atoms: C_10  and  C_11 
REMARK   12  A    between atoms: C_11  and  C_12 
REMARK   13  A    between atoms: C_18  and  C_20 
REMARK   14  A    between atoms: C_20  and  C_21 
REMARK   15  A    between atoms: C_21  and  C_22 
REMARK   16  A    between atoms: C_22  and  C_23 
REMARK   17  A    between atoms: C_29  and  C_30 
REMARK   18  A    between atoms: C_30  and  C_32 
REMARK   19  A    between atoms: C_32  and  C_33 
REMARK   20  A    between atoms: C_33  and  C_34 
ROOT
HETATM    1  C   UNK N   1      26.479  22.075 -10.479  0.00  0.00     0.180 C 
ENDROOT
BRANCH   1   2
HETATM    2  C   UNK N   1      27.529  20.982 -10.667  0.00  0.00     0.213 C 
BRANCH   2   3
HETATM    3  O   UNK N   1      28.572  21.217  -9.797  0.00  0.00    -0.319 OA
BRANCH   3   4
HETATM    4  C   UNK N   1      29.288  20.211  -9.221  0.00  0.00     0.258 C 
HETATM    5  O   UNK N   1      30.239  19.735  -9.812  0.00  0.00    -0.265 OA
BRANCH   4   6
HETATM    6  C   UNK N   1      28.910  19.668  -7.869  0.00  0.00     0.111 C 
BRANCH   6   7
HETATM    7  C   UNK N   1      29.859  20.211  -6.810  0.00  0.00     0.014 C 
BRANCH   7   8
HETATM    8  C   UNK N   1      29.647  21.699  -6.589  0.00  0.00     0.039 C 
BRANCH   8   9
HETATM    9  C   UNK N   1      29.999  22.066  -5.189  0.00  0.00    -0.058 A 
HETATM   10  C   UNK N   1      30.512  21.101  -4.311  0.00  0.00     0.007 A 
HETATM   11  C   UNK N   1      30.878  21.462  -3.014  0.00  0.00     0.001 A 
HETATM   12  C   UNK N   1      30.730  22.786  -2.590  0.00  0.00     0.000 A 
HETATM   13  C   UNK N   1      30.214  23.748  -3.463  0.00  0.00     0.001 A 
HETATM   14  C   UNK N   1      29.850  23.388  -4.764  0.00  0.00     0.007 A 
ENDBRANCH   8   9
ENDBRANCH   7   8
ENDBRANCH   6   7
ENDBRANCH   4   6
ENDBRANCH   3   4
ENDBRANCH   2   3
ENDBRANCH   1   2
BRANCH   1  15
HETATM   15  C   UNK N   1      26.294  23.066 -11.626  0.00  0.00     0.213 C 
BRANCH  15  16
HETATM   16  O   UNK N   1      25.380  24.037 -11.296  0.00  0.00    -0.319 OA
BRANCH  16  17
HETATM   17  C   UNK N   1      25.699  25.356 -11.247  0.00  0.00     0.258 C 
HETATM   18  O   UNK N   1      26.310  25.856 -12.172  0.00  0.00    -0.265 OA
BRANCH  17  19
HETATM   19  C   UNK N   1      25.295  26.224 -10.084  0.00  0.00     0.111 C 
BRANCH  19  20
HETATM   20  C   UNK N   1      26.243  26.068  -8.902  0.00  0.00     0.014 C 
BRANCH  20  21
HETATM   21  C   UNK N   1      27.503  26.904  -9.085  0.00  0.00     0.039 C 
BRANCH  21  22
HETATM   22  C   UNK N   1      28.094  27.292  -7.769  0.00  0.00    -0.058 A 
HETATM   23  C   UNK N   1      27.951  28.604  -7.307  0.00  0.00     0.007 A 
HETATM   24  C   UNK N   1      28.495  28.978  -6.076  0.00  0.00     0.001 A 
HETATM   25  C   UNK N   1      29.182  28.038  -5.302  0.00  0.00     0.000 A 
HETATM   26  C   UNK N   1      29.321  26.724  -5.757  0.00  0.00     0.001 A 
HETATM   27  C   UNK N   1      28.776  26.350  -6.987  0.00  0.00     0.007 A 
ENDBRANCH  21  22
ENDBRANCH  20  21
ENDBRANCH  19  20
ENDBRANCH  17  19
ENDBRANCH  16  17
ENDBRANCH  15  16
ENDBRANCH   1  15
BRANCH   1  28
HETATM   28  O   UNK N   1      26.508  22.641  -9.218  0.00  0.00    -0.312 OA
BRANCH  28  29
HETATM   29  C   UNK N   1      25.567  22.506  -8.244  0.00  0.00     0.259 C 
HETATM   30  O   UNK N   1      24.390  22.547  -8.548  0.00  0.00    -0.265 OA
BRANCH  29  31
HETATM   31  C   UNK N   1      25.934  22.392  -6.796  0.00  0.00     0.111 C 
BRANCH  31  32
HETATM   32  C   UNK N   1      26.619  23.650  -6.285  0.00  0.00     0.014 C 
BRANCH  32  33
HETATM   33  C   UNK N   1      26.216  23.909  -4.841  0.00  0.00     0.039 C 
BRANCH  33  34
HETATM   34  C   UNK N   1      25.964  25.364  -4.614  0.00  0.00    -0.058 A 
HETATM   35  C   UNK N   1      25.245  26.095  -5.565  0.00  0.00     0.007 A 
HETATM   36  C   UNK N   1      25.030  27.464  -5.380  0.00  0.00     0.001 A 
HETATM   37  C   UNK N   1      25.531  28.103  -4.243  0.00  0.00     0.000 A 
HETATM   38  C   UNK N   1      26.247  27.374  -3.289  0.00  0.00     0.001 A 
HETATM   39  C   UNK N   1      26.466  26.005  -3.474  0.00  0.00     0.007 A 
ENDBRANCH  33  34
ENDBRANCH  32  33
ENDBRANCH  31  32
ENDBRANCH  29  31
ENDBRANCH  28  29
ENDBRANCH   1  28
TORSDOF 20
ENDMDL
MODEL 5
REMARK VINA RESULT:      -5.7     15.891     19.680
REMARK  20 active torsions:
REMARK  status: ('A' for Active; 'I' for Inactive)
REMARK    1  A    between atoms: O_1  and  C_2 
REMARK    2  A    between atoms: O_1  and  C_18 
REMARK    3  A    between atoms: C_2  and  C_3 
REMARK    4  A    between atoms: C_3  and  C_4 
REMARK    5  A    between atoms: C_3  and  O_6 
REMARK    6  A    between atoms: C_4  and  O_5 
REMARK    7  A    between atoms: O_5  and  C_7 
REMARK    8  A    between atoms: O_6  and  C_29 
REMARK    9  A    between atoms: C_7  and  C_8 
REMARK   10  A    between atoms: C_8  and  C_10 
REMARK   11  A    between atoms: C_10  and  C_11 
REMARK   12  A    between atoms: C_11  and  C_12 
REMARK   13  A    between atoms: C_18  and  C_20 
REMARK   14  A    between atoms: C_20  and  C_21 
REMARK   15  A    between atoms: C_21  and  C_22 
REMARK   16  A    between atoms: C_22  and  C_23 
REMARK   17  A    between atoms: C_29  and  C_30 
REMARK   18  A    between atoms: C_30  and  C_32 
REMARK   19  A    between atoms: C_32  and  C_33 
REMARK   20  A    between atoms: C_33  and  C_34 
ROOT
HETATM    1  C   UNK N   1      35.598  14.248  10.344  0.00  0.00     0.180 C 
ENDROOT
BRANCH   1   2
HETATM    2  C   UNK N   1      34.737  13.004  10.552  0.00  0.00     0.213 C 
BRANCH   2   3
HETATM    3  O   UNK N   1      35.291  12.246  11.561  0.00  0.00    -0.319 OA
BRANCH   3   4
HETATM    4  C   UNK N   1      34.718  12.128  12.791  0.00  0.00     0.258 C 
HETATM    5  O   UNK N   1      34.581  13.115  13.488  0.00  0.00    -0.265 OA
BRANCH   4   6
HETATM    6  C   UNK N   1      34.266  10.788  13.308  0.00  0.00     0.111 C 
BRANCH   6   7
HETATM    7  C   UNK N   1      33.908  10.898  14.784  0.00  0.00     0.014 C 
BRANCH   7   8
HETATM    8  C   UNK N   1      35.034  10.381  15.664  0.00  0.00     0.039 C 
BRANCH   8   9
HETATM    9  C   UNK N   1      35.120  11.187  16.913  0.00  0.00    -0.058 A 
HETATM   10  C   UNK N   1      35.087  12.588  16.857  0.00  0.00     0.007 A 
HETATM   11  C   UNK N   1      35.127  13.335  18.036  0.00  0.00     0.001 A 
HETATM   12  C   UNK N   1      35.201  12.685  19.272  0.00  0.00     0.000 A 
HETATM   13  C   UNK N   1      35.239  11.289  19.328  0.00  0.00     0.001 A 
HETATM   14  C   UNK N   1      35.196  10.540  18.149  0.00  0.00     0.007 A 
ENDBRANCH   8   9
ENDBRANCH   7   8
ENDBRANCH   6   7
ENDBRANCH   4   6
ENDBRANCH   3   4
ENDBRANCH   2   3
ENDBRANCH   1   2
BRANCH   1  15
HETATM   15  C   UNK N   1      35.085  15.556  10.942  0.00  0.00     0.213 C 
BRANCH  15  16
HETATM   16  O   UNK N   1      34.101  16.105  10.156  0.00  0.00    -0.319 OA
BRANCH  16  17
HETATM   17  C   UNK N   1      34.289  17.236   9.430  0.00  0.00     0.258 C 
HETATM   18  O   UNK N   1      35.321  17.865   9.565  0.00  0.00    -0.265 OA
BRANCH  17  19
HETATM   19  C   UNK N   1      33.262  17.722   8.442  0.00  0.00     0.111 C 
BRANCH  19  20
HETATM   20  C   UNK N   1      32.072  16.776   8.348  0.00  0.00     0.014 C 
BRANCH  20  21
HETATM   21  C   UNK N   1      30.869  17.456   7.707  0.00  0.00     0.039 C 
BRANCH  21  22
HETATM   22  C   UNK N   1      30.309  16.634   6.593  0.00  0.00    -0.058 A 
HETATM   23  C   UNK N   1      30.712  15.304   6.446  0.00  0.00     0.007 A 
HETATM   24  C   UNK N   1      30.192  14.523   5.410  0.00  0.00     0.001 A 
HETATM   25  C   UNK N   1      29.265  15.072   4.520  0.00  0.00     0.000 A 
HETATM   26  C   UNK N   1      28.855  16.400   4.668  0.00  0.00     0.001 A 
HETATM   27  C   UNK N   1      29.373  17.180   5.704  0.00  0.00     0.007 A 
ENDBRANCH  21  22
ENDBRANCH  20  21
ENDBRANCH  19  20
ENDBRANCH  17  19
ENDBRANCH  16  17
ENDBRANCH  15  16
ENDBRANCH   1  15
BRANCH   1  28
HETATM   28  O   UNK N   1      36.099  14.350   9.059  0.00  0.00    -0.312 OA
BRANCH  28  29
HETATM   29  C   UNK N   1      36.251  13.337   8.163  0.00  0.00     0.259 C 
HETATM   30  O   UNK N   1      37.199  12.583   8.277  0.00  0.00    -0.265 OA
BRANCH  29  31
HETATM   31  C   UNK N   1      35.334  13.169   6.991  0.00  0.00     0.111 C 
BRANCH  31  32
HETATM   32  C   UNK N   1      34.359  14.330   6.865  0.00  0.00     0.014 C 
BRANCH  32  33
HETATM   33  C   UNK N   1      34.981  15.440   6.030  0.00  0.00     0.039 C 
BRANCH  33  34
HETATM   34  C   UNK N   1      34.044  15.882   4.954  0.00  0.00    -0.058 A 
HETATM   35  C   UNK N   1      33.527  17.181   4.981  0.00  0.00     0.007 A 
HETATM   36  C   UNK N   1      32.624  17.597   3.998  0.00  0.00     0.001 A 
HETATM   37  C   UNK N   1      32.238  16.715   2.985  0.00  0.00     0.000 A 
HETATM   38  C   UNK N   1      32.756  15.417   2.954  0.00  0.00     0.001 A 
HETATM   39  C   UNK N   1      33.656  14.998   3.938  0.00  0.00     0.007 A 
ENDBRANCH  33  34
ENDBRANCH  32  33
ENDBRANCH  31  32
ENDBRANCH  29  31
ENDBRANCH  28  29
ENDBRANCH   1  28
TORSDOF 20
ENDMDL
MODEL 6
REMARK VINA RESULT:      -5.6      2.689      5.292
REMARK  20 active torsions:
REMARK  status: ('A' for Active; 'I' for Inactive)
REMARK    1  A    between atoms: O_1  and  C_2 
REMARK    2  A    between atoms: O_1  and  C_18 
REMARK    3  A    between atoms: C_2  and  C_3 
REMARK    4  A    between atoms: C_3  and  C_4 
REMARK    5  A    between atoms: C_3  and  O_6 
REMARK    6  A    between atoms: C_4  and  O_5 
REMARK    7  A    between atoms: O_5  and  C_7 
REMARK    8  A    between atoms: O_6  and  C_29 
REMARK    9  A    between atoms: C_7  and  C_8 
REMARK   10  A    between atoms: C_8  and  C_10 
REMARK   11  A    between atoms: C_10  and  C_11 
REMARK   12  A    between atoms: C_11  and  C_12 
REMARK   13  A    between atoms: C_18  and  C_20 
REMARK   14  A    between atoms: C_20  and  C_21 
REMARK   15  A    between atoms: C_21  and  C_22 
REMARK   16  A    between atoms: C_22  and  C_23 
REMARK   17  A    between atoms: C_29  and  C_30 
REMARK   18  A    between atoms: C_30  and  C_32 
REMARK   19  A    between atoms: C_32  and  C_33 
REMARK   20  A    between atoms: C_33  and  C_34 
ROOT
HETATM    1  C   UNK N   1      25.758  22.443  -8.180  0.00  0.00     0.180 C 
ENDROOT
BRANCH   1   2
HETATM    2  C   UNK N   1      25.403  22.495  -6.695  0.00  0.00     0.213 C 
BRANCH   2   3
HETATM    3  O   UNK N   1      26.262  23.371  -6.066  0.00  0.00    -0.319 OA
BRANCH   3   4
HETATM    4  C   UNK N   1      25.828  24.336  -5.208  0.00  0.00     0.258 C 
HETATM    5  O   UNK N   1      24.931  25.084  -5.548  0.00  0.00    -0.265 OA
BRANCH   4   6
HETATM    6  C   UNK N   1      26.456  24.502  -3.850  0.00  0.00     0.111 C 
BRANCH   6   7
HETATM    7  C   UNK N   1      27.955  24.253  -3.939  0.00  0.00     0.014 C 
BRANCH   7   8
HETATM    8  C   UNK N   1      28.732  25.558  -3.926  0.00  0.00     0.039 C 
BRANCH   8   9
HETATM    9  C   UNK N   1      29.638  25.628  -5.106  0.00  0.00    -0.058 A 
HETATM   10  C   UNK N   1      29.568  24.654  -6.112  0.00  0.00     0.007 A 
HETATM   11  C   UNK N   1      30.392  24.750  -7.235  0.00  0.00     0.001 A 
HETATM   12  C   UNK N   1      31.290  25.816  -7.353  0.00  0.00     0.000 A 
HETATM   13  C   UNK N   1      31.364  26.784  -6.347  0.00  0.00     0.001 A 
HETATM   14  C   UNK N   1      30.537  26.692  -5.225  0.00  0.00     0.007 A 
ENDBRANCH   8   9
ENDBRANCH   7   8
ENDBRANCH   6   7
ENDBRANCH   4   6
ENDBRANCH   3   4
ENDBRANCH   2   3
ENDBRANCH   1   2
BRANCH   1  15
HETATM   15  C   UNK N   1      26.394  21.155  -8.698  0.00  0.00     0.213 C 
BRANCH  15  16
HETATM   16  O   UNK N   1      27.452  21.428  -9.531  0.00  0.00    -0.319 OA
BRANCH  16  17
HETATM   17  C   UNK N   1      28.682  20.883  -9.354  0.00  0.00     0.258 C 
HETATM   18  O   UNK N   1      29.083  20.048 -10.142  0.00  0.00    -0.265 OA
BRANCH  17  19
HETATM   19  C   UNK N   1      29.577  21.302  -8.217  0.00  0.00     0.111 C 
BRANCH  19  20
HETATM   20  C   UNK N   1      29.524  20.315  -7.059  0.00  0.00     0.014 C 
BRANCH  20  21
HETATM   21  C   UNK N   1      30.895  20.128  -6.422  0.00  0.00     0.039 C 
BRANCH  21  22
HETATM   22  C   UNK N   1      31.135  21.133  -5.344  0.00  0.00    -0.058 A 
HETATM   23  C   UNK N   1      30.349  21.107  -4.188  0.00  0.00     0.007 A 
HETATM   24  C   UNK N   1      30.567  22.040  -3.170  0.00  0.00     0.001 A 
HETATM   25  C   UNK N   1      31.575  22.999  -3.306  0.00  0.00     0.000 A 
HETATM   26  C   UNK N   1      32.367  23.023  -4.457  0.00  0.00     0.001 A 
HETATM   27  C   UNK N   1      32.149  22.090  -5.474  0.00  0.00     0.007 A 
ENDBRANCH  21  22
ENDBRANCH  20  21
ENDBRANCH  19  20
ENDBRANCH  17  19
ENDBRANCH  16  17
ENDBRANCH  15  16
ENDBRANCH   1  15
BRANCH   1  28
HETATM   28  O   UNK N   1      26.345  23.609  -8.636  0.00  0.00    -0.312 OA
BRANCH  28  29
HETATM   29  C   UNK N   1      25.725  24.633  -9.283  0.00  0.00     0.259 C 
HETATM   30  O   UNK N   1      24.836  24.382 -10.074  0.00  0.00    -0.265 OA
BRANCH  29  31
HETATM   31  C   UNK N   1      26.157  26.057  -9.113  0.00  0.00     0.111 C 
BRANCH  31  32
HETATM   32  C   UNK N   1      27.165  26.210  -7.984  0.00  0.00     0.014 C 
BRANCH  32  33
HETATM   33  C   UNK N   1      27.930  27.516  -8.147  0.00  0.00     0.039 C 
BRANCH  33  34
HETATM   34  C   UNK N   1      27.779  28.374  -6.933  0.00  0.00    -0.058 A 
HETATM   35  C   UNK N   1      28.567  29.521  -6.798  0.00  0.00     0.007 A 
HETATM   36  C   UNK N   1      28.459  30.315  -5.653  0.00  0.00     0.001 A 
HETATM   37  C   UNK N   1      27.560  29.964  -4.642  0.00  0.00     0.000 A 
HETATM   38  C   UNK N   1      26.768  28.820  -4.776  0.00  0.00     0.001 A 
HETATM   39  C   UNK N   1      26.878  28.023  -5.919  0.00  0.00     0.007 A 
ENDBRANCH  33  34
ENDBRANCH  32  33
ENDBRANCH  31  32
ENDBRANCH  29  31
ENDBRANCH  28  29
ENDBRANCH   1  28
TORSDOF 20
ENDMDL
MODEL 7
REMARK VINA RESULT:      -5.5      2.097      5.468
REMARK  20 active torsions:
REMARK  status: ('A' for Active; 'I' for Inactive)
REMARK    1  A    between atoms: O_1  and  C_2 
REMARK    2  A    between atoms: O_1  and  C_18 
REMARK    3  A    between atoms: C_2  and  C_3 
REMARK    4  A    between atoms: C_3  and  C_4 
REMARK    5  A    between atoms: C_3  and  O_6 
REMARK    6  A    between atoms: C_4  and  O_5 
REMARK    7  A    between atoms: O_5  and  C_7 
REMARK    8  A    between atoms: O_6  and  C_29 
REMARK    9  A    between atoms: C_7  and  C_8 
REMARK   10  A    between atoms: C_8  and  C_10 
REMARK   11  A    between atoms: C_10  and  C_11 
REMARK   12  A    between atoms: C_11  and  C_12 
REMARK   13  A    between atoms: C_18  and  C_20 
REMARK   14  A    between atoms: C_20  and  C_21 
REMARK   15  A    between atoms: C_21  and  C_22 
REMARK   16  A    between atoms: C_22  and  C_23 
REMARK   17  A    between atoms: C_29  and  C_30 
REMARK   18  A    between atoms: C_30  and  C_32 
REMARK   19  A    between atoms: C_32  and  C_33 
REMARK   20  A    between atoms: C_33  and  C_34 
ROOT
HETATM    1  C   UNK N   1      30.553  24.846  -4.135  0.00  0.00     0.180 C 
ENDROOT
BRANCH   1   2
HETATM    2  C   UNK N   1      31.475  26.053  -3.975  0.00  0.00     0.213 C 
BRANCH   2   3
HETATM    3  O   UNK N   1      31.124  26.729  -2.826  0.00  0.00    -0.319 OA
BRANCH   3   4
HETATM    4  C   UNK N   1      30.910  28.074  -2.802  0.00  0.00     0.258 C 
HETATM    5  O   UNK N   1      31.422  28.749  -1.929  0.00  0.00    -0.265 OA
BRANCH   4   6
HETATM    6  C   UNK N   1      30.032  28.737  -3.830  0.00  0.00     0.111 C 
BRANCH   6   7
HETATM    7  C   UNK N   1      28.596  28.789  -3.328  0.00  0.00     0.014 C 
BRANCH   7   8
HETATM    8  C   UNK N   1      27.705  29.562  -4.284  0.00  0.00     0.039 C 
BRANCH   8   9
HETATM    9  C   UNK N   1      26.925  28.620  -5.134  0.00  0.00    -0.058 A 
HETATM   10  C   UNK N   1      27.468  28.127  -6.330  0.00  0.00     0.007 A 
HETATM   11  C   UNK N   1      26.748  27.213  -7.099  0.00  0.00     0.001 A 
HETATM   12  C   UNK N   1      25.483  26.790  -6.679  0.00  0.00     0.000 A 
HETATM   13  C   UNK N   1      24.938  27.285  -5.490  0.00  0.00     0.001 A 
HETATM   14  C   UNK N   1      25.660  28.198  -4.717  0.00  0.00     0.007 A 
ENDBRANCH   8   9
ENDBRANCH   7   8
ENDBRANCH   6   7
ENDBRANCH   4   6
ENDBRANCH   3   4
ENDBRANCH   2   3
ENDBRANCH   1   2
BRANCH   1  15
HETATM   15  C   UNK N   1      29.265  25.057  -4.927  0.00  0.00     0.213 C 
BRANCH  15  16
HETATM   16  O   UNK N   1      28.252  25.502  -4.112  0.00  0.00    -0.319 OA
BRANCH  16  17
HETATM   17  C   UNK N   1      27.130  24.777  -3.875  0.00  0.00     0.258 C 
HETATM   18  O   UNK N   1      26.336  25.164  -3.039  0.00  0.00    -0.265 OA
BRANCH  17  19
HETATM   19  C   UNK N   1      26.829  23.514  -4.637  0.00  0.00     0.111 C 
BRANCH  19  20
HETATM   20  C   UNK N   1      25.965  23.781  -5.863  0.00  0.00     0.014 C 
BRANCH  20  21
HETATM   21  C   UNK N   1      25.677  22.498  -6.632  0.00  0.00     0.039 C 
BRANCH  21  22
HETATM   22  C   UNK N   1      26.537  22.388  -7.847  0.00  0.00    -0.058 A 
HETATM   23  C   UNK N   1      27.454  23.402  -8.139  0.00  0.00     0.007 A 
HETATM   24  C   UNK N   1      28.268  23.309  -9.271  0.00  0.00     0.001 A 
HETATM   25  C   UNK N   1      28.167  22.198 -10.114  0.00  0.00     0.000 A 
HETATM   26  C   UNK N   1      27.255  21.179  -9.822  0.00  0.00     0.001 A 
HETATM   27  C   UNK N   1      26.443  21.272  -8.689  0.00  0.00     0.007 A 
ENDBRANCH  21  22
ENDBRANCH  20  21
ENDBRANCH  19  20
ENDBRANCH  17  19
ENDBRANCH  16  17
ENDBRANCH  15  16
ENDBRANCH   1  15
BRANCH   1  28
HETATM   28  O   UNK N   1      30.409  24.119  -2.968  0.00  0.00    -0.312 OA
BRANCH  28  29
HETATM   29  C   UNK N   1      30.689  22.798  -2.793  0.00  0.00     0.259 C 
HETATM   30  O   UNK N   1      31.657  22.481  -2.130  0.00  0.00    -0.265 OA
BRANCH  29  31
HETATM   31  C   UNK N   1      29.889  21.722  -3.461  0.00  0.00     0.111 C 
BRANCH  31  32
HETATM   32  C   UNK N   1      30.548  21.243  -4.746  0.00  0.00     0.014 C 
BRANCH  32  33
HETATM   33  C   UNK N   1      29.629  21.507  -5.930  0.00  0.00     0.039 C 
BRANCH  33  34
HETATM   34  C   UNK N   1      30.037  20.688  -7.111  0.00  0.00    -0.058 A 
HETATM   35  C   UNK N   1      31.059  21.148  -7.947  0.00  0.00     0.007 A 
HETATM   36  C   UNK N   1      31.429  20.408  -9.074  0.00  0.00     0.001 A 
HETATM   37  C   UNK N   1      30.779  19.206  -9.365  0.00  0.00     0.000 A 
HETATM   38  C   UNK N   1      29.759  18.742  -8.529  0.00  0.00     0.001 A 
HETATM   39  C   UNK N   1      29.385  19.483  -7.403  0.00  0.00     0.007 A 
ENDBRANCH  33  34
ENDBRANCH  32  33
ENDBRANCH  31  32
ENDBRANCH  29  31
ENDBRANCH  28  29
ENDBRANCH   1  28
TORSDOF 20
ENDMDL
MODEL 8
REMARK VINA RESULT:      -5.5      3.221      6.089
REMARK  20 active torsions:
REMARK  status: ('A' for Active; 'I' for Inactive)
REMARK    1  A    between atoms: O_1  and  C_2 
REMARK    2  A    between atoms: O_1  and  C_18 
REMARK    3  A    between atoms: C_2  and  C_3 
REMARK    4  A    between atoms: C_3  and  C_4 
REMARK    5  A    between atoms: C_3  and  O_6 
REMARK    6  A    between atoms: C_4  and  O_5 
REMARK    7  A    between atoms: O_5  and  C_7 
REMARK    8  A    between atoms: O_6  and  C_29 
REMARK    9  A    between atoms: C_7  and  C_8 
REMARK   10  A    between atoms: C_8  and  C_10 
REMARK   11  A    between atoms: C_10  and  C_11 
REMARK   12  A    between atoms: C_11  and  C_12 
REMARK   13  A    between atoms: C_18  and  C_20 
REMARK   14  A    between atoms: C_20  and  C_21 
REMARK   15  A    between atoms: C_21  and  C_22 
REMARK   16  A    between atoms: C_22  and  C_23 
REMARK   17  A    between atoms: C_29  and  C_30 
REMARK   18  A    between atoms: C_30  and  C_32 
REMARK   19  A    between atoms: C_32  and  C_33 
REMARK   20  A    between atoms: C_33  and  C_34 
ROOT
HETATM    1  C   UNK N   1      29.035  29.981  -2.675  0.00  0.00     0.180 C 
ENDROOT
BRANCH   1   2
HETATM    2  C   UNK N   1      27.513  29.847  -2.657  0.00  0.00     0.213 C 
BRANCH   2   3
HETATM    3  O   UNK N   1      27.187  28.550  -2.325  0.00  0.00    -0.319 OA
BRANCH   3   4
HETATM    4  C   UNK N   1      26.472  27.737  -3.152  0.00  0.00     0.258 C 
HETATM    5  O   UNK N   1      25.256  27.772  -3.126  0.00  0.00    -0.265 OA
BRANCH   4   6
HETATM    6  C   UNK N   1      27.164  26.781  -4.086  0.00  0.00     0.111 C 
BRANCH   6   7
HETATM    7  C   UNK N   1      26.824  25.347  -3.704  0.00  0.00     0.014 C 
BRANCH   7   8
HETATM    8  C   UNK N   1      25.858  24.726  -4.699  0.00  0.00     0.039 C 
BRANCH   8   9
HETATM    9  C   UNK N   1      26.583  23.786  -5.599  0.00  0.00    -0.058 A 
HETATM   10  C   UNK N   1      25.881  23.030  -6.548  0.00  0.00     0.007 A 
HETATM   11  C   UNK N   1      26.572  22.182  -7.415  0.00  0.00     0.001 A 
HETATM   12  C   UNK N   1      27.964  22.085  -7.333  0.00  0.00     0.000 A 
HETATM   13  C   UNK N   1      28.665  22.833  -6.383  0.00  0.00     0.001 A 
HETATM   14  C   UNK N   1      27.974  23.686  -5.518  0.00  0.00     0.007 A 
ENDBRANCH   8   9
ENDBRANCH   7   8
ENDBRANCH   6   7
ENDBRANCH   4   6
ENDBRANCH   3   4
ENDBRANCH   2   3
ENDBRANCH   1   2
BRANCH   1  15
HETATM   15  C   UNK N   1      29.637  30.929  -3.709  0.00  0.00     0.213 C 
BRANCH  15  16
HETATM   16  O   UNK N   1      28.906  30.917  -4.873  0.00  0.00    -0.319 OA
BRANCH  16  17
HETATM   17  C   UNK N   1      29.220  30.120  -5.926  0.00  0.00     0.258 C 
HETATM   18  O   UNK N   1      30.366  30.093  -6.331  0.00  0.00    -0.265 OA
BRANCH  17  19
HETATM   19  C   UNK N   1      28.189  29.249  -6.593  0.00  0.00     0.111 C 
BRANCH  19  20
HETATM   20  C   UNK N   1      28.799  28.379  -7.684  0.00  0.00     0.014 C 
BRANCH  20  21
HETATM   21  C   UNK N   1      28.706  26.899  -7.333  0.00  0.00     0.039 C 
BRANCH  21  22
HETATM   22  C   UNK N   1      27.802  26.173  -8.274  0.00  0.00    -0.058 A 
HETATM   23  C   UNK N   1      28.346  25.289  -9.211  0.00  0.00     0.007 A 
HETATM   24  C   UNK N   1      27.510  24.600 -10.094  0.00  0.00     0.001 A 
HETATM   25  C   UNK N   1      26.126  24.793 -10.040  0.00  0.00     0.000 A 
HETATM   26  C   UNK N   1      25.579  25.672  -9.101  0.00  0.00     0.001 A 
HETATM   27  C   UNK N   1      26.415  26.359  -8.217  0.00  0.00     0.007 A 
ENDBRANCH  21  22
ENDBRANCH  20  21
ENDBRANCH  19  20
ENDBRANCH  17  19
ENDBRANCH  16  17
ENDBRANCH  15  16
ENDBRANCH   1  15
BRANCH   1  28
HETATM   28  O   UNK N   1      29.685  28.768  -2.545  0.00  0.00    -0.312 OA
BRANCH  28  29
HETATM   29  C   UNK N   1      31.029  28.557  -2.584  0.00  0.00     0.259 C 
HETATM   30  O   UNK N   1      31.709  28.892  -1.633  0.00  0.00    -0.265 OA
BRANCH  29  31
HETATM   31  C   UNK N   1      31.710  28.000  -3.796  0.00  0.00     0.111 C 
BRANCH  31  32
HETATM   32  C   UNK N   1      30.933  26.838  -4.397  0.00  0.00     0.014 C 
BRANCH  32  33
HETATM   33  C   UNK N   1      31.889  25.717  -4.778  0.00  0.00     0.039 C 
BRANCH  33  34
HETATM   34  C   UNK N   1      31.440  24.417  -4.196  0.00  0.00    -0.058 A 
HETATM   35  C   UNK N   1      30.546  24.415  -3.120  0.00  0.00     0.007 A 
HETATM   36  C   UNK N   1      30.142  23.207  -2.546  0.00  0.00     0.001 A 
HETATM   37  C   UNK N   1      30.630  21.997  -3.047  0.00  0.00     0.000 A 
HETATM   38  C   UNK N   1      31.521  21.995  -4.125  0.00  0.00     0.001 A 
HETATM   39  C   UNK N   1      31.929  23.203  -4.698  0.00  0.00     0.007 A 
ENDBRANCH  33  34
ENDBRANCH  32  33
ENDBRANCH  31  32
ENDBRANCH  29  31
ENDBRANCH  28  29
ENDBRANCH   1  28
TORSDOF 20
ENDMDL
MODEL 9
REMARK VINA RESULT:      -5.5      2.670      6.356
REMARK  20 active torsions:
REMARK  status: ('A' for Active; 'I' for Inactive)
REMARK    1  A    between atoms: O_1  and  C_2 
REMARK    2  A    between atoms: O_1  and  C_18 
REMARK    3  A    between atoms: C_2  and  C_3 
REMARK    4  A    between atoms: C_3  and  C_4 
REMARK    5  A    between atoms: C_3  and  O_6 
REMARK    6  A    between atoms: C_4  and  O_5 
REMARK    7  A    between atoms: O_5  and  C_7 
REMARK    8  A    between atoms: O_6  and  C_29 
REMARK    9  A    between atoms: C_7  and  C_8 
REMARK   10  A    between atoms: C_8  and  C_10 
REMARK   11  A    between atoms: C_10  and  C_11 
REMARK   12  A    between atoms: C_11  and  C_12 
REMARK   13  A    between atoms: C_18  and  C_20 
REMARK   14  A    between atoms: C_20  and  C_21 
REMARK   15  A    between atoms: C_21  and  C_22 
REMARK   16  A    between atoms: C_22  and  C_23 
REMARK   17  A    between atoms: C_29  and  C_30 
REMARK   18  A    between atoms: C_30  and  C_32 
REMARK   19  A    between atoms: C_32  and  C_33 
REMARK   20  A    between atoms: C_33  and  C_34 
ROOT
HETATM    1  C   UNK N   1      27.809  23.007 -10.547  0.00  0.00     0.180 C 
ENDROOT
BRANCH   1   2
HETATM    2  C   UNK N   1      28.519  24.311 -10.908  0.00  0.00     0.213 C 
BRANCH   2   3
HETATM    3  O   UNK N   1      29.081  24.839  -9.765  0.00  0.00    -0.319 OA
BRANCH   3   4
HETATM    4  C   UNK N   1      29.998  25.846  -9.795  0.00  0.00     0.258 C 
HETATM    5  O   UNK N   1      31.151  25.619  -9.481  0.00  0.00    -0.265 OA
BRANCH   4   6
HETATM    6  C   UNK N   1      29.601  27.242 -10.194  0.00  0.00     0.111 C 
BRANCH   6   7
HETATM    7  C   UNK N   1      28.343  27.657  -9.444  0.00  0.00     0.014 C 
BRANCH   7   8
HETATM    8  C   UNK N   1      28.674  28.162  -8.050  0.00  0.00     0.039 C 
BRANCH   8   9
HETATM    9  C   UNK N   1      27.559  27.852  -7.113  0.00  0.00    -0.058 A 
HETATM   10  C   UNK N   1      27.432  28.551  -5.905  0.00  0.00     0.007 A 
HETATM   11  C   UNK N   1      26.360  28.283  -5.052  0.00  0.00     0.001 A 
HETATM   12  C   UNK N   1      25.415  27.314  -5.403  0.00  0.00     0.000 A 
HETATM   13  C   UNK N   1      25.544  26.612  -6.605  0.00  0.00     0.001 A 
HETATM   14  C   UNK N   1      26.614  26.882  -7.461  0.00  0.00     0.007 A 
ENDBRANCH   8   9
ENDBRANCH   7   8
ENDBRANCH   6   7
ENDBRANCH   4   6
ENDBRANCH   3   4
ENDBRANCH   2   3
ENDBRANCH   1   2
BRANCH   1  15
HETATM   15  C   UNK N   1      26.306  23.082 -10.294  0.00  0.00     0.213 C 
BRANCH  15  16
HETATM   16  O   UNK N   1      26.040  23.621  -9.058  0.00  0.00    -0.319 OA
BRANCH  16  17
HETATM   17  C   UNK N   1      25.389  22.934  -8.085  0.00  0.00     0.258 C 
HETATM   18  O   UNK N   1      24.220  22.639  -8.244  0.00  0.00    -0.265 OA
BRANCH  17  19
HETATM   19  C   UNK N   1      26.084  22.507  -6.819  0.00  0.00     0.111 C 
BRANCH  19  20
HETATM   20  C   UNK N   1      27.398  23.250  -6.613  0.00  0.00     0.014 C 
BRANCH  20  21
HETATM   21  C   UNK N   1      27.447  23.926  -5.249  0.00  0.00     0.039 C 
BRANCH  21  22
HETATM   22  C   UNK N   1      28.612  24.855  -5.145  0.00  0.00    -0.058 A 
HETATM   23  C   UNK N   1      28.788  25.615  -3.984  0.00  0.00     0.007 A 
HETATM   24  C   UNK N   1      29.876  26.485  -3.872  0.00  0.00     0.001 A 
HETATM   25  C   UNK N   1      30.793  26.594  -4.923  0.00  0.00     0.000 A 
HETATM   26  C   UNK N   1      30.624  25.831  -6.081  0.00  0.00     0.001 A 
HETATM   27  C   UNK N   1      29.537  24.961  -6.192  0.00  0.00     0.007 A 
ENDBRANCH  21  22
ENDBRANCH  20  21
ENDBRANCH  19  20
ENDBRANCH  17  19
ENDBRANCH  16  17
ENDBRANCH  15  16
ENDBRANCH   1  15
BRANCH   1  28
HETATM   28  O   UNK N   1      28.517  22.240  -9.640  0.00  0.00    -0.312 OA
BRANCH  28  29
HETATM   29  C   UNK N   1      28.849  20.927  -9.770  0.00  0.00     0.259 C 
HETATM   30  O   UNK N   1      28.511  20.327 -10.772  0.00  0.00    -0.265 OA
BRANCH  29  31
HETATM   31  C   UNK N   1      29.548  20.174  -8.681  0.00  0.00     0.111 C 
BRANCH  31  32
HETATM   32  C   UNK N   1      30.144  21.109  -7.640  0.00  0.00     0.014 C 
BRANCH  32  33
HETATM   33  C   UNK N   1      29.994  20.502  -6.252  0.00  0.00     0.039 C 
BRANCH  33  34
HETATM   34  C   UNK N   1      30.525  21.430  -5.208  0.00  0.00    -0.058 A 
HETATM   35  C   UNK N   1      31.671  22.186  -5.477  0.00  0.00     0.007 A 
HETATM   36  C   UNK N   1      32.197  23.033  -4.497  0.00  0.00     0.001 A 
HETATM   37  C   UNK N   1      31.577  23.128  -3.248  0.00  0.00     0.000 A 
HETATM   38  C   UNK N   1      30.430  22.376  -2.978  0.00  0.00     0.001 A 
HETATM   39  C   UNK N   1      29.904  21.525  -3.956  0.00  0.00     0.007 A 
ENDBRANCH  33  34
ENDBRANCH  32  33
ENDBRANCH  31  32
ENDBRANCH  29  31
ENDBRANCH  28  29
ENDBRANCH   1  28
TORSDOF 20
ENDMDL
