MODEL 1
REMARK VINA RESULT:      -6.4      0.000      0.000
REMARK  20 active torsions:
REMARK  status: ('A' for Active; 'I' for Inactive)
REMARK    1  A    between atoms: C_1  and  C_2 
REMARK    2  A    between atoms: C_1  and  N_15 
REMARK       I    between atoms: C_2  and  N_3 
REMARK    3  A    between atoms: N_3  and  C_4 
REMARK    4  A    between atoms: C_4  and  C_5 
REMARK    5  A    between atoms: C_4  and  C_28 
REMARK       I    between atoms: C_5  and  N_6 
REMARK    6  A    between atoms: N_6  and  C_7 
REMARK    7  A    between atoms: C_7  and  C_8 
REMARK    8  A    between atoms: C_7  and  C_30 
REMARK       I    between atoms: C_8  and  N_9 
REMARK    9  A    between atoms: N_9  and  C_10 
REMARK   10  A    between atoms: C_10  and  C_11 
REMARK   11  A    between atoms: C_10  and  C_27 
REMARK       I    between atoms: C_11  and  N_12 
REMARK   12  A    between atoms: N_12  and  C_13 
REMARK   13  A    between atoms: C_13  and  C_14 
REMARK   14  A    between atoms: C_13  and  C_29 
REMARK   15  A    between atoms: C_14  and  C_16 
REMARK   16  A    between atoms: C_27  and  C_33 
REMARK   17  A    between atoms: C_28  and  C_34 
REMARK   18  A    between atoms: C_29  and  C_49 
REMARK   19  A    between atoms: C_30  and  C_46 
REMARK   20  A    between atoms: C_34  and  C_35 
ROOT
HETATM    1  C   UNK N   1      23.117  17.954   4.094  0.00  0.00     0.177 C 
ENDROOT
BRANCH   1   2
HETATM    2  N   UNK N   1      22.044  18.807   3.597  0.00  0.00    -0.346 N 
HETATM    3  C   UNK N   1      20.842  18.391   3.104  0.00  0.00     0.241 C 
HETATM    4  O   UNK N   1      20.040  19.228   2.721  0.00  0.00    -0.271 OA
HETATM    5  H   UNK N   1      22.202  19.779   3.620  0.00  0.00     0.163 HD
BRANCH   3   6
HETATM    6  C   UNK N   1      20.450  16.940   3.087  0.00  0.00     0.177 C 
BRANCH   6   7
HETATM    7  N   UNK N   1      20.676  16.300   4.365  0.00  0.00    -0.346 N 
HETATM    8  C   UNK N   1      19.652  15.875   5.149  0.00  0.00     0.246 C 
HETATM    9  O   UNK N   1      18.495  16.173   4.885  0.00  0.00    -0.272 OA
HETATM   10  H   UNK N   1      21.601  16.169   4.676  0.00  0.00     0.163 HD
BRANCH   8  11
HETATM   11  C   UNK N   1      19.925  14.935   6.282  0.00  0.00     0.374 C 
BRANCH  11  12
HETATM   12  N   UNK N   1      20.514  15.651   7.420  0.00  0.00     0.101 N 
HETATM   13  C   UNK N   1      21.373  14.763   8.240  0.00  0.00     0.299 C 
HETATM   14  C   UNK N   1      20.766  14.356   9.584  0.00  0.00     0.198 C 
HETATM   15  O   UNK N   1      19.374  14.414   9.517  0.00  0.00    -0.388 OA
HETATM   16  C   UNK N   1      19.097  15.783   9.502  0.00  0.00     0.198 C 
HETATM   17  C   UNK N   1      19.441  16.371   8.129  0.00  0.00     0.299 C 
ENDBRANCH  11  12
ENDBRANCH   8  11
ENDBRANCH   6   7
BRANCH   6  18
HETATM   18  C   UNK N   1      21.287  16.237   2.020  0.00  0.00     0.039 C 
BRANCH  18  19
HETATM   19  C   UNK N   1      20.421  15.294   1.201  0.00  0.00     0.041 C 
BRANCH  19  20
HETATM   20  C   UNK N   1      20.782  13.874   1.457  0.00  0.00    -0.058 A 
HETATM   21  C   UNK N   1      20.506  13.285   2.699  0.00  0.00     0.007 A 
HETATM   22  C   UNK N   1      20.867  11.959   2.940  0.00  0.00     0.001 A 
HETATM   23  C   UNK N   1      21.516  11.220   1.946  0.00  0.00     0.000 A 
HETATM   24  C   UNK N   1      21.799  11.809   0.710  0.00  0.00     0.001 A 
HETATM   25  C   UNK N   1      21.432  13.136   0.465  0.00  0.00     0.007 A 
ENDBRANCH  19  20
ENDBRANCH  18  19
ENDBRANCH   6  18
ENDBRANCH   3   6
ENDBRANCH   1   2
BRANCH   1  26
HETATM   26  C   UNK N   1      23.013  17.646   5.587  0.00  0.00     0.241 C 
HETATM   27  N   UNK N   1      23.697  16.662   6.238  0.00  0.00    -0.346 N 
HETATM   28  H   UNK N   1      23.617  16.665   7.219  0.00  0.00     0.163 HD
HETATM   29  O   UNK N   1      22.205  18.284   6.236  0.00  0.00    -0.271 OA
BRANCH  27  30
HETATM   30  C   UNK N   1      24.523  15.614   5.682  0.00  0.00     0.180 C 
BRANCH  30  31
HETATM   31  C   UNK N   1      25.619  15.056   6.566  0.00  0.00     0.241 C 
HETATM   32  N   UNK N   1      26.893  15.508   6.439  0.00  0.00    -0.348 N 
HETATM   33  H   UNK N   1      27.595  15.153   7.031  0.00  0.00     0.163 HD
HETATM   34  O   UNK N   1      25.360  14.212   7.415  0.00  0.00    -0.271 OA
BRANCH  32  35
HETATM   35  C   UNK N   1      27.235  16.508   5.442  0.00  0.00     0.158 C 
BRANCH  35  36
HETATM   36  C   UNK N   1      27.751  15.896   4.165  0.00  0.00     0.185 C 
HETATM   37  O   UNK N   1      27.476  16.401   3.085  0.00  0.00    -0.292 OA
BRANCH  36  38
HETATM   38  C   UNK N   1      28.658  14.697   4.231  0.00  0.00     0.141 A 
HETATM   39  O   UNK N   1      29.372  14.656   5.444  0.00  0.00    -0.367 OA
HETATM   40  C   UNK N   1      30.121  14.910   4.281  0.00  0.00     0.215 A 
HETATM   41  C   UNK N   1      28.130  13.315   3.898  0.00  0.00     0.057 C 
ENDBRANCH  36  38
ENDBRANCH  35  36
BRANCH  35  42
HETATM   42  C   UNK N   1      28.087  17.664   5.990  0.00  0.00     0.037 C 
BRANCH  42  43
HETATM   43  C   UNK N   1      28.657  17.538   7.404  0.00  0.00    -0.020 C 
HETATM   44  C   UNK N   1      28.225  18.654   8.338  0.00  0.00     0.009 C 
HETATM   45  C   UNK N   1      30.161  17.387   7.395  0.00  0.00     0.009 C 
ENDBRANCH  42  43
ENDBRANCH  35  42
ENDBRANCH  32  35
ENDBRANCH  30  31
BRANCH  30  46
HETATM   46  C   UNK N   1      23.623  14.514   5.101  0.00  0.00     0.073 C 
BRANCH  46  47
HETATM   47  C   UNK N   1      24.140  13.845   3.861  0.00  0.00    -0.056 A 
HETATM   48  C   UNK N   1      24.450  12.477   3.850  0.00  0.00     0.007 A 
HETATM   49  C   UNK N   1      24.973  11.887   2.696  0.00  0.00     0.001 A 
HETATM   50  C   UNK N   1      25.197  12.660   1.552  0.00  0.00     0.000 A 
HETATM   51  C   UNK N   1      24.895  14.025   1.563  0.00  0.00     0.001 A 
HETATM   52  C   UNK N   1      24.371  14.616   2.716  0.00  0.00     0.007 A 
ENDBRANCH  46  47
ENDBRANCH  30  46
ENDBRANCH  27  30
ENDBRANCH   1  26
BRANCH   1  53
HETATM   53  C   UNK N   1      24.508  18.428   3.637  0.00  0.00     0.038 C 
BRANCH  53  54
HETATM   54  C   UNK N   1      24.828  19.917   3.818  0.00  0.00    -0.020 C 
HETATM   55  C   UNK N   1      25.443  20.528   2.569  0.00  0.00     0.009 C 
HETATM   56  C   UNK N   1      25.699  20.181   5.030  0.00  0.00     0.009 C 
ENDBRANCH  53  54
ENDBRANCH   1  53
TORSDOF 20
ENDMDL
MODEL 2
REMARK VINA RESULT:      -6.0      1.854      3.374
REMARK  20 active torsions:
REMARK  status: ('A' for Active; 'I' for Inactive)
REMARK    1  A    between atoms: C_1  and  C_2 
REMARK    2  A    between atoms: C_1  and  N_15 
REMARK       I    between atoms: C_2  and  N_3 
REMARK    3  A    between atoms: N_3  and  C_4 
REMARK    4  A    between atoms: C_4  and  C_5 
REMARK    5  A    between atoms: C_4  and  C_28 
REMARK       I    between atoms: C_5  and  N_6 
REMARK    6  A    between atoms: N_6  and  C_7 
REMARK    7  A    between atoms: C_7  and  C_8 
REMARK    8  A    between atoms: C_7  and  C_30 
REMARK       I    between atoms: C_8  and  N_9 
REMARK    9  A    between atoms: N_9  and  C_10 
REMARK   10  A    between atoms: C_10  and  C_11 
REMARK   11  A    between atoms: C_10  and  C_27 
REMARK       I    between atoms: C_11  and  N_12 
REMARK   12  A    between atoms: N_12  and  C_13 
REMARK   13  A    between atoms: C_13  and  C_14 
REMARK   14  A    between atoms: C_13  and  C_29 
REMARK   15  A    between atoms: C_14  and  C_16 
REMARK   16  A    between atoms: C_27  and  C_33 
REMARK   17  A    between atoms: C_28  and  C_34 
REMARK   18  A    between atoms: C_29  and  C_49 
REMARK   19  A    between atoms: C_30  and  C_46 
REMARK   20  A    between atoms: C_34  and  C_35 
ROOT
HETATM    1  C   UNK N   1      21.258  16.806   4.765  0.00  0.00     0.177 C 
ENDROOT
BRANCH   1   2
HETATM    2  N   UNK N   1      19.831  16.816   5.063  0.00  0.00    -0.346 N 
HETATM    3  C   UNK N   1      19.073  15.743   5.427  0.00  0.00     0.241 C 
HETATM    4  O   UNK N   1      17.882  15.908   5.644  0.00  0.00    -0.271 OA
HETATM    5  H   UNK N   1      19.370  17.684   4.996  0.00  0.00     0.163 HD
BRANCH   3   6
HETATM    6  C   UNK N   1      19.673  14.381   5.640  0.00  0.00     0.177 C 
BRANCH   6   7
HETATM    7  N   UNK N   1      20.824  14.425   6.516  0.00  0.00    -0.346 N 
HETATM    8  C   UNK N   1      20.698  14.463   7.868  0.00  0.00     0.246 C 
HETATM    9  O   UNK N   1      19.606  14.637   8.391  0.00  0.00    -0.272 OA
HETATM   10  H   UNK N   1      21.725  14.427   6.121  0.00  0.00     0.163 HD
BRANCH   8  11
HETATM   11  C   UNK N   1      21.885  14.173   8.732  0.00  0.00     0.374 C 
BRANCH  11  12
HETATM   12  N   UNK N   1      21.939  12.748   9.080  0.00  0.00     0.101 N 
HETATM   13  C   UNK N   1      21.825  12.536  10.543  0.00  0.00     0.299 C 
HETATM   14  C   UNK N   1      23.133  12.134  11.230  0.00  0.00     0.198 C 
HETATM   15  O   UNK N   1      24.223  12.596  10.490  0.00  0.00    -0.388 OA
HETATM   16  C   UNK N   1      24.242  11.762   9.370  0.00  0.00     0.198 C 
HETATM   17  C   UNK N   1      23.107  12.145   8.413  0.00  0.00     0.299 C 
ENDBRANCH  11  12
ENDBRANCH   8  11
ENDBRANCH   6   7
BRANCH   6  18
HETATM   18  C   UNK N   1      20.101  13.836   4.279  0.00  0.00     0.039 C 
BRANCH  18  19
HETATM   19  C   UNK N   1      20.648  12.425   4.418  0.00  0.00     0.041 C 
BRANCH  19  20
HETATM   20  C   UNK N   1      20.931  11.824   3.087  0.00  0.00    -0.058 A 
HETATM   21  C   UNK N   1      21.840  10.764   2.967  0.00  0.00     0.007 A 
HETATM   22  C   UNK N   1      22.117  10.219   1.712  0.00  0.00     0.001 A 
HETATM   23  C   UNK N   1      21.497  10.740   0.572  0.00  0.00     0.000 A 
HETATM   24  C   UNK N   1      20.596  11.803   0.690  0.00  0.00     0.001 A 
HETATM   25  C   UNK N   1      20.313  12.345   1.948  0.00  0.00     0.007 A 
ENDBRANCH  19  20
ENDBRANCH  18  19
ENDBRANCH   6  18
ENDBRANCH   3   6
ENDBRANCH   1   2
BRANCH   1  26
HETATM   26  C   UNK N   1      22.134  17.216   5.948  0.00  0.00     0.241 C 
HETATM   27  N   UNK N   1      23.461  16.932   6.081  0.00  0.00    -0.346 N 
HETATM   28  H   UNK N   1      23.915  17.367   6.838  0.00  0.00     0.163 HD
HETATM   29  O   UNK N   1      21.591  17.782   6.878  0.00  0.00    -0.271 OA
BRANCH  27  30
HETATM   30  C   UNK N   1      24.292  16.079   5.261  0.00  0.00     0.180 C 
BRANCH  30  31
HETATM   31  C   UNK N   1      25.676  15.755   5.782  0.00  0.00     0.241 C 
HETATM   32  N   UNK N   1      26.774  16.133   5.079  0.00  0.00    -0.348 N 
HETATM   33  H   UNK N   1      27.670  15.935   5.434  0.00  0.00     0.163 HD
HETATM   34  O   UNK N   1      25.815  15.171   6.849  0.00  0.00    -0.271 OA
BRANCH  32  35
HETATM   35  C   UNK N   1      26.645  16.827   3.808  0.00  0.00     0.158 C 
BRANCH  35  36
HETATM   36  C   UNK N   1      27.057  15.971   2.639  0.00  0.00     0.185 C 
HETATM   37  O   UNK N   1      26.334  15.883   1.655  0.00  0.00    -0.292 OA
BRANCH  36  38
HETATM   38  C   UNK N   1      28.391  15.274   2.663  0.00  0.00     0.141 A 
HETATM   39  O   UNK N   1      28.487  14.308   1.643  0.00  0.00    -0.367 OA
HETATM   40  C   UNK N   1      28.434  13.827   2.964  0.00  0.00     0.215 A 
HETATM   41  C   UNK N   1      29.675  16.076   2.733  0.00  0.00     0.057 C 
ENDBRANCH  36  38
ENDBRANCH  35  36
BRANCH  35  42
HETATM   42  C   UNK N   1      27.246  18.242   3.811  0.00  0.00     0.037 C 
BRANCH  42  43
HETATM   43  C   UNK N   1      26.308  19.429   4.032  0.00  0.00    -0.020 C 
HETATM   44  C   UNK N   1      26.201  19.861   5.483  0.00  0.00     0.009 C 
HETATM   45  C   UNK N   1      24.941  19.187   3.433  0.00  0.00     0.009 C 
ENDBRANCH  42  43
ENDBRANCH  35  42
ENDBRANCH  32  35
ENDBRANCH  30  31
BRANCH  30  46
HETATM   46  C   UNK N   1      23.500  14.819   4.878  0.00  0.00     0.073 C 
BRANCH  46  47
HETATM   47  C   UNK N   1      23.813  14.246   3.528  0.00  0.00    -0.056 A 
HETATM   48  C   UNK N   1      23.176  14.722   2.372  0.00  0.00     0.007 A 
HETATM   49  C   UNK N   1      23.451  14.140   1.130  0.00  0.00     0.001 A 
HETATM   50  C   UNK N   1      24.356  13.078   1.039  0.00  0.00     0.000 A 
HETATM   51  C   UNK N   1      24.987  12.597   2.190  0.00  0.00     0.001 A 
HETATM   52  C   UNK N   1      24.712  13.178   3.431  0.00  0.00     0.007 A 
ENDBRANCH  46  47
ENDBRANCH  30  46
ENDBRANCH  27  30
ENDBRANCH   1  26
BRANCH   1  53
HETATM   53  C   UNK N   1      21.592  17.526   3.446  0.00  0.00     0.038 C 
BRANCH  53  54
HETATM   54  C   UNK N   1      20.419  17.830   2.506  0.00  0.00    -0.020 C 
HETATM   55  C   UNK N   1      20.265  16.778   1.420  0.00  0.00     0.009 C 
HETATM   56  C   UNK N   1      20.504  19.218   1.901  0.00  0.00     0.009 C 
ENDBRANCH  53  54
ENDBRANCH   1  53
TORSDOF 20
ENDMDL
MODEL 3
REMARK VINA RESULT:      -6.0      2.470      8.148
REMARK  20 active torsions:
REMARK  status: ('A' for Active; 'I' for Inactive)
REMARK    1  A    between atoms: C_1  and  C_2 
REMARK    2  A    between atoms: C_1  and  N_15 
REMARK       I    between atoms: C_2  and  N_3 
REMARK    3  A    between atoms: N_3  and  C_4 
REMARK    4  A    between atoms: C_4  and  C_5 
REMARK    5  A    between atoms: C_4  and  C_28 
REMARK       I    between atoms: C_5  and  N_6 
REMARK    6  A    between atoms: N_6  and  C_7 
REMARK    7  A    between atoms: C_7  and  C_8 
REMARK    8  A    between atoms: C_7  and  C_30 
REMARK       I    between atoms: C_8  and  N_9 
REMARK    9  A    between atoms: N_9  and  C_10 
REMARK   10  A    between atoms: C_10  and  C_11 
REMARK   11  A    between atoms: C_10  and  C_27 
REMARK       I    between atoms: C_11  and  N_12 
REMARK   12  A    between atoms: N_12  and  C_13 
REMARK   13  A    between atoms: C_13  and  C_14 
REMARK   14  A    between atoms: C_13  and  C_29 
REMARK   15  A    between atoms: C_14  and  C_16 
REMARK   16  A    between atoms: C_27  and  C_33 
REMARK   17  A    between atoms: C_28  and  C_34 
REMARK   18  A    between atoms: C_29  and  C_49 
REMARK   19  A    between atoms: C_30  and  C_46 
REMARK   20  A    between atoms: C_34  and  C_35 
ROOT
HETATM    1  C   UNK N   1      23.516  13.306   3.816  0.00  0.00     0.177 C 
ENDROOT
BRANCH   1   2
HETATM    2  N   UNK N   1      24.665  12.465   4.129  0.00  0.00    -0.346 N 
HETATM    3  C   UNK N   1      25.640  12.734   5.044  0.00  0.00     0.241 C 
HETATM    4  O   UNK N   1      26.547  11.929   5.195  0.00  0.00    -0.271 OA
HETATM    5  H   UNK N   1      24.744  11.618   3.633  0.00  0.00     0.163 HD
BRANCH   3   6
HETATM    6  C   UNK N   1      25.592  13.954   5.921  0.00  0.00     0.177 C 
BRANCH   6   7
HETATM    7  N   UNK N   1      26.878  14.611   6.008  0.00  0.00    -0.346 N 
HETATM    8  C   UNK N   1      27.072  15.877   5.557  0.00  0.00     0.246 C 
HETATM    9  O   UNK N   1      26.211  16.447   4.902  0.00  0.00    -0.272 OA
HETATM   10  H   UNK N   1      27.636  14.126   6.407  0.00  0.00     0.163 HD
BRANCH   8  11
HETATM   11  C   UNK N   1      28.302  16.629   5.963  0.00  0.00     0.374 C 
BRANCH  11  12
HETATM   12  N   UNK N   1      29.504  15.815   5.748  0.00  0.00     0.101 N 
HETATM   13  C   UNK N   1      30.614  16.232   6.638  0.00  0.00     0.299 C 
HETATM   14  C   UNK N   1      31.739  16.995   5.934  0.00  0.00     0.198 C 
HETATM   15  O   UNK N   1      31.247  17.622   4.789  0.00  0.00    -0.388 OA
HETATM   16  C   UNK N   1      31.039  16.570   3.896  0.00  0.00     0.198 C 
HETATM   17  C   UNK N   1      29.793  15.776   4.303  0.00  0.00     0.299 C 
ENDBRANCH  11  12
ENDBRANCH   8  11
ENDBRANCH   6   7
BRANCH   6  18
HETATM   18  C   UNK N   1      25.158  13.515   7.318  0.00  0.00     0.039 C 
BRANCH  18  19
HETATM   19  C   UNK N   1      23.738  13.974   7.603  0.00  0.00     0.041 C 
BRANCH  19  20
HETATM   20  C   UNK N   1      23.213  13.352   8.849  0.00  0.00    -0.058 A 
HETATM   21  C   UNK N   1      24.013  12.478   9.597  0.00  0.00     0.007 A 
HETATM   22  C   UNK N   1      23.507  11.881  10.752  0.00  0.00     0.001 A 
HETATM   23  C   UNK N   1      22.195  12.146  11.157  0.00  0.00     0.000 A 
HETATM   24  C   UNK N   1      21.392  13.011  10.407  0.00  0.00     0.001 A 
HETATM   25  C   UNK N   1      21.902  13.615   9.253  0.00  0.00     0.007 A 
ENDBRANCH  19  20
ENDBRANCH  18  19
ENDBRANCH   6  18
ENDBRANCH   3   6
ENDBRANCH   1   2
BRANCH   1  26
HETATM   26  C   UNK N   1      22.306  12.525   3.306  0.00  0.00     0.241 C 
HETATM   27  N   UNK N   1      21.019  12.711   3.714  0.00  0.00    -0.346 N 
HETATM   28  H   UNK N   1      20.335  12.217   3.206  0.00  0.00     0.163 HD
HETATM   29  O   UNK N   1      22.514  11.618   2.521  0.00  0.00    -0.271 OA
BRANCH  27  30
HETATM   30  C   UNK N   1      20.521  13.535   4.793  0.00  0.00     0.180 C 
BRANCH  30  31
HETATM   31  C   UNK N   1      19.244  14.307   4.541  0.00  0.00     0.241 C 
HETATM   32  N   UNK N   1      19.290  15.520   3.933  0.00  0.00    -0.348 N 
HETATM   33  H   UNK N   1      18.453  16.007   3.755  0.00  0.00     0.163 HD
HETATM   34  O   UNK N   1      18.160  13.834   4.861  0.00  0.00    -0.271 OA
BRANCH  32  35
HETATM   35  C   UNK N   1      20.558  16.111   3.540  0.00  0.00     0.158 C 
BRANCH  35  36
HETATM   36  C   UNK N   1      20.764  17.482   4.131  0.00  0.00     0.185 C 
HETATM   37  O   UNK N   1      20.201  18.453   3.644  0.00  0.00    -0.292 OA
BRANCH  36  38
HETATM   38  C   UNK N   1      21.617  17.640   5.361  0.00  0.00     0.141 A 
HETATM   39  O   UNK N   1      21.524  16.513   6.201  0.00  0.00    -0.367 OA
HETATM   40  C   UNK N   1      20.957  17.707   6.683  0.00  0.00     0.215 A 
HETATM   41  C   UNK N   1      23.065  18.072   5.242  0.00  0.00     0.057 C 
ENDBRANCH  36  38
ENDBRANCH  35  36
BRANCH  35  42
HETATM   42  C   UNK N   1      20.848  16.012   2.034  0.00  0.00     0.037 C 
BRANCH  42  43
HETATM   43  C   UNK N   1      19.775  15.409   1.126  0.00  0.00    -0.020 C 
HETATM   44  C   UNK N   1      20.134  14.039   0.582  0.00  0.00     0.009 C 
HETATM   45  C   UNK N   1      19.384  16.353   0.011  0.00  0.00     0.009 C 
ENDBRANCH  42  43
ENDBRANCH  35  42
ENDBRANCH  32  35
ENDBRANCH  30  31
BRANCH  30  46
HETATM   46  C   UNK N   1      20.455  12.698   6.080  0.00  0.00     0.073 C 
BRANCH  46  47
HETATM   47  C   UNK N   1      20.932  11.282   5.953  0.00  0.00    -0.056 A 
HETATM   48  C   UNK N   1      22.231  10.917   6.337  0.00  0.00     0.007 A 
HETATM   49  C   UNK N   1      22.668   9.599   6.167  0.00  0.00     0.001 A 
HETATM   50  C   UNK N   1      21.814   8.644   5.606  0.00  0.00     0.000 A 
HETATM   51  C   UNK N   1      20.522   9.007   5.215  0.00  0.00     0.001 A 
HETATM   52  C   UNK N   1      20.084  10.324   5.386  0.00  0.00     0.007 A 
ENDBRANCH  46  47
ENDBRANCH  30  46
ENDBRANCH  27  30
ENDBRANCH   1  26
BRANCH   1  53
HETATM   53  C   UNK N   1      23.894  14.527   2.959  0.00  0.00     0.038 C 
BRANCH  53  54
HETATM   54  C   UNK N   1      24.760  14.265   1.721  0.00  0.00    -0.020 C 
HETATM   55  C   UNK N   1      25.832  15.325   1.535  0.00  0.00     0.009 C 
HETATM   56  C   UNK N   1      23.936  14.106   0.459  0.00  0.00     0.009 C 
ENDBRANCH  53  54
ENDBRANCH   1  53
TORSDOF 20
ENDMDL
MODEL 4
REMARK VINA RESULT:      -6.0      2.455      8.353
REMARK  20 active torsions:
REMARK  status: ('A' for Active; 'I' for Inactive)
REMARK    1  A    between atoms: C_1  and  C_2 
REMARK    2  A    between atoms: C_1  and  N_15 
REMARK       I    between atoms: C_2  and  N_3 
REMARK    3  A    between atoms: N_3  and  C_4 
REMARK    4  A    between atoms: C_4  and  C_5 
REMARK    5  A    between atoms: C_4  and  C_28 
REMARK       I    between atoms: C_5  and  N_6 
REMARK    6  A    between atoms: N_6  and  C_7 
REMARK    7  A    between atoms: C_7  and  C_8 
REMARK    8  A    between atoms: C_7  and  C_30 
REMARK       I    between atoms: C_8  and  N_9 
REMARK    9  A    between atoms: N_9  and  C_10 
REMARK   10  A    between atoms: C_10  and  C_11 
REMARK   11  A    between atoms: C_10  and  C_27 
REMARK       I    between atoms: C_11  and  N_12 
REMARK   12  A    between atoms: N_12  and  C_13 
REMARK   13  A    between atoms: C_13  and  C_14 
REMARK   14  A    between atoms: C_13  and  C_29 
REMARK   15  A    between atoms: C_14  and  C_16 
REMARK   16  A    between atoms: C_27  and  C_33 
REMARK   17  A    between atoms: C_28  and  C_34 
REMARK   18  A    between atoms: C_29  and  C_49 
REMARK   19  A    between atoms: C_30  and  C_46 
REMARK   20  A    between atoms: C_34  and  C_35 
ROOT
HETATM    1  C   UNK N   1      24.597  17.690   4.578  0.00  0.00     0.177 C 
ENDROOT
BRANCH   1   2
HETATM    2  N   UNK N   1      25.306  16.783   3.685  0.00  0.00    -0.346 N 
HETATM    3  C   UNK N   1      26.378  16.004   4.007  0.00  0.00     0.241 C 
HETATM    4  O   UNK N   1      26.871  15.291   3.146  0.00  0.00    -0.271 OA
HETATM    5  H   UNK N   1      24.979  16.725   2.758  0.00  0.00     0.163 HD
BRANCH   3   6
HETATM    6  C   UNK N   1      26.923  15.942   5.407  0.00  0.00     0.177 C 
BRANCH   6   7
HETATM    7  N   UNK N   1      28.368  16.023   5.432  0.00  0.00    -0.346 N 
HETATM    8  C   UNK N   1      29.038  16.603   6.460  0.00  0.00     0.246 C 
HETATM    9  O   UNK N   1      28.441  17.234   7.321  0.00  0.00    -0.272 OA
HETATM   10  H   UNK N   1      28.881  15.646   4.681  0.00  0.00     0.163 HD
BRANCH   8  11
HETATM   11  C   UNK N   1      30.510  16.373   6.611  0.00  0.00     0.374 C 
BRANCH  11  12
HETATM   12  N   UNK N   1      30.941  16.646   7.987  0.00  0.00     0.101 N 
HETATM   13  C   UNK N   1      31.654  17.943   8.091  0.00  0.00     0.299 C 
HETATM   14  C   UNK N   1      33.168  17.821   8.281  0.00  0.00     0.198 C 
HETATM   15  O   UNK N   1      33.620  16.609   7.759  0.00  0.00    -0.388 OA
HETATM   16  C   UNK N   1      33.158  15.659   8.672  0.00  0.00     0.198 C 
HETATM   17  C   UNK N   1      31.648  15.460   8.503  0.00  0.00     0.299 C 
ENDBRANCH  11  12
ENDBRANCH   8  11
ENDBRANCH   6   7
BRANCH   6  18
HETATM   18  C   UNK N   1      26.486  14.616   6.026  0.00  0.00     0.039 C 
BRANCH  18  19
HETATM   19  C   UNK N   1      25.848  14.847   7.385  0.00  0.00     0.041 C 
BRANCH  19  20
HETATM   20  C   UNK N   1      25.135  13.631   7.858  0.00  0.00    -0.058 A 
HETATM   21  C   UNK N   1      24.987  13.384   9.231  0.00  0.00     0.007 A 
HETATM   22  C   UNK N   1      24.336  12.230   9.668  0.00  0.00     0.001 A 
HETATM   23  C   UNK N   1      23.841  11.312   8.736  0.00  0.00     0.000 A 
HETATM   24  C   UNK N   1      23.996  11.553   7.367  0.00  0.00     0.001 A 
HETATM   25  C   UNK N   1      24.642  12.712   6.929  0.00  0.00     0.007 A 
ENDBRANCH  19  20
ENDBRANCH  18  19
ENDBRANCH   6  18
ENDBRANCH   3   6
ENDBRANCH   1   2
BRANCH   1  26
HETATM   26  C   UNK N   1      23.200  18.066   4.085  0.00  0.00     0.241 C 
HETATM   27  N   UNK N   1      22.061  17.359   4.332  0.00  0.00    -0.346 N 
HETATM   28  H   UNK N   1      21.222  17.791   4.052  0.00  0.00     0.163 HD
HETATM   29  O   UNK N   1      23.104  19.036   3.358  0.00  0.00    -0.271 OA
BRANCH  27  30
HETATM   30  C   UNK N   1      21.917  16.059   4.950  0.00  0.00     0.180 C 
BRANCH  30  31
HETATM   31  C   UNK N   1      22.382  14.860   4.152  0.00  0.00     0.241 C 
HETATM   32  N   UNK N   1      21.493  14.144   3.418  0.00  0.00    -0.348 N 
HETATM   33  H   UNK N   1      21.808  13.377   2.887  0.00  0.00     0.163 HD
HETATM   34  O   UNK N   1      23.565  14.541   4.145  0.00  0.00    -0.271 OA
BRANCH  32  35
HETATM   35  C   UNK N   1      20.082  14.494   3.404  0.00  0.00     0.158 C 
BRANCH  35  36
HETATM   36  C   UNK N   1      19.254  13.585   4.276  0.00  0.00     0.185 C 
HETATM   37  O   UNK N   1      18.123  13.914   4.608  0.00  0.00    -0.292 OA
BRANCH  36  38
HETATM   38  C   UNK N   1      19.805  12.246   4.686  0.00  0.00     0.141 A 
HETATM   39  O   UNK N   1      20.484  11.620   3.623  0.00  0.00    -0.367 OA
HETATM   40  C   UNK N   1      19.276  11.028   4.034  0.00  0.00     0.215 A 
HETATM   41  C   UNK N   1      20.608  12.103   5.963  0.00  0.00     0.057 C 
ENDBRANCH  36  38
ENDBRANCH  35  36
BRANCH  35  42
HETATM   42  C   UNK N   1      19.514  14.722   1.994  0.00  0.00     0.037 C 
BRANCH  42  43
HETATM   43  C   UNK N   1      19.045  13.505   1.194  0.00  0.00    -0.020 C 
HETATM   44  C   UNK N   1      20.174  12.742   0.526  0.00  0.00     0.009 C 
HETATM   45  C   UNK N   1      17.967  13.867   0.198  0.00  0.00     0.009 C 
ENDBRANCH  42  43
ENDBRANCH  35  42
ENDBRANCH  32  35
ENDBRANCH  30  31
BRANCH  30  46
HETATM   46  C   UNK N   1      22.529  16.099   6.359  0.00  0.00     0.073 C 
BRANCH  46  47
HETATM   47  C   UNK N   1      21.595  15.743   7.478  0.00  0.00    -0.056 A 
HETATM   48  C   UNK N   1      21.806  14.600   8.263  0.00  0.00     0.007 A 
HETATM   49  C   UNK N   1      20.896  14.265   9.271  0.00  0.00     0.001 A 
HETATM   50  C   UNK N   1      19.769  15.063   9.492  0.00  0.00     0.000 A 
HETATM   51  C   UNK N   1      19.553  16.199   8.706  0.00  0.00     0.001 A 
HETATM   52  C   UNK N   1      20.462  16.535   7.699  0.00  0.00     0.007 A 
ENDBRANCH  46  47
ENDBRANCH  30  46
ENDBRANCH  27  30
ENDBRANCH   1  26
BRANCH   1  53
HETATM   53  C   UNK N   1      25.461  18.886   5.015  0.00  0.00     0.038 C 
BRANCH  53  54
HETATM   54  C   UNK N   1      26.560  19.338   4.046  0.00  0.00    -0.020 C 
HETATM   55  C   UNK N   1      27.846  19.706   4.768  0.00  0.00     0.009 C 
HETATM   56  C   UNK N   1      26.109  20.469   3.142  0.00  0.00     0.009 C 
ENDBRANCH  53  54
ENDBRANCH   1  53
TORSDOF 20
ENDMDL
MODEL 5
REMARK VINA RESULT:      -5.9      2.365      5.276
REMARK  20 active torsions:
REMARK  status: ('A' for Active; 'I' for Inactive)
REMARK    1  A    between atoms: C_1  and  C_2 
REMARK    2  A    between atoms: C_1  and  N_15 
REMARK       I    between atoms: C_2  and  N_3 
REMARK    3  A    between atoms: N_3  and  C_4 
REMARK    4  A    between atoms: C_4  and  C_5 
REMARK    5  A    between atoms: C_4  and  C_28 
REMARK       I    between atoms: C_5  and  N_6 
REMARK    6  A    between atoms: N_6  and  C_7 
REMARK    7  A    between atoms: C_7  and  C_8 
REMARK    8  A    between atoms: C_7  and  C_30 
REMARK       I    between atoms: C_8  and  N_9 
REMARK    9  A    between atoms: N_9  and  C_10 
REMARK   10  A    between atoms: C_10  and  C_11 
REMARK   11  A    between atoms: C_10  and  C_27 
REMARK       I    between atoms: C_11  and  N_12 
REMARK   12  A    between atoms: N_12  and  C_13 
REMARK   13  A    between atoms: C_13  and  C_14 
REMARK   14  A    between atoms: C_13  and  C_29 
REMARK   15  A    between atoms: C_14  and  C_16 
REMARK   16  A    between atoms: C_27  and  C_33 
REMARK   17  A    between atoms: C_28  and  C_34 
REMARK   18  A    between atoms: C_29  and  C_49 
REMARK   19  A    between atoms: C_30  and  C_46 
REMARK   20  A    between atoms: C_34  and  C_35 
ROOT
HETATM    1  C   UNK N   1      22.203  12.430   7.206  0.00  0.00     0.177 C 
ENDROOT
BRANCH   1   2
HETATM    2  N   UNK N   1      21.206  13.238   7.897  0.00  0.00    -0.346 N 
HETATM    3  C   UNK N   1      20.523  14.298   7.379  0.00  0.00     0.241 C 
HETATM    4  O   UNK N   1      19.715  14.883   8.086  0.00  0.00    -0.271 OA
HETATM    5  H   UNK N   1      21.006  12.995   8.830  0.00  0.00     0.163 HD
BRANCH   3   6
HETATM    6  C   UNK N   1      20.680  14.721   5.945  0.00  0.00     0.177 C 
BRANCH   6   7
HETATM    7  N   UNK N   1      20.607  16.158   5.792  0.00  0.00    -0.346 N 
HETATM    8  C   UNK N   1      21.721  16.934   5.749  0.00  0.00     0.246 C 
HETATM    9  O   UNK N   1      22.820  16.469   6.013  0.00  0.00    -0.272 OA
HETATM   10  H   UNK N   1      19.725  16.587   5.715  0.00  0.00     0.163 HD
BRANCH   8  11
HETATM   11  C   UNK N   1      21.623  18.347   5.261  0.00  0.00     0.374 C 
BRANCH  11  12
HETATM   12  N   UNK N   1      21.845  18.412   3.811  0.00  0.00     0.101 N 
HETATM   13  C   UNK N   1      22.868  19.426   3.459  0.00  0.00     0.299 C 
HETATM   14  C   UNK N   1      22.306  20.699   2.821  0.00  0.00     0.198 C 
HETATM   15  O   UNK N   1      20.982  20.888   3.217  0.00  0.00    -0.388 OA
HETATM   16  C   UNK N   1      20.281  19.905   2.515  0.00  0.00     0.198 C 
HETATM   17  C   UNK N   1      20.538  18.530   3.140  0.00  0.00     0.299 C 
ENDBRANCH  11  12
ENDBRANCH   8  11
ENDBRANCH   6   7
BRANCH   6  18
HETATM   18  C   UNK N   1      19.558  14.075   5.136  0.00  0.00     0.039 C 
BRANCH  18  19
HETATM   19  C   UNK N   1      19.465  14.705   3.757  0.00  0.00     0.041 C 
BRANCH  19  20
HETATM   20  C   UNK N   1      19.590  13.679   2.687  0.00  0.00    -0.058 A 
HETATM   21  C   UNK N   1      19.519  14.049   1.337  0.00  0.00     0.007 A 
HETATM   22  C   UNK N   1      19.615  13.079   0.339  0.00  0.00     0.001 A 
HETATM   23  C   UNK N   1      19.771  11.733   0.686  0.00  0.00     0.000 A 
HETATM   24  C   UNK N   1      19.834  11.361   2.033  0.00  0.00     0.001 A 
HETATM   25  C   UNK N   1      19.744  12.334   3.033  0.00  0.00     0.007 A 
ENDBRANCH  19  20
ENDBRANCH  18  19
ENDBRANCH   6  18
ENDBRANCH   3   6
ENDBRANCH   1   2
BRANCH   1  26
HETATM   26  C   UNK N   1      21.599  11.356   6.301  0.00  0.00     0.241 C 
HETATM   27  N   UNK N   1      22.234  10.765   5.249  0.00  0.00    -0.346 N 
HETATM   28  H   UNK N   1      21.761  10.006   4.838  0.00  0.00     0.163 HD
HETATM   29  O   UNK N   1      20.437  11.051   6.492  0.00  0.00    -0.271 OA
BRANCH  27  30
HETATM   30  C   UNK N   1      23.508  11.102   4.654  0.00  0.00     0.180 C 
BRANCH  30  31
HETATM   31  C   UNK N   1      24.751  10.575   5.338  0.00  0.00     0.241 C 
HETATM   32  N   UNK N   1      25.872  11.340   5.397  0.00  0.00    -0.348 N 
HETATM   33  H   UNK N   1      26.670  10.997   5.861  0.00  0.00     0.163 HD
HETATM   34  O   UNK N   1      24.748   9.468   5.862  0.00  0.00    -0.271 OA
BRANCH  32  35
HETATM   35  C   UNK N   1      25.910  12.658   4.786  0.00  0.00     0.158 C 
BRANCH  35  36
HETATM   36  C   UNK N   1      27.204  12.919   4.058  0.00  0.00     0.185 C 
HETATM   37  O   UNK N   1      28.263  12.929   4.670  0.00  0.00    -0.292 OA
BRANCH  36  38
HETATM   38  C   UNK N   1      27.190  13.106   2.565  0.00  0.00     0.141 A 
HETATM   39  O   UNK N   1      28.242  13.940   2.140  0.00  0.00    -0.367 OA
HETATM   40  C   UNK N   1      26.939  14.457   2.018  0.00  0.00     0.215 A 
HETATM   41  C   UNK N   1      27.080  11.908   1.642  0.00  0.00     0.057 C 
ENDBRANCH  36  38
ENDBRANCH  35  36
BRANCH  35  42
HETATM   42  C   UNK N   1      25.463  13.789   5.725  0.00  0.00     0.037 C 
BRANCH  42  43
HETATM   43  C   UNK N   1      26.336  15.042   5.819  0.00  0.00    -0.020 C 
HETATM   44  C   UNK N   1      26.484  15.579   7.231  0.00  0.00     0.009 C 
HETATM   45  C   UNK N   1      25.872  16.125   4.871  0.00  0.00     0.009 C 
ENDBRANCH  42  43
ENDBRANCH  35  42
ENDBRANCH  32  35
ENDBRANCH  30  31
BRANCH  30  46
HETATM   46  C   UNK N   1      23.474  10.760   3.157  0.00  0.00     0.073 C 
BRANCH  46  47
HETATM   47  C   UNK N   1      23.426  11.936   2.227  0.00  0.00    -0.056 A 
HETATM   48  C   UNK N   1      23.270  13.241   2.715  0.00  0.00     0.007 A 
HETATM   49  C   UNK N   1      23.183  14.317   1.825  0.00  0.00     0.001 A 
HETATM   50  C   UNK N   1      23.243  14.092   0.446  0.00  0.00     0.000 A 
HETATM   51  C   UNK N   1      23.391  12.791  -0.043  0.00  0.00     0.001 A 
HETATM   52  C   UNK N   1      23.479  11.716   0.846  0.00  0.00     0.007 A 
ENDBRANCH  46  47
ENDBRANCH  30  46
ENDBRANCH  27  30
ENDBRANCH   1  26
BRANCH   1  53
HETATM   53  C   UNK N   1      23.309  11.922   8.148  0.00  0.00     0.038 C 
BRANCH  53  54
HETATM   54  C   UNK N   1      23.471  12.653   9.486  0.00  0.00    -0.020 C 
HETATM   55  C   UNK N   1      24.881  13.183   9.683  0.00  0.00     0.009 C 
HETATM   56  C   UNK N   1      23.046  11.803  10.667  0.00  0.00     0.009 C 
ENDBRANCH  53  54
ENDBRANCH   1  53
TORSDOF 20
ENDMDL
MODEL 6
REMARK VINA RESULT:      -5.8      2.866      6.047
REMARK  20 active torsions:
REMARK  status: ('A' for Active; 'I' for Inactive)
REMARK    1  A    between atoms: C_1  and  C_2 
REMARK    2  A    between atoms: C_1  and  N_15 
REMARK       I    between atoms: C_2  and  N_3 
REMARK    3  A    between atoms: N_3  and  C_4 
REMARK    4  A    between atoms: C_4  and  C_5 
REMARK    5  A    between atoms: C_4  and  C_28 
REMARK       I    between atoms: C_5  and  N_6 
REMARK    6  A    between atoms: N_6  and  C_7 
REMARK    7  A    between atoms: C_7  and  C_8 
REMARK    8  A    between atoms: C_7  and  C_30 
REMARK       I    between atoms: C_8  and  N_9 
REMARK    9  A    between atoms: N_9  and  C_10 
REMARK   10  A    between atoms: C_10  and  C_11 
REMARK   11  A    between atoms: C_10  and  C_27 
REMARK       I    between atoms: C_11  and  N_12 
REMARK   12  A    between atoms: N_12  and  C_13 
REMARK   13  A    between atoms: C_13  and  C_14 
REMARK   14  A    between atoms: C_13  and  C_29 
REMARK   15  A    between atoms: C_14  and  C_16 
REMARK   16  A    between atoms: C_27  and  C_33 
REMARK   17  A    between atoms: C_28  and  C_34 
REMARK   18  A    between atoms: C_29  and  C_49 
REMARK   19  A    between atoms: C_30  and  C_46 
REMARK   20  A    between atoms: C_34  and  C_35 
ROOT
HETATM    1  C   UNK N   1      28.134  17.538   6.579  0.00  0.00     0.177 C 
ENDROOT
BRANCH   1   2
HETATM    2  N   UNK N   1      27.349  16.466   7.179  0.00  0.00    -0.346 N 
HETATM    3  C   UNK N   1      26.194  15.936   6.685  0.00  0.00     0.241 C 
HETATM    4  O   UNK N   1      25.645  15.037   7.305  0.00  0.00    -0.271 OA
HETATM    5  H   UNK N   1      27.687  16.087   8.023  0.00  0.00     0.163 HD
BRANCH   3   6
HETATM    6  C   UNK N   1      25.618  16.373   5.368  0.00  0.00     0.177 C 
BRANCH   6   7
HETATM    7  N   UNK N   1      24.213  16.703   5.472  0.00  0.00    -0.346 N 
HETATM    8  C   UNK N   1      23.728  17.914   5.091  0.00  0.00     0.246 C 
HETATM    9  O   UNK N   1      24.485  18.831   4.807  0.00  0.00    -0.272 OA
HETATM   10  H   UNK N   1      23.589  16.031   5.830  0.00  0.00     0.163 HD
BRANCH   8  11
HETATM   11  C   UNK N   1      22.254  18.096   4.901  0.00  0.00     0.374 C 
BRANCH  11  12
HETATM   12  N   UNK N   1      21.905  18.058   3.476  0.00  0.00     0.101 N 
HETATM   13  C   UNK N   1      20.970  19.149   3.111  0.00  0.00     0.299 C 
HETATM   14  C   UNK N   1      19.531  18.694   2.857  0.00  0.00     0.198 C 
HETATM   15  O   UNK N   1      19.274  17.512   3.553  0.00  0.00    -0.388 OA
HETATM   16  C   UNK N   1      19.989  16.546   2.843  0.00  0.00     0.198 C 
HETATM   17  C   UNK N   1      21.488  16.686   3.131  0.00  0.00     0.299 C 
ENDBRANCH  11  12
ENDBRANCH   8  11
ENDBRANCH   6   7
BRANCH   6  18
HETATM   18  C   UNK N   1      25.789  15.227   4.373  0.00  0.00     0.039 C 
BRANCH  18  19
HETATM   19  C   UNK N   1      25.255  15.623   3.007  0.00  0.00     0.041 C 
BRANCH  19  20
HETATM   20  C   UNK N   1      24.952  14.424   2.180  0.00  0.00    -0.058 A 
HETATM   21  C   UNK N   1      24.165  14.539   1.026  0.00  0.00     0.007 A 
HETATM   22  C   UNK N   1      23.865  13.406   0.267  0.00  0.00     0.001 A 
HETATM   23  C   UNK N   1      24.341  12.154   0.665  0.00  0.00     0.000 A 
HETATM   24  C   UNK N   1      25.120  12.036   1.821  0.00  0.00     0.001 A 
HETATM   25  C   UNK N   1      25.425  13.171   2.578  0.00  0.00     0.007 A 
ENDBRANCH  19  20
ENDBRANCH  18  19
ENDBRANCH   6  18
ENDBRANCH   3   6
ENDBRANCH   1   2
BRANCH   1  26
HETATM   26  C   UNK N   1      29.578  17.593   7.077  0.00  0.00     0.241 C 
HETATM   27  N   UNK N   1      30.679  17.277   6.338  0.00  0.00    -0.346 N 
HETATM   28  H   UNK N   1      31.546  17.478   6.758  0.00  0.00     0.163 HD
HETATM   29  O   UNK N   1      29.757  17.877   8.247  0.00  0.00    -0.271 OA
BRANCH  27  30
HETATM   30  C   UNK N   1      30.745  16.685   5.020  0.00  0.00     0.180 C 
BRANCH  30  31
HETATM   31  C   UNK N   1      32.007  16.923   4.219  0.00  0.00     0.241 C 
HETATM   32  N   UNK N   1      33.209  16.521   4.706  0.00  0.00    -0.348 N 
HETATM   33  H   UNK N   1      34.023  16.662   4.169  0.00  0.00     0.163 HD
HETATM   34  O   UNK N   1      31.951  17.457   3.118  0.00  0.00    -0.271 OA
BRANCH  32  35
HETATM   35  C   UNK N   1      33.313  15.884   6.008  0.00  0.00     0.158 C 
BRANCH  35  36
HETATM   36  C   UNK N   1      33.877  16.806   7.058  0.00  0.00     0.185 C 
HETATM   37  O   UNK N   1      34.381  17.873   6.734  0.00  0.00    -0.292 OA
BRANCH  36  38
HETATM   38  C   UNK N   1      33.761  16.433   8.512  0.00  0.00     0.141 A 
HETATM   39  O   UNK N   1      34.180  17.485   9.349  0.00  0.00    -0.367 OA
HETATM   40  C   UNK N   1      34.994  16.338   9.324  0.00  0.00     0.215 A 
HETATM   41  C   UNK N   1      32.480  15.827   9.050  0.00  0.00     0.057 C 
ENDBRANCH  36  38
ENDBRANCH  35  36
BRANCH  35  42
HETATM   42  C   UNK N   1      33.957  14.489   5.966  0.00  0.00     0.037 C 
BRANCH  42  43
HETATM   43  C   UNK N   1      33.396  13.459   4.984  0.00  0.00    -0.020 C 
HETATM   44  C   UNK N   1      33.084  12.116   5.619  0.00  0.00     0.009 C 
HETATM   45  C   UNK N   1      34.283  13.295   3.770  0.00  0.00     0.009 C 
ENDBRANCH  42  43
ENDBRANCH  35  42
ENDBRANCH  32  35
ENDBRANCH  30  31
BRANCH  30  46
HETATM   46  C   UNK N   1      30.385  15.195   5.116  0.00  0.00     0.073 C 
BRANCH  46  47
HETATM   47  C   UNK N   1      29.853  14.577   3.857  0.00  0.00    -0.056 A 
HETATM   48  C   UNK N   1      29.168  15.347   2.905  0.00  0.00     0.007 A 
HETATM   49  C   UNK N   1      28.642  14.739   1.760  0.00  0.00     0.001 A 
HETATM   50  C   UNK N   1      28.789  13.362   1.566  0.00  0.00     0.000 A 
HETATM   51  C   UNK N   1      29.465  12.592   2.517  0.00  0.00     0.001 A 
HETATM   52  C   UNK N   1      29.992  13.198   3.661  0.00  0.00     0.007 A 
ENDBRANCH  46  47
ENDBRANCH  30  46
ENDBRANCH  27  30
ENDBRANCH   1  26
BRANCH   1  53
HETATM   53  C   UNK N   1      27.401  18.892   6.602  0.00  0.00     0.038 C 
BRANCH  53  54
HETATM   54  C   UNK N   1      27.934  19.986   5.669  0.00  0.00    -0.020 C 
HETATM   55  C   UNK N   1      27.329  21.346   5.975  0.00  0.00     0.009 C 
HETATM   56  C   UNK N   1      27.760  19.636   4.204  0.00  0.00     0.009 C 
ENDBRANCH  53  54
ENDBRANCH   1  53
TORSDOF 20
ENDMDL
MODEL 7
REMARK VINA RESULT:      -5.7      2.272      7.779
REMARK  20 active torsions:
REMARK  status: ('A' for Active; 'I' for Inactive)
REMARK    1  A    between atoms: C_1  and  C_2 
REMARK    2  A    between atoms: C_1  and  N_15 
REMARK       I    between atoms: C_2  and  N_3 
REMARK    3  A    between atoms: N_3  and  C_4 
REMARK    4  A    between atoms: C_4  and  C_5 
REMARK    5  A    between atoms: C_4  and  C_28 
REMARK       I    between atoms: C_5  and  N_6 
REMARK    6  A    between atoms: N_6  and  C_7 
REMARK    7  A    between atoms: C_7  and  C_8 
REMARK    8  A    between atoms: C_7  and  C_30 
REMARK       I    between atoms: C_8  and  N_9 
REMARK    9  A    between atoms: N_9  and  C_10 
REMARK   10  A    between atoms: C_10  and  C_11 
REMARK   11  A    between atoms: C_10  and  C_27 
REMARK       I    between atoms: C_11  and  N_12 
REMARK   12  A    between atoms: N_12  and  C_13 
REMARK   13  A    between atoms: C_13  and  C_14 
REMARK   14  A    between atoms: C_13  and  C_29 
REMARK   15  A    between atoms: C_14  and  C_16 
REMARK   16  A    between atoms: C_27  and  C_33 
REMARK   17  A    between atoms: C_28  and  C_34 
REMARK   18  A    between atoms: C_29  and  C_49 
REMARK   19  A    between atoms: C_30  and  C_46 
REMARK   20  A    between atoms: C_34  and  C_35 
ROOT
HETATM    1  C   UNK N   1      20.457  14.788   5.600  0.00  0.00     0.177 C 
ENDROOT
BRANCH   1   2
HETATM    2  N   UNK N   1      21.218  13.809   4.834  0.00  0.00    -0.346 N 
HETATM    3  C   UNK N   1      22.367  13.190   5.227  0.00  0.00     0.241 C 
HETATM    4  O   UNK N   1      22.896  12.389   4.470  0.00  0.00    -0.271 OA
HETATM    5  H   UNK N   1      20.868  13.571   3.944  0.00  0.00     0.163 HD
BRANCH   3   6
HETATM    6  C   UNK N   1      22.961  13.408   6.591  0.00  0.00     0.177 C 
BRANCH   6   7
HETATM    7  N   UNK N   1      24.390  13.627   6.533  0.00  0.00    -0.346 N 
HETATM    8  C   UNK N   1      24.928  14.874   6.553  0.00  0.00     0.246 C 
HETATM    9  O   UNK N   1      24.219  15.864   6.446  0.00  0.00    -0.272 OA
HETATM   10  H   UNK N   1      24.990  12.849   6.477  0.00  0.00     0.163 HD
BRANCH   8  11
HETATM   11  C   UNK N   1      26.390  15.046   6.827  0.00  0.00     0.374 C 
BRANCH  11  12
HETATM   12  N   UNK N   1      26.885  16.296   6.237  0.00  0.00     0.101 N 
HETATM   13  C   UNK N   1      27.401  16.087   4.863  0.00  0.00     0.299 C 
HETATM   14  C   UNK N   1      28.926  16.132   4.743  0.00  0.00     0.198 C 
HETATM   15  O   UNK N   1      29.511  15.791   5.963  0.00  0.00    -0.388 OA
HETATM   16  C   UNK N   1      29.274  16.905   6.770  0.00  0.00     0.198 C 
HETATM   17  C   UNK N   1      27.802  16.938   7.197  0.00  0.00     0.299 C 
ENDBRANCH  11  12
ENDBRANCH   8  11
ENDBRANCH   6   7
BRANCH   6  18
HETATM   18  C   UNK N   1      22.679  12.165   7.433  0.00  0.00     0.039 C 
BRANCH  18  19
HETATM   19  C   UNK N   1      21.678  12.483   8.532  0.00  0.00     0.041 C 
BRANCH  19  20
HETATM   20  C   UNK N   1      22.284  12.302   9.879  0.00  0.00    -0.058 A 
HETATM   21  C   UNK N   1      23.674  12.197  10.022  0.00  0.00     0.007 A 
HETATM   22  C   UNK N   1      24.235  12.006  11.286  0.00  0.00     0.001 A 
HETATM   23  C   UNK N   1      23.407  11.907  12.409  0.00  0.00     0.000 A 
HETATM   24  C   UNK N   1      22.019  12.004  12.266  0.00  0.00     0.001 A 
HETATM   25  C   UNK N   1      21.458  12.202  11.001  0.00  0.00     0.007 A 
ENDBRANCH  19  20
ENDBRANCH  18  19
ENDBRANCH   6  18
ENDBRANCH   3   6
ENDBRANCH   1   2
BRANCH   1  26
HETATM   26  C   UNK N   1      19.219  15.309   4.870  0.00  0.00     0.241 C 
HETATM   27  N   UNK N   1      19.233  16.150   3.797  0.00  0.00    -0.346 N 
HETATM   28  H   UNK N   1      18.362  16.299   3.362  0.00  0.00     0.163 HD
HETATM   29  O   UNK N   1      18.132  15.004   5.323  0.00  0.00    -0.271 OA
BRANCH  27  30
HETATM   30  C   UNK N   1      20.352  16.853   3.212  0.00  0.00     0.180 C 
BRANCH  30  31
HETATM   31  C   UNK N   1      20.407  16.929   1.701  0.00  0.00     0.241 C 
HETATM   32  N   UNK N   1      20.908  15.890   0.984  0.00  0.00    -0.348 N 
HETATM   33  H   UNK N   1      20.922  15.939   0.001  0.00  0.00     0.163 HD
HETATM   34  O   UNK N   1      19.980  17.915   1.114  0.00  0.00    -0.271 OA
BRANCH  32  35
HETATM   35  C   UNK N   1      21.424  14.704   1.648  0.00  0.00     0.158 C 
BRANCH  35  36
HETATM   36  C   UNK N   1      22.771  14.286   1.118  0.00  0.00     0.185 C 
HETATM   37  O   UNK N   1      22.873  13.830  -0.013  0.00  0.00    -0.292 OA
BRANCH  36  38
HETATM   38  C   UNK N   1      23.998  14.489   1.967  0.00  0.00     0.141 A 
HETATM   39  O   UNK N   1      25.157  14.612   1.176  0.00  0.00    -0.367 OA
HETATM   40  C   UNK N   1      25.049  13.449   1.961  0.00  0.00     0.215 A 
HETATM   41  C   UNK N   1      24.009  15.537   3.062  0.00  0.00     0.057 C 
ENDBRANCH  36  38
ENDBRANCH  35  36
BRANCH  35  42
HETATM   42  C   UNK N   1      20.399  13.565   1.766  0.00  0.00     0.037 C 
BRANCH  42  43
HETATM   43  C   UNK N   1      19.626  13.150   0.513  0.00  0.00    -0.020 C 
HETATM   44  C   UNK N   1      18.191  13.642   0.490  0.00  0.00     0.009 C 
HETATM   45  C   UNK N   1      19.696  11.659   0.274  0.00  0.00     0.009 C 
ENDBRANCH  42  43
ENDBRANCH  35  42
ENDBRANCH  32  35
ENDBRANCH  30  31
BRANCH  30  46
HETATM   46  C   UNK N   1      20.484  18.233   3.872  0.00  0.00     0.073 C 
BRANCH  46  47
HETATM   47  C   UNK N   1      21.841  18.866   3.780  0.00  0.00    -0.056 A 
HETATM   48  C   UNK N   1      22.081  19.946   2.919  0.00  0.00     0.007 A 
HETATM   49  C   UNK N   1      23.367  20.489   2.818  0.00  0.00     0.001 A 
HETATM   50  C   UNK N   1      24.417  19.951   3.568  0.00  0.00     0.000 A 
HETATM   51  C   UNK N   1      24.181  18.869   4.422  0.00  0.00     0.001 A 
HETATM   52  C   UNK N   1      22.897  18.326   4.524  0.00  0.00     0.007 A 
ENDBRANCH  46  47
ENDBRANCH  30  46
ENDBRANCH  27  30
ENDBRANCH   1  26
BRANCH   1  53
HETATM   53  C   UNK N   1      21.348  15.887   6.206  0.00  0.00     0.038 C 
BRANCH  53  54
HETATM   54  C   UNK N   1      20.972  16.393   7.604  0.00  0.00    -0.020 C 
HETATM   55  C   UNK N   1      20.037  15.438   8.328  0.00  0.00     0.009 C 
HETATM   56  C   UNK N   1      20.396  17.795   7.579  0.00  0.00     0.009 C 
ENDBRANCH  53  54
ENDBRANCH   1  53
TORSDOF 20
ENDMDL
MODEL 8
REMARK VINA RESULT:      -5.7      2.594      8.506
REMARK  20 active torsions:
REMARK  status: ('A' for Active; 'I' for Inactive)
REMARK    1  A    between atoms: C_1  and  C_2 
REMARK    2  A    between atoms: C_1  and  N_15 
REMARK       I    between atoms: C_2  and  N_3 
REMARK    3  A    between atoms: N_3  and  C_4 
REMARK    4  A    between atoms: C_4  and  C_5 
REMARK    5  A    between atoms: C_4  and  C_28 
REMARK       I    between atoms: C_5  and  N_6 
REMARK    6  A    between atoms: N_6  and  C_7 
REMARK    7  A    between atoms: C_7  and  C_8 
REMARK    8  A    between atoms: C_7  and  C_30 
REMARK       I    between atoms: C_8  and  N_9 
REMARK    9  A    between atoms: N_9  and  C_10 
REMARK   10  A    between atoms: C_10  and  C_11 
REMARK   11  A    between atoms: C_10  and  C_27 
REMARK       I    between atoms: C_11  and  N_12 
REMARK   12  A    between atoms: N_12  and  C_13 
REMARK   13  A    between atoms: C_13  and  C_14 
REMARK   14  A    between atoms: C_13  and  C_29 
REMARK   15  A    between atoms: C_14  and  C_16 
REMARK   16  A    between atoms: C_27  and  C_33 
REMARK   17  A    between atoms: C_28  and  C_34 
REMARK   18  A    between atoms: C_29  and  C_49 
REMARK   19  A    between atoms: C_30  and  C_46 
REMARK   20  A    between atoms: C_34  and  C_35 
ROOT
HETATM    1  C   UNK N   1      23.741  12.131   2.673  0.00  0.00     0.177 C 
ENDROOT
BRANCH   1   2
HETATM    2  N   UNK N   1      25.038  11.480   2.539  0.00  0.00    -0.346 N 
HETATM    3  C   UNK N   1      26.165  11.766   3.252  0.00  0.00     0.241 C 
HETATM    4  O   UNK N   1      27.185  11.132   3.024  0.00  0.00    -0.271 OA
HETATM    5  H   UNK N   1      25.108  10.761   1.868  0.00  0.00     0.163 HD
BRANCH   3   6
HETATM    6  C   UNK N   1      26.169  12.785   4.356  0.00  0.00     0.177 C 
BRANCH   6   7
HETATM    7  N   UNK N   1      27.512  13.158   4.747  0.00  0.00    -0.346 N 
HETATM    8  C   UNK N   1      27.962  14.435   4.646  0.00  0.00     0.246 C 
HETATM    9  O   UNK N   1      27.309  15.286   4.059  0.00  0.00    -0.272 OA
HETATM   10  H   UNK N   1      28.117  12.465   5.096  0.00  0.00     0.163 HD
BRANCH   8  11
HETATM   11  C   UNK N   1      29.216  14.839   5.360  0.00  0.00     0.374 C 
BRANCH  11  12
HETATM   12  N   UNK N   1      29.360  16.299   5.371  0.00  0.00     0.101 N 
HETATM   13  C   UNK N   1      30.649  16.727   4.777  0.00  0.00     0.299 C 
HETATM   14  C   UNK N   1      31.683  17.221   5.792  0.00  0.00     0.198 C 
HETATM   15  O   UNK N   1      31.437  16.649   7.041  0.00  0.00    -0.388 OA
HETATM   16  C   UNK N   1      30.289  17.306   7.487  0.00  0.00     0.198 C 
HETATM   17  C   UNK N   1      29.062  16.791   6.728  0.00  0.00     0.299 C 
ENDBRANCH  11  12
ENDBRANCH   8  11
ENDBRANCH   6   7
BRANCH   6  18
HETATM   18  C   UNK N   1      25.447  12.182   5.559  0.00  0.00     0.039 C 
BRANCH  18  19
HETATM   19  C   UNK N   1      25.341  13.200   6.682  0.00  0.00     0.041 C 
BRANCH  19  20
HETATM   20  C   UNK N   1      24.599  12.643   7.845  0.00  0.00    -0.058 A 
HETATM   21  C   UNK N   1      24.050  11.354   7.783  0.00  0.00     0.007 A 
HETATM   22  C   UNK N   1      23.336  10.845   8.869  0.00  0.00     0.001 A 
HETATM   23  C   UNK N   1      23.159  11.626  10.015  0.00  0.00     0.000 A 
HETATM   24  C   UNK N   1      23.700  12.914  10.075  0.00  0.00     0.001 A 
HETATM   25  C   UNK N   1      24.420  13.422   8.989  0.00  0.00     0.007 A 
ENDBRANCH  19  20
ENDBRANCH  18  19
ENDBRANCH   6  18
ENDBRANCH   3   6
ENDBRANCH   1   2
BRANCH   1  26
HETATM   26  C   UNK N   1      22.578  11.153   2.832  0.00  0.00     0.241 C 
HETATM   27  N   UNK N   1      21.403  11.423   3.468  0.00  0.00    -0.346 N 
HETATM   28  H   UNK N   1      20.704  10.735   3.383  0.00  0.00     0.163 HD
HETATM   29  O   UNK N   1      22.737  10.021   2.417  0.00  0.00    -0.271 OA
BRANCH  27  30
HETATM   30  C   UNK N   1      21.044  12.584   4.253  0.00  0.00     0.180 C 
BRANCH  30  31
HETATM   31  C   UNK N   1      19.572  12.921   4.354  0.00  0.00     0.241 C 
HETATM   32  N   UNK N   1      19.107  14.095   3.855  0.00  0.00    -0.348 N 
HETATM   33  H   UNK N   1      18.145  14.298   3.908  0.00  0.00     0.163 HD
HETATM   34  O   UNK N   1      18.788  12.130   4.864  0.00  0.00    -0.271 OA
BRANCH  32  35
HETATM   35  C   UNK N   1      20.009  15.057   3.244  0.00  0.00     0.158 C 
BRANCH  35  36
HETATM   36  C   UNK N   1      19.776  16.462   3.739  0.00  0.00     0.185 C 
HETATM   37  O   UNK N   1      18.955  16.676   4.620  0.00  0.00    -0.292 OA
BRANCH  36  38
HETATM   38  C   UNK N   1      20.604  17.590   3.185  0.00  0.00     0.141 A 
HETATM   39  O   UNK N   1      19.876  18.795   3.151  0.00  0.00    -0.367 OA
HETATM   40  C   UNK N   1      20.193  18.216   1.909  0.00  0.00     0.215 A 
HETATM   41  C   UNK N   1      22.002  17.848   3.711  0.00  0.00     0.057 C 
ENDBRANCH  36  38
ENDBRANCH  35  36
BRANCH  35  42
HETATM   42  C   UNK N   1      20.114  14.924   1.717  0.00  0.00     0.037 C 
BRANCH  42  43
HETATM   43  C   UNK N   1      19.154  13.971   1.003  0.00  0.00    -0.020 C 
HETATM   44  C   UNK N   1      19.824  12.720   0.465  0.00  0.00     0.009 C 
HETATM   45  C   UNK N   1      18.362  14.672  -0.077  0.00  0.00     0.009 C 
ENDBRANCH  42  43
ENDBRANCH  35  42
ENDBRANCH  32  35
ENDBRANCH  30  31
BRANCH  30  46
HETATM   46  C   UNK N   1      21.719  12.492   5.630  0.00  0.00     0.073 C 
BRANCH  46  47
HETATM   47  C   UNK N   1      21.449  13.638   6.559  0.00  0.00    -0.056 A 
HETATM   48  C   UNK N   1      21.904  14.932   6.267  0.00  0.00     0.007 A 
HETATM   49  C   UNK N   1      21.678  15.975   7.171  0.00  0.00     0.001 A 
HETATM   50  C   UNK N   1      21.006  15.729   8.372  0.00  0.00     0.000 A 
HETATM   51  C   UNK N   1      20.558  14.439   8.669  0.00  0.00     0.001 A 
HETATM   52  C   UNK N   1      20.782  13.396   7.766  0.00  0.00     0.007 A 
ENDBRANCH  46  47
ENDBRANCH  30  46
ENDBRANCH  27  30
ENDBRANCH   1  26
BRANCH   1  53
HETATM   53  C   UNK N   1      23.515  13.222   1.610  0.00  0.00     0.038 C 
BRANCH  53  54
HETATM   54  C   UNK N   1      23.931  14.650   1.983  0.00  0.00    -0.020 C 
HETATM   55  C   UNK N   1      25.308  15.006   1.446  0.00  0.00     0.009 C 
HETATM   56  C   UNK N   1      23.853  14.908   3.475  0.00  0.00     0.009 C 
ENDBRANCH  53  54
ENDBRANCH   1  53
TORSDOF 20
ENDMDL
MODEL 9
REMARK VINA RESULT:      -5.7      2.564      5.783
REMARK  20 active torsions:
REMARK  status: ('A' for Active; 'I' for Inactive)
REMARK    1  A    between atoms: C_1  and  C_2 
REMARK    2  A    between atoms: C_1  and  N_15 
REMARK       I    between atoms: C_2  and  N_3 
REMARK    3  A    between atoms: N_3  and  C_4 
REMARK    4  A    between atoms: C_4  and  C_5 
REMARK    5  A    between atoms: C_4  and  C_28 
REMARK       I    between atoms: C_5  and  N_6 
REMARK    6  A    between atoms: N_6  and  C_7 
REMARK    7  A    between atoms: C_7  and  C_8 
REMARK    8  A    between atoms: C_7  and  C_30 
REMARK       I    between atoms: C_8  and  N_9 
REMARK    9  A    between atoms: N_9  and  C_10 
REMARK   10  A    between atoms: C_10  and  C_11 
REMARK   11  A    between atoms: C_10  and  C_27 
REMARK       I    between atoms: C_11  and  N_12 
REMARK   12  A    between atoms: N_12  and  C_13 
REMARK   13  A    between atoms: C_13  and  C_14 
REMARK   14  A    between atoms: C_13  and  C_29 
REMARK   15  A    between atoms: C_14  and  C_16 
REMARK   16  A    between atoms: C_27  and  C_33 
REMARK   17  A    between atoms: C_28  and  C_34 
REMARK   18  A    between atoms: C_29  and  C_49 
REMARK   19  A    between atoms: C_30  and  C_46 
REMARK   20  A    between atoms: C_34  and  C_35 
ROOT
HETATM    1  C   UNK N   1      21.753  16.832   4.760  0.00  0.00     0.177 C 
ENDROOT
BRANCH   1   2
HETATM    2  N   UNK N   1      20.403  16.587   5.252  0.00  0.00    -0.346 N 
HETATM    3  C   UNK N   1      20.000  15.535   6.020  0.00  0.00     0.241 C 
HETATM    4  O   UNK N   1      18.827  15.463   6.354  0.00  0.00    -0.271 OA
HETATM    5  H   UNK N   1      19.714  17.247   5.006  0.00  0.00     0.163 HD
BRANCH   3   6
HETATM    6  C   UNK N   1      20.969  14.503   6.526  0.00  0.00     0.177 C 
BRANCH   6   7
HETATM    7  N   UNK N   1      20.397  13.174   6.526  0.00  0.00    -0.346 N 
HETATM    8  C   UNK N   1      20.339  12.416   5.401  0.00  0.00     0.246 C 
HETATM    9  O   UNK N   1      20.609  12.894   4.308  0.00  0.00    -0.272 OA
HETATM   10  H   UNK N   1      20.040  12.808   7.367  0.00  0.00     0.163 HD
BRANCH   8  11
HETATM   11  C   UNK N   1      20.055  10.949   5.508  0.00  0.00     0.374 C 
BRANCH  11  12
HETATM   12  N   UNK N   1      20.973  10.179   4.660  0.00  0.00     0.101 N 
HETATM   13  C   UNK N   1      20.246   9.210   3.805  0.00  0.00     0.299 C 
HETATM   14  C   UNK N   1      20.384   7.750   4.242  0.00  0.00     0.198 C 
HETATM   15  O   UNK N   1      20.658   7.683   5.609  0.00  0.00    -0.388 OA
HETATM   16  C   UNK N   1      21.981   8.117   5.705  0.00  0.00     0.198 C 
HETATM   17  C   UNK N   1      22.050   9.636   5.507  0.00  0.00     0.299 C 
ENDBRANCH  11  12
ENDBRANCH   8  11
ENDBRANCH   6   7
BRANCH   6  18
HETATM   18  C   UNK N   1      21.358  14.881   7.954  0.00  0.00     0.039 C 
BRANCH  18  19
HETATM   19  C   UNK N   1      20.444  14.193   8.954  0.00  0.00     0.041 C 
BRANCH  19  20
HETATM   20  C   UNK N   1      21.226  13.403   9.942  0.00  0.00    -0.058 A 
HETATM   21  C   UNK N   1      22.625  13.362   9.869  0.00  0.00     0.007 A 
HETATM   22  C   UNK N   1      23.352  12.600  10.785  0.00  0.00     0.001 A 
HETATM   23  C   UNK N   1      22.682  11.868  11.770  0.00  0.00     0.000 A 
HETATM   24  C   UNK N   1      21.286  11.901  11.839  0.00  0.00     0.001 A 
HETATM   25  C   UNK N   1      20.558  12.669  10.925  0.00  0.00     0.007 A 
ENDBRANCH  19  20
ENDBRANCH  18  19
ENDBRANCH   6  18
ENDBRANCH   3   6
ENDBRANCH   1   2
BRANCH   1  26
HETATM   26  C   UNK N   1      22.519  17.877   5.570  0.00  0.00     0.241 C 
HETATM   27  N   UNK N   1      23.873  18.042   5.564  0.00  0.00    -0.346 N 
HETATM   28  H   UNK N   1      24.208  18.834   6.043  0.00  0.00     0.163 HD
HETATM   29  O   UNK N   1      21.879  18.574   6.334  0.00  0.00    -0.271 OA
BRANCH  27  30
HETATM   30  C   UNK N   1      24.883  17.209   4.950  0.00  0.00     0.180 C 
BRANCH  30  31
HETATM   31  C   UNK N   1      25.834  17.879   3.981  0.00  0.00     0.241 C 
HETATM   32  N   UNK N   1      26.525  17.134   3.079  0.00  0.00    -0.348 N 
HETATM   33  H   UNK N   1      27.126  17.580   2.440  0.00  0.00     0.163 HD
HETATM   34  O   UNK N   1      25.970  19.096   3.987  0.00  0.00    -0.271 OA
BRANCH  32  35
HETATM   35  C   UNK N   1      26.388  15.688   3.044  0.00  0.00     0.158 C 
BRANCH  35  36
HETATM   36  C   UNK N   1      27.619  14.979   3.548  0.00  0.00     0.185 C 
HETATM   37  O   UNK N   1      27.595  13.773   3.750  0.00  0.00    -0.292 OA
BRANCH  36  38
HETATM   38  C   UNK N   1      28.894  15.755   3.743  0.00  0.00     0.141 A 
HETATM   39  O   UNK N   1      29.767  15.098   4.631  0.00  0.00    -0.367 OA
HETATM   40  C   UNK N   1      29.197  16.303   5.083  0.00  0.00     0.215 A 
HETATM   41  C   UNK N   1      29.670  16.270   2.547  0.00  0.00     0.057 C 
ENDBRANCH  36  38
ENDBRANCH  35  36
BRANCH  35  42
HETATM   42  C   UNK N   1      25.837  15.149   1.714  0.00  0.00     0.037 C 
BRANCH  42  43
HETATM   43  C   UNK N   1      24.768  14.056   1.760  0.00  0.00    -0.020 C 
HETATM   44  C   UNK N   1      25.315  12.658   1.537  0.00  0.00     0.009 C 
HETATM   45  C   UNK N   1      23.620  14.349   0.821  0.00  0.00     0.009 C 
ENDBRANCH  42  43
ENDBRANCH  35  42
ENDBRANCH  32  35
ENDBRANCH  30  31
BRANCH  30  46
HETATM   46  C   UNK N   1      25.620  16.419   6.041  0.00  0.00     0.073 C 
BRANCH  46  47
HETATM   47  C   UNK N   1      25.131  15.019   6.265  0.00  0.00    -0.056 A 
HETATM   48  C   UNK N   1      25.458  14.314   7.433  0.00  0.00     0.007 A 
HETATM   49  C   UNK N   1      25.028  12.993   7.598  0.00  0.00     0.001 A 
HETATM   50  C   UNK N   1      24.279  12.369   6.595  0.00  0.00     0.000 A 
HETATM   51  C   UNK N   1      23.958  13.067   5.427  0.00  0.00     0.001 A 
HETATM   52  C   UNK N   1      24.387  14.387   5.262  0.00  0.00     0.007 A 
ENDBRANCH  46  47
ENDBRANCH  30  46
ENDBRANCH  27  30
ENDBRANCH   1  26
BRANCH   1  53
HETATM   53  C   UNK N   1      21.797  17.050   3.237  0.00  0.00     0.038 C 
BRANCH  53  54
HETATM   54  C   UNK N   1      20.459  17.302   2.533  0.00  0.00    -0.020 C 
HETATM   55  C   UNK N   1      20.324  16.499   1.250  0.00  0.00     0.009 C 
HETATM   56  C   UNK N   1      20.206  18.775   2.275  0.00  0.00     0.009 C 
ENDBRANCH  53  54
ENDBRANCH   1  53
TORSDOF 20
ENDMDL
