MODEL 1
REMARK VINA RESULT:      -7.6      0.000      0.000
REMARK  5 active torsions:
REMARK  status: ('A' for Active; 'I' for Inactive)
REMARK    1  A    between atoms: C_18  and  C_11 
REMARK    2  A    between atoms: O_24  and  C_11 
REMARK    3  A    between atoms: C_17  and  O_26 
REMARK    4  A    between atoms: C_22  and  C_18 
REMARK    5  A    between atoms: C_22  and  O_28 
ROOT
HETATM    1  C   UNK N   1      33.813  12.656   9.264  0.00  0.00     0.018 C 
HETATM    2  C   UNK N   1      37.394  11.081  14.734  0.00  0.00     0.028 C 
HETATM    3  C   UNK N   1      37.672  13.011  11.158  0.00  0.00     0.020 C 
HETATM    4  C   UNK N   1      35.142   9.133  13.874  0.00  0.00     0.036 C 
HETATM    5  C   UNK N   1      34.156  10.040  13.147  0.00  0.00     0.013 C 
HETATM    6  C   UNK N   1      35.704  10.952  17.800  0.00  0.00     0.052 A 
HETATM    7  C   UNK N   1      36.112  11.641  16.726  0.00  0.00    -0.006 A 
HETATM    8  C   UNK N   1      35.335  11.283  10.616  0.00  0.00     0.043 C 
HETATM    9  C   UNK N   1      34.965   9.048  16.302  0.00  0.00     0.058 A 
HETATM   10  C   UNK N   1      36.623  13.705  13.270  0.00  0.00     0.048 C 
HETATM   11  C   UNK N   1      34.840  12.602  10.112  0.00  0.00    -0.047 C 
HETATM   12  C   UNK N   1      35.380   9.725  15.222  0.00  0.00    -0.061 A 
HETATM   13  C   UNK N   1      35.093   9.628  17.642  0.00  0.00     0.172 A 
HETATM   14  C   UNK N   1      34.657  11.494  13.057  0.00  0.00     0.035 C 
HETATM   15  C   UNK N   1      35.822  11.619  12.030  0.00  0.00     0.009 C 
HETATM   16  C   UNK N   1      35.493  13.551  14.299  0.00  0.00     0.160 C 
HETATM   17  C   UNK N   1      35.978  11.132  15.295  0.00  0.00     0.036 A 
HETATM   18  C   UNK N   1      36.324  13.071  11.895  0.00  0.00     0.005 C 
HETATM   19  C   UNK N   1      35.014  12.073  14.474  0.00  0.00     0.147 C 
HETATM   20  C   UNK N   1      35.258  13.771  10.975  0.00  0.00     0.150 C 
HETATM   21  F   UNK N   1      33.826  12.119  15.193  0.00  0.00    -0.238 F 
HETATM   22  O   UNK N   1      34.677   9.023  18.616  0.00  0.00    -0.289 OA
ENDROOT
BRANCH  20  23
HETATM   23  C   UNK N   1      35.814  14.989  10.247  0.00  0.00     0.189 C 
HETATM   24  O   UNK N   1      36.263  14.853   9.120  0.00  0.00    -0.292 OA
BRANCH  23  25
HETATM   25  C   UNK N   1      35.814  16.359  10.854  0.00  0.00     0.246 C 
BRANCH  25  26
HETATM   26  O   UNK N   1      34.617  17.017  10.570  0.00  0.00    -0.393 OA
HETATM   27  H   UNK N   1      33.687  16.937  10.308  0.00  0.00     0.209 HD
ENDBRANCH  25  26
ENDBRANCH  23  25
ENDBRANCH  20  23
BRANCH  20  28
HETATM   28  O   UNK N   1      34.132  14.193  11.687  0.00  0.00    -0.377 OA
HETATM   29  H   UNK N   1      33.217  14.195  12.005  0.00  0.00     0.211 HD
ENDBRANCH  20  28
BRANCH  16  30
HETATM   30  O   UNK N   1      35.895  14.111  15.511  0.00  0.00    -0.392 OA
HETATM   31  H   UNK N   1      36.305  13.554  16.192  0.00  0.00     0.210 HD
ENDBRANCH  16  30
TORSDOF 5
ENDMDL
MODEL 2
REMARK VINA RESULT:      -7.6     18.843     21.915
REMARK  5 active torsions:
REMARK  status: ('A' for Active; 'I' for Inactive)
REMARK    1  A    between atoms: C_18  and  C_11 
REMARK    2  A    between atoms: O_24  and  C_11 
REMARK    3  A    between atoms: C_17  and  O_26 
REMARK    4  A    between atoms: C_22  and  C_18 
REMARK    5  A    between atoms: C_22  and  O_28 
ROOT
HETATM    1  C   UNK N   1      25.771  23.860  -6.203  0.00  0.00     0.018 C 
HETATM    2  C   UNK N   1      32.299  23.531  -4.623  0.00  0.00     0.028 C 
HETATM    3  C   UNK N   1      29.217  26.165  -5.010  0.00  0.00     0.020 C 
HETATM    4  C   UNK N   1      31.194  21.444  -6.631  0.00  0.00     0.036 C 
HETATM    5  C   UNK N   1      29.725  21.330  -6.240  0.00  0.00     0.013 C 
HETATM    6  C   UNK N   1      33.426  20.657  -2.965  0.00  0.00     0.052 A 
HETATM    7  C   UNK N   1      32.648  21.747  -3.003  0.00  0.00    -0.006 A 
HETATM    8  C   UNK N   1      28.183  23.937  -6.655  0.00  0.00     0.043 C 
HETATM    9  C   UNK N   1      32.774  20.104  -5.349  0.00  0.00     0.058 A 
HETATM   10  C   UNK N   1      29.730  24.558  -3.222  0.00  0.00     0.048 C 
HETATM   11  C   UNK N   1      26.985  24.255  -5.818  0.00  0.00    -0.047 C 
HETATM   12  C   UNK N   1      32.002  21.199  -5.401  0.00  0.00    -0.061 A 
HETATM   13  C   UNK N   1      33.515  19.770  -4.129  0.00  0.00     0.172 A 
HETATM   14  C   UNK N   1      29.347  22.296  -5.101  0.00  0.00     0.035 C 
HETATM   15  C   UNK N   1      29.293  23.766  -5.612  0.00  0.00     0.009 C 
HETATM   16  C   UNK N   1      29.818  23.103  -2.736  0.00  0.00     0.160 C 
HETATM   17  C   UNK N   1      31.812  22.146  -4.214  0.00  0.00     0.036 A 
HETATM   18  C   UNK N   1      28.885  24.753  -4.499  0.00  0.00     0.005 C 
HETATM   19  C   UNK N   1      30.277  22.107  -3.848  0.00  0.00     0.147 C 
HETATM   20  C   UNK N   1      27.326  24.593  -4.385  0.00  0.00     0.150 C 
HETATM   21  F   UNK N   1      30.036  20.826  -3.365  0.00  0.00    -0.238 F 
HETATM   22  O   UNK N   1      34.185  18.752  -4.077  0.00  0.00    -0.289 OA
ENDROOT
BRANCH  20  23
HETATM   23  C   UNK N   1      26.647  25.824  -3.797  0.00  0.00     0.189 C 
HETATM   24  O   UNK N   1      26.514  25.908  -2.586  0.00  0.00    -0.292 OA
BRANCH  23  25
HETATM   25  C   UNK N   1      26.149  26.953  -4.648  0.00  0.00     0.246 C 
BRANCH  25  26
HETATM   26  O   UNK N   1      25.469  27.888  -3.868  0.00  0.00    -0.393 OA
HETATM   27  H   UNK N   1      25.527  28.684  -3.316  0.00  0.00     0.209 HD
ENDBRANCH  25  26
ENDBRANCH  23  25
ENDBRANCH  20  23
BRANCH  20  28
HETATM   28  O   UNK N   1      26.956  23.501  -3.595  0.00  0.00    -0.377 OA
HETATM   29  H   UNK N   1      27.055  22.771  -2.964  0.00  0.00     0.211 HD
ENDBRANCH  20  28
BRANCH  16  30
HETATM   30  O   UNK N   1      30.645  23.043  -1.614  0.00  0.00    -0.392 OA
HETATM   31  H   UNK N   1      31.134  22.230  -1.414  0.00  0.00     0.210 HD
ENDBRANCH  16  30
TORSDOF 5
ENDMDL
MODEL 3
REMARK VINA RESULT:      -7.1      3.785      6.165
REMARK  5 active torsions:
REMARK  status: ('A' for Active; 'I' for Inactive)
REMARK    1  A    between atoms: C_18  and  C_11 
REMARK    2  A    between atoms: O_24  and  C_11 
REMARK    3  A    between atoms: C_17  and  O_26 
REMARK    4  A    between atoms: C_22  and  C_18 
REMARK    5  A    between atoms: C_22  and  O_28 
ROOT
HETATM    1  C   UNK N   1      33.681  14.529   4.286  0.00  0.00     0.018 C 
HETATM    2  C   UNK N   1      35.861  16.102  10.450  0.00  0.00     0.028 C 
HETATM    3  C   UNK N   1      34.064  17.714   7.170  0.00  0.00     0.020 C 
HETATM    4  C   UNK N   1      37.342  13.843   8.929  0.00  0.00     0.036 C 
HETATM    5  C   UNK N   1      36.268  13.287   8.001  0.00  0.00     0.013 C 
HETATM    6  C   UNK N   1      35.622  13.643  12.934  0.00  0.00     0.052 A 
HETATM    7  C   UNK N   1      35.039  14.453  12.042  0.00  0.00    -0.006 A 
HETATM    8  C   UNK N   1      35.309  15.331   5.940  0.00  0.00     0.043 C 
HETATM    9  C   UNK N   1      37.363  12.994  11.212  0.00  0.00     0.058 A 
HETATM   10  C   UNK N   1      33.155  16.278   8.946  0.00  0.00     0.048 C 
HETATM   11  C   UNK N   1      33.925  15.254   5.378  0.00  0.00    -0.047 C 
HETATM   12  C   UNK N   1      36.793  13.811  10.315  0.00  0.00    -0.061 A 
HETATM   13  C   UNK N   1      36.803  12.857  12.560  0.00  0.00     0.172 A 
HETATM   14  C   UNK N   1      34.941  14.062   8.113  0.00  0.00     0.035 C 
HETATM   15  C   UNK N   1      35.058  15.465   7.447  0.00  0.00     0.009 C 
HETATM   16  C   UNK N   1      33.073  14.901   9.621  0.00  0.00     0.160 C 
HETATM   17  C   UNK N   1      35.528  14.623  10.608  0.00  0.00     0.036 A 
HETATM   18  C   UNK N   1      33.733  16.253   7.515  0.00  0.00     0.005 C 
HETATM   19  C   UNK N   1      34.426  14.120   9.596  0.00  0.00     0.147 C 
HETATM   20  C   UNK N   1      32.850  15.635   6.371  0.00  0.00     0.150 C 
HETATM   21  F   UNK N   1      34.141  12.811   9.968  0.00  0.00    -0.238 F 
HETATM   22  O   UNK N   1      37.304  12.082  13.357  0.00  0.00    -0.289 OA
ENDROOT
BRANCH  20  23
HETATM   23  C   UNK N   1      31.773  16.591   5.874  0.00  0.00     0.189 C 
HETATM   24  O   UNK N   1      30.734  16.697   6.508  0.00  0.00    -0.292 OA
BRANCH  23  25
HETATM   25  C   UNK N   1      31.944  17.426   4.642  0.00  0.00     0.246 C 
BRANCH  25  26
HETATM   26  O   UNK N   1      30.711  17.918   4.212  0.00  0.00    -0.393 OA
HETATM   27  H   UNK N   1      29.757  17.976   4.375  0.00  0.00     0.209 HD
ENDBRANCH  25  26
ENDBRANCH  23  25
ENDBRANCH  20  23
BRANCH  20  28
HETATM   28  O   UNK N   1      32.208  14.459   6.768  0.00  0.00    -0.377 OA
HETATM   29  H   UNK N   1      31.483  13.827   6.895  0.00  0.00     0.211 HD
ENDBRANCH  20  28
BRANCH  16  30
HETATM   30  O   UNK N   1      32.588  15.054  10.920  0.00  0.00    -0.392 OA
HETATM   31  H   UNK N   1      32.965  15.731  11.503  0.00  0.00     0.210 HD
ENDBRANCH  16  30
TORSDOF 5
ENDMDL
MODEL 4
REMARK VINA RESULT:      -6.9      3.921      8.404
REMARK  5 active torsions:
REMARK  status: ('A' for Active; 'I' for Inactive)
REMARK    1  A    between atoms: C_18  and  C_11 
REMARK    2  A    between atoms: O_24  and  C_11 
REMARK    3  A    between atoms: C_17  and  O_26 
REMARK    4  A    between atoms: C_22  and  C_18 
REMARK    5  A    between atoms: C_22  and  O_28 
ROOT
HETATM    1  C   UNK N   1      38.887  13.244   9.525  0.00  0.00     0.018 C 
HETATM    2  C   UNK N   1      32.581  14.171   7.377  0.00  0.00     0.028 C 
HETATM    3  C   UNK N   1      34.746  12.291  10.270  0.00  0.00     0.020 C 
HETATM    4  C   UNK N   1      34.848  14.226   5.263  0.00  0.00     0.036 C 
HETATM    5  C   UNK N   1      36.059  14.687   6.065  0.00  0.00     0.013 C 
HETATM    6  C   UNK N   1      31.793  17.267   5.940  0.00  0.00     0.052 A 
HETATM    7  C   UNK N   1      32.201  16.544   6.991  0.00  0.00    -0.006 A 
HETATM    8  C   UNK N   1      36.862  12.701   8.246  0.00  0.00     0.043 C 
HETATM    9  C   UNK N   1      33.359  15.967   4.433  0.00  0.00     0.058 A 
HETATM   10  C   UNK N   1      34.111  14.654  10.031  0.00  0.00     0.048 C 
HETATM   11  C   UNK N   1      37.556  13.170   9.486  0.00  0.00    -0.047 C 
HETATM   12  C   UNK N   1      33.766  15.230   5.477  0.00  0.00    -0.061 A 
HETATM   13  C   UNK N   1      32.364  17.028   4.611  0.00  0.00     0.172 A 
HETATM   14  C   UNK N   1      35.735  14.874   7.559  0.00  0.00     0.035 C 
HETATM   15  C   UNK N   1      35.552  13.498   8.266  0.00  0.00     0.009 C 
HETATM   16  C   UNK N   1      34.267  15.998   9.306  0.00  0.00     0.160 C 
HETATM   17  C   UNK N   1      33.260  15.451   6.905  0.00  0.00     0.036 A 
HETATM   18  C   UNK N   1      35.257  13.653   9.772  0.00  0.00     0.005 C 
HETATM   19  C   UNK N   1      34.518  15.846   7.771  0.00  0.00     0.147 C 
HETATM   20  C   UNK N   1      36.659  13.951  10.418  0.00  0.00     0.150 C 
HETATM   21  F   UNK N   1      34.922  17.093   7.306  0.00  0.00    -0.238 F 
HETATM   22  O   UNK N   1      32.029  17.720   3.664  0.00  0.00    -0.289 OA
ENDROOT
BRANCH  20  23
HETATM   23  C   UNK N   1      36.721  13.577  11.894  0.00  0.00     0.189 C 
HETATM   24  O   UNK N   1      37.324  12.568  12.226  0.00  0.00    -0.292 OA
BRANCH  23  25
HETATM   25  C   UNK N   1      36.085  14.411  12.964  0.00  0.00     0.246 C 
BRANCH  25  26
HETATM   26  O   UNK N   1      34.986  13.747  13.510  0.00  0.00    -0.393 OA
HETATM   27  H   UNK N   1      34.346  13.695  14.237  0.00  0.00     0.209 HD
ENDBRANCH  25  26
ENDBRANCH  23  25
ENDBRANCH  20  23
BRANCH  20  28
HETATM   28  O   UNK N   1      37.018  15.298  10.318  0.00  0.00    -0.377 OA
HETATM   29  H   UNK N   1      37.348  16.114   9.912  0.00  0.00     0.211 HD
ENDBRANCH  20  28
BRANCH  16  30
HETATM   30  O   UNK N   1      33.153  16.795   9.571  0.00  0.00    -0.392 OA
HETATM   31  H   UNK N   1      32.965  17.082  10.478  0.00  0.00     0.210 HD
ENDBRANCH  16  30
TORSDOF 5
ENDMDL
MODEL 5
REMARK VINA RESULT:      -6.8      2.164      3.293
REMARK  5 active torsions:
REMARK  status: ('A' for Active; 'I' for Inactive)
REMARK    1  A    between atoms: C_18  and  C_11 
REMARK    2  A    between atoms: O_24  and  C_11 
REMARK    3  A    between atoms: C_17  and  O_26 
REMARK    4  A    between atoms: C_22  and  C_18 
REMARK    5  A    between atoms: C_22  and  O_28 
ROOT
HETATM    1  C   UNK N   1      34.201   7.617  11.175  0.00  0.00     0.018 C 
HETATM    2  C   UNK N   1      37.379  12.073  15.084  0.00  0.00     0.028 C 
HETATM    3  C   UNK N   1      37.448  10.453  11.348  0.00  0.00     0.020 C 
HETATM    4  C   UNK N   1      36.035   9.645  16.464  0.00  0.00     0.036 C 
HETATM    5  C   UNK N   1      34.903   9.285  15.508  0.00  0.00     0.013 C 
HETATM    6  C   UNK N   1      35.455  13.867  17.397  0.00  0.00     0.052 A 
HETATM    7  C   UNK N   1      35.742  13.539  16.131  0.00  0.00    -0.006 A 
HETATM    8  C   UNK N   1      35.911   8.367  12.771  0.00  0.00     0.043 C 
HETATM    9  C   UNK N   1      35.590  11.427  18.063  0.00  0.00     0.058 A 
HETATM   10  C   UNK N   1      35.969  12.157  12.323  0.00  0.00     0.048 C 
HETATM   11  C   UNK N   1      35.071   8.557  11.548  0.00  0.00    -0.047 C 
HETATM   12  C   UNK N   1      35.889  11.090  16.800  0.00  0.00    -0.061 A 
HETATM   13  C   UNK N   1      35.346  12.827  18.425  0.00  0.00     0.172 A 
HETATM   14  C   UNK N   1      34.898  10.172  14.248  0.00  0.00     0.035 C 
HETATM   15  C   UNK N   1      36.074   9.798  13.299  0.00  0.00     0.009 C 
HETATM   16  C   UNK N   1      34.834  12.527  13.290  0.00  0.00     0.160 C 
HETATM   17  C   UNK N   1      35.969  12.108  15.660  0.00  0.00     0.036 A 
HETATM   18  C   UNK N   1      36.075  10.649  12.012  0.00  0.00     0.005 C 
HETATM   19  C   UNK N   1      34.858  11.699  14.615  0.00  0.00     0.147 C 
HETATM   20  C   UNK N   1      34.963  10.000  11.111  0.00  0.00     0.150 C 
HETATM   21  F   UNK N   1      33.641  11.923  15.249  0.00  0.00    -0.238 F 
HETATM   22  O   UNK N   1      35.036  13.120  19.568  0.00  0.00    -0.289 OA
ENDROOT
BRANCH  20  23
HETATM   23  C   UNK N   1      35.168  10.278   9.626  0.00  0.00     0.189 C 
HETATM   24  O   UNK N   1      35.572   9.381   8.904  0.00  0.00    -0.292 OA
BRANCH  23  25
HETATM   25  C   UNK N   1      34.872  11.612   9.009  0.00  0.00     0.246 C 
BRANCH  25  26
HETATM   26  O   UNK N   1      33.516  11.915   9.132  0.00  0.00    -0.393 OA
HETATM   27  H   UNK N   1      32.805  12.550   8.954  0.00  0.00     0.209 HD
ENDBRANCH  25  26
ENDBRANCH  23  25
ENDBRANCH  20  23
BRANCH  20  28
HETATM   28  O   UNK N   1      33.680  10.445  11.441  0.00  0.00    -0.377 OA
HETATM   29  H   UNK N   1      32.992  11.036  11.784  0.00  0.00     0.211 HD
ENDBRANCH  20  28
BRANCH  16  30
HETATM   30  O   UNK N   1      34.869  13.899  13.537  0.00  0.00    -0.392 OA
HETATM   31  H   UNK N   1      35.697  14.323  13.810  0.00  0.00     0.210 HD
ENDBRANCH  16  30
TORSDOF 5
ENDMDL
MODEL 6
REMARK VINA RESULT:      -6.6     24.041     25.844
REMARK  5 active torsions:
REMARK  status: ('A' for Active; 'I' for Inactive)
REMARK    1  A    between atoms: C_18  and  C_11 
REMARK    2  A    between atoms: O_24  and  C_11 
REMARK    3  A    between atoms: C_17  and  O_26 
REMARK    4  A    between atoms: C_22  and  C_18 
REMARK    5  A    between atoms: C_22  and  O_28 
ROOT
HETATM    1  C   UNK N   1      29.273  23.412  -9.874  0.00  0.00     0.018 C 
HETATM    2  C   UNK N   1      25.088  27.050  -6.069  0.00  0.00     0.028 C 
HETATM    3  C   UNK N   1      25.139  24.046  -8.820  0.00  0.00     0.020 C 
HETATM    4  C   UNK N   1      27.717  28.394  -7.011  0.00  0.00     0.036 C 
HETATM    5  C   UNK N   1      28.666  27.214  -7.187  0.00  0.00     0.013 C 
HETATM    6  C   UNK N   1      26.232  28.076  -2.921  0.00  0.00     0.052 A 
HETATM    7  C   UNK N   1      25.915  27.099  -3.780  0.00  0.00    -0.006 A 
HETATM    8  C   UNK N   1      27.764  25.285  -9.380  0.00  0.00     0.043 C 
HETATM    9  C   UNK N   1      27.489  29.287  -4.756  0.00  0.00     0.058 A 
HETATM   10  C   UNK N   1      25.699  24.030  -6.426  0.00  0.00     0.048 C 
HETATM   11  C   UNK N   1      28.137  23.837  -9.322  0.00  0.00    -0.047 C 
HETATM   12  C   UNK N   1      27.168  28.319  -5.627  0.00  0.00    -0.061 A 
HETATM   13  C   UNK N   1      27.050  29.211  -3.360  0.00  0.00     0.172 A 
HETATM   14  C   UNK N   1      27.978  25.864  -6.914  0.00  0.00     0.035 C 
HETATM   15  C   UNK N   1      27.000  25.494  -8.068  0.00  0.00     0.009 C 
HETATM   16  C   UNK N   1      26.647  24.431  -5.287  0.00  0.00     0.160 C 
HETATM   17  C   UNK N   1      26.364  27.076  -5.237  0.00  0.00     0.036 A 
HETATM   18  C   UNK N   1      26.317  24.129  -7.836  0.00  0.00     0.005 C 
HETATM   19  C   UNK N   1      27.303  25.834  -5.495  0.00  0.00     0.147 C 
HETATM   20  C   UNK N   1      27.409  23.072  -8.240  0.00  0.00     0.150 C 
HETATM   21  F   UNK N   1      28.331  25.938  -4.565  0.00  0.00    -0.238 F 
HETATM   22  O   UNK N   1      27.380  30.076  -2.565  0.00  0.00    -0.289 OA
ENDROOT
BRANCH  20  23
HETATM   23  C   UNK N   1      26.810  21.729  -8.642  0.00  0.00     0.189 C 
HETATM   24  O   UNK N   1      26.474  20.944  -7.770  0.00  0.00    -0.292 OA
BRANCH  23  25
HETATM   25  C   UNK N   1      26.597  21.339 -10.074  0.00  0.00     0.246 C 
BRANCH  25  26
HETATM   26  O   UNK N   1      25.297  20.870 -10.261  0.00  0.00    -0.393 OA
HETATM   27  H   UNK N   1      24.715  20.252 -10.730  0.00  0.00     0.209 HD
ENDBRANCH  25  26
ENDBRANCH  23  25
ENDBRANCH  20  23
BRANCH  20  28
HETATM   28  O   UNK N   1      28.322  22.826  -7.211  0.00  0.00    -0.377 OA
HETATM   29  H   UNK N   1      28.859  23.000  -6.423  0.00  0.00     0.211 HD
ENDBRANCH  20  28
BRANCH  16  30
HETATM   30  O   UNK N   1      25.966  24.354  -4.072  0.00  0.00    -0.392 OA
HETATM   31  H   UNK N   1      26.237  24.911  -3.326  0.00  0.00     0.210 HD
ENDBRANCH  16  30
TORSDOF 5
ENDMDL
MODEL 7
REMARK VINA RESULT:      -6.5     20.083     23.145
REMARK  5 active torsions:
REMARK  status: ('A' for Active; 'I' for Inactive)
REMARK    1  A    between atoms: C_18  and  C_11 
REMARK    2  A    between atoms: O_24  and  C_11 
REMARK    3  A    between atoms: C_17  and  O_26 
REMARK    4  A    between atoms: C_22  and  C_18 
REMARK    5  A    between atoms: C_22  and  O_28 
ROOT
HETATM    1  C   UNK N   1      31.596  20.717  -7.802  0.00  0.00     0.018 C 
HETATM    2  C   UNK N   1      27.480  23.770  -3.447  0.00  0.00     0.028 C 
HETATM    3  C   UNK N   1      30.523  21.070  -3.638  0.00  0.00     0.020 C 
HETATM    4  C   UNK N   1      26.429  23.276  -6.321  0.00  0.00     0.036 C 
HETATM    5  C   UNK N   1      27.702  23.261  -7.158  0.00  0.00     0.013 C 
HETATM    6  C   UNK N   1      26.518  27.063  -4.156  0.00  0.00     0.052 A 
HETATM    7  C   UNK N   1      27.473  26.164  -3.886  0.00  0.00    -0.006 A 
HETATM    8  C   UNK N   1      29.569  20.951  -6.434  0.00  0.00     0.043 C 
HETATM    9  C   UNK N   1      25.476  25.461  -5.818  0.00  0.00     0.058 A 
HETATM   10  C   UNK N   1      30.552  23.523  -3.791  0.00  0.00     0.048 C 
HETATM   11  C   UNK N   1      31.046  21.072  -6.640  0.00  0.00    -0.047 C 
HETATM   12  C   UNK N   1      26.422  24.550  -5.546  0.00  0.00    -0.061 A 
HETATM   13  C   UNK N   1      25.481  26.765  -5.149  0.00  0.00     0.172 A 
HETATM   14  C   UNK N   1      28.970  23.418  -6.297  0.00  0.00     0.035 C 
HETATM   15  C   UNK N   1      29.259  22.118  -5.490  0.00  0.00     0.009 C 
HETATM   16  C   UNK N   1      30.229  24.803  -4.575  0.00  0.00     0.160 C 
HETATM   17  C   UNK N   1      27.569  24.803  -4.564  0.00  0.00     0.036 A 
HETATM   18  C   UNK N   1      30.543  22.235  -4.641  0.00  0.00     0.005 C 
HETATM   19  C   UNK N   1      28.905  24.705  -5.399  0.00  0.00     0.147 C 
HETATM   20  C   UNK N   1      31.713  22.018  -5.668  0.00  0.00     0.150 C 
HETATM   21  F   UNK N   1      28.889  25.793  -6.265  0.00  0.00    -0.238 F 
HETATM   22  O   UNK N   1      24.640  27.603  -5.432  0.00  0.00    -0.289 OA
ENDROOT
BRANCH  20  23
HETATM   23  C   UNK N   1      32.995  21.524  -5.008  0.00  0.00     0.189 C 
HETATM   24  O   UNK N   1      33.751  22.336  -4.497  0.00  0.00    -0.292 OA
BRANCH  23  25
HETATM   25  C   UNK N   1      33.358  20.072  -4.941  0.00  0.00     0.246 C 
BRANCH  25  26
HETATM   26  O   UNK N   1      33.709  19.717  -3.639  0.00  0.00    -0.393 OA
HETATM   27  H   UNK N   1      33.652  19.055  -2.932  0.00  0.00     0.209 HD
ENDBRANCH  25  26
ENDBRANCH  23  25
ENDBRANCH  20  23
BRANCH  20  28
HETATM   28  O   UNK N   1      32.033  23.185  -6.368  0.00  0.00    -0.377 OA
HETATM   29  H   UNK N   1      32.322  23.740  -7.108  0.00  0.00     0.211 HD
ENDBRANCH  20  28
BRANCH  16  30
HETATM   30  O   UNK N   1      30.214  25.888  -3.699  0.00  0.00    -0.392 OA
HETATM   31  H   UNK N   1      29.476  26.516  -3.715  0.00  0.00     0.210 HD
ENDBRANCH  16  30
TORSDOF 5
ENDMDL
MODEL 8
REMARK VINA RESULT:      -6.0     23.270     25.186
REMARK  5 active torsions:
REMARK  status: ('A' for Active; 'I' for Inactive)
REMARK    1  A    between atoms: C_18  and  C_11 
REMARK    2  A    between atoms: O_24  and  C_11 
REMARK    3  A    between atoms: C_17  and  O_26 
REMARK    4  A    between atoms: C_22  and  C_18 
REMARK    5  A    between atoms: C_22  and  O_28 
ROOT
HETATM    1  C   UNK N   1      29.318  23.456 -11.088  0.00  0.00     0.018 C 
HETATM    2  C   UNK N   1      25.563  23.974  -5.533  0.00  0.00     0.028 C 
HETATM    3  C   UNK N   1      27.020  21.246  -8.183  0.00  0.00     0.020 C 
HETATM    4  C   UNK N   1      25.562  26.368  -7.502  0.00  0.00     0.036 C 
HETATM    5  C   UNK N   1      26.923  26.259  -8.181  0.00  0.00     0.013 C 
HETATM    6  C   UNK N   1      26.413  26.468  -3.224  0.00  0.00     0.052 A 
HETATM    7  C   UNK N   1      26.725  25.354  -3.899  0.00  0.00    -0.006 A 
HETATM    8  C   UNK N   1      27.228  23.698  -9.821  0.00  0.00     0.043 C 
HETATM    9  C   UNK N   1      25.502  27.504  -5.348  0.00  0.00     0.058 A 
HETATM   10  C   UNK N   1      28.129  22.429  -6.336  0.00  0.00     0.048 C 
HETATM   11  C   UNK N   1      28.578  23.090 -10.041  0.00  0.00    -0.047 C 
HETATM   12  C   UNK N   1      25.800  26.389  -6.030  0.00  0.00    -0.061 A 
HETATM   13  C   UNK N   1      25.802  27.607  -3.917  0.00  0.00     0.172 A 
HETATM   14  C   UNK N   1      27.715  25.026  -7.708  0.00  0.00     0.035 C 
HETATM   15  C   UNK N   1      27.107  23.716  -8.293  0.00  0.00     0.009 C 
HETATM   16  C   UNK N   1      28.693  23.732  -5.748  0.00  0.00     0.160 C 
HETATM   17  C   UNK N   1      26.487  25.178  -5.394  0.00  0.00     0.036 A 
HETATM   18  C   UNK N   1      27.900  22.464  -7.862  0.00  0.00     0.005 C 
HETATM   19  C   UNK N   1      27.864  24.996  -6.144  0.00  0.00     0.147 C 
HETATM   20  C   UNK N   1      29.162  22.457  -8.799  0.00  0.00     0.150 C 
HETATM   21  F   UNK N   1      28.632  26.103  -5.798  0.00  0.00    -0.238 F 
HETATM   22  O   UNK N   1      25.563  28.639  -3.313  0.00  0.00    -0.289 OA
ENDROOT
BRANCH  20  23
HETATM   23  C   UNK N   1      29.768  21.069  -8.964  0.00  0.00     0.189 C 
HETATM   24  O   UNK N   1      29.507  20.422  -9.966  0.00  0.00    -0.292 OA
BRANCH  23  25
HETATM   25  C   UNK N   1      30.692  20.468  -7.949  0.00  0.00     0.246 C 
BRANCH  25  26
HETATM   26  O   UNK N   1      30.020  19.517  -7.181  0.00  0.00    -0.393 OA
HETATM   27  H   UNK N   1      29.626  18.631  -7.145  0.00  0.00     0.209 HD
ENDBRANCH  25  26
ENDBRANCH  23  25
ENDBRANCH  20  23
BRANCH  20  28
HETATM   28  O   UNK N   1      30.177  23.298  -8.336  0.00  0.00    -0.377 OA
HETATM   29  H   UNK N   1      30.797  24.044  -8.331  0.00  0.00     0.211 HD
ENDBRANCH  20  28
BRANCH  16  30
HETATM   30  O   UNK N   1      28.807  23.601  -4.364  0.00  0.00    -0.392 OA
HETATM   31  H   UNK N   1      28.154  23.082  -3.870  0.00  0.00     0.210 HD
ENDBRANCH  16  30
TORSDOF 5
ENDMDL
MODEL 9
REMARK VINA RESULT:      -6.0      5.592      9.131
REMARK  5 active torsions:
REMARK  status: ('A' for Active; 'I' for Inactive)
REMARK    1  A    between atoms: C_18  and  C_11 
REMARK    2  A    between atoms: O_24  and  C_11 
REMARK    3  A    between atoms: C_17  and  O_26 
REMARK    4  A    between atoms: C_22  and  C_18 
REMARK    5  A    between atoms: C_22  and  O_28 
ROOT
HETATM    1  C   UNK N   1      31.653  17.239   2.515  0.00  0.00     0.018 C 
HETATM    2  C   UNK N   1      32.235  15.082   8.858  0.00  0.00     0.028 C 
HETATM    3  C   UNK N   1      29.852  14.781   5.569  0.00  0.00     0.020 C 
HETATM    4  C   UNK N   1      33.372  17.884   8.178  0.00  0.00     0.036 C 
HETATM    5  C   UNK N   1      33.719  17.768   6.698  0.00  0.00     0.013 C 
HETATM    6  C   UNK N   1      35.467  14.582  10.114  0.00  0.00     0.052 A 
HETATM    7  C   UNK N   1      34.503  14.282   9.234  0.00  0.00    -0.006 A 
HETATM    8  C   UNK N   1      31.263  17.302   4.939  0.00  0.00     0.043 C 
HETATM    9  C   UNK N   1      35.029  17.051   9.758  0.00  0.00     0.058 A 
HETATM   10  C   UNK N   1      32.020  13.737   6.071  0.00  0.00     0.048 C 
HETATM   11  C   UNK N   1      31.384  16.573   3.638  0.00  0.00    -0.047 C 
HETATM   12  C   UNK N   1      34.055  16.761   8.883  0.00  0.00    -0.061 A 
HETATM   13  C   UNK N   1      35.792  15.982  10.408  0.00  0.00     0.172 A 
HETATM   14  C   UNK N   1      33.329  16.398   6.112  0.00  0.00     0.035 C 
HETATM   15  C   UNK N   1      31.784  16.279   5.954  0.00  0.00     0.009 C 
HETATM   16  C   UNK N   1      33.538  13.867   6.264  0.00  0.00     0.160 C 
HETATM   17  C   UNK N   1      33.691  15.330   8.481  0.00  0.00     0.036 A 
HETATM   18  C   UNK N   1      31.365  14.927   5.339  0.00  0.00     0.005 C 
HETATM   19  C   UNK N   1      33.962  15.215   6.931  0.00  0.00     0.147 C 
HETATM   20  C   UNK N   1      31.645  15.093   3.801  0.00  0.00     0.150 C 
HETATM   21  F   UNK N   1      35.340  15.322   6.779  0.00  0.00    -0.238 F 
HETATM   22  O   UNK N   1      36.703  16.255  11.172  0.00  0.00    -0.289 OA
ENDROOT
BRANCH  20  23
HETATM   23  C   UNK N   1      30.804  14.155   2.943  0.00  0.00     0.189 C 
HETATM   24  O   UNK N   1      31.197  13.016   2.748  0.00  0.00    -0.292 OA
BRANCH  23  25
HETATM   25  C   UNK N   1      29.496  14.571   2.341  0.00  0.00     0.246 C 
BRANCH  25  26
HETATM   26  O   UNK N   1      28.739  13.450   1.999  0.00  0.00    -0.393 OA
HETATM   27  H   UNK N   1      27.995  12.871   2.225  0.00  0.00     0.209 HD
ENDBRANCH  25  26
ENDBRANCH  23  25
ENDBRANCH  20  23
BRANCH  20  28
HETATM   28  O   UNK N   1      32.984  14.863   3.473  0.00  0.00    -0.377 OA
HETATM   29  H   UNK N   1      33.935  15.036   3.395  0.00  0.00     0.211 HD
ENDBRANCH  20  28
BRANCH  16  30
HETATM   30  O   UNK N   1      34.007  12.766   6.980  0.00  0.00    -0.392 OA
HETATM   31  H   UNK N   1      33.398  12.055   7.233  0.00  0.00     0.210 HD
ENDBRANCH  16  30
TORSDOF 5
ENDMDL
