REMARK  11 active torsions:
REMARK  status: ('A' for Active; 'I' for Inactive)
REMARK    1  A    between atoms: C_5  and  C_7 
REMARK    2  A    between atoms: C_7  and  C_8 
REMARK    3  A    between atoms: C_7  and  O_21 
REMARK    4  A    between atoms: C_8  and  N_9 
REMARK    5  A    between atoms: N_9  and  C_10 
REMARK    6  A    between atoms: C_10  and  C_11 
REMARK    7  A    between atoms: C_11  and  C_12 
REMARK    8  A    between atoms: C_15  and  N_18 
REMARK       I    between atoms: N_18  and  C_19 
REMARK    9  A    between atoms: C_19  and  C_22 
REMARK   10  A    between atoms: C_22  and  C_23 
REMARK   11  A    between atoms: C_26  and  N_29 
ROOT
HETATM    1  C   UNK N   1      15.149 -19.552  -0.001  0.00  0.00    -0.057 A 
HETATM    2  C   UNK N   1      15.312 -18.499  -0.907  0.00  0.00     0.009 A 
HETATM    3  C   UNK N   1      16.365 -17.598  -0.743  0.00  0.00     0.030 A 
HETATM    4  C   UNK N   1      17.245 -17.741   0.342  0.00  0.00     0.034 A 
HETATM    5  C   UNK N   1      17.061 -18.778   1.257  0.00  0.00     0.030 A 
HETATM    6  C   UNK N   1      16.016 -19.683   1.087  0.00  0.00     0.009 A 
ENDROOT
BRANCH   1   7
HETATM    7  C   UNK N   1      14.064 -20.543  -0.202  0.00  0.00     0.057 C 
BRANCH   7   8
HETATM    8  C   UNK N   1      12.950 -20.285   0.793  0.00  0.00     0.118 C 
BRANCH   8   9
HETATM    9  N   UNK N   1      12.178 -19.129   0.362  0.00  0.00    -0.418 N 
HETATM   10  H   UNK N   1      12.304 -18.164   0.668  0.00  0.00     0.153 HD
BRANCH   9  11
HETATM   11  C   UNK N   1      11.191 -19.615  -0.588  0.00  0.00     0.150 C 
BRANCH  11  12
HETATM   12  C   UNK N   1       9.940 -20.032   0.161  0.00  0.00     0.168 C 
BRANCH  12  13
HETATM   13  C   UNK N   1       8.896 -18.953   0.102  0.00  0.00    -0.028 A 
HETATM   14  C   UNK N   1       9.186 -17.672   0.596  0.00  0.00     0.010 A 
HETATM   15  C   UNK N   1       8.220 -16.663   0.548  0.00  0.00     0.001 A 
HETATM   16  C   UNK N   1       6.956 -16.930   0.016  0.00  0.00     0.000 A 
HETATM   17  C   UNK N   1       6.658 -18.206  -0.471  0.00  0.00     0.001 A 
HETATM   18  C   UNK N   1       7.624 -19.213  -0.430  0.00  0.00     0.010 A 
ENDBRANCH  12  13
BRANCH  12  19
HETATM   19  O   UNK N   1       9.470 -21.235  -0.371  0.00  0.00    -0.389 OA
HETATM   20  H   UNK N   1       8.583 -21.369  -0.741  0.00  0.00     0.210 HD
ENDBRANCH  12  19
ENDBRANCH  11  12
ENDBRANCH   9  11
ENDBRANCH   8   9
ENDBRANCH   7   8
ENDBRANCH   1   7
BRANCH   4  21
HETATM   21  N   UNK N   1      18.411 -16.950   0.447  0.00  0.00    -0.327 N 
HETATM   22  C   UNK N   1      19.304 -16.866  -0.569  0.00  0.00     0.227 C 
HETATM   23  O   UNK N   1      19.131 -17.493  -1.607  0.00  0.00    -0.273 OA
HETATM   24  H   UNK N   1      18.579 -16.449   1.277  0.00  0.00     0.169 HD
BRANCH  22  25
HETATM   25  C   UNK N   1      20.592 -16.141  -0.361  0.00  0.00     0.160 C 
BRANCH  25  26
HETATM   26  C   UNK N   1      21.736 -17.091  -0.125  0.00  0.00     0.026 A 
HETATM   27  C   UNK N   1      21.574 -18.484   0.088  0.00  0.00     0.078 A 
HETATM   28  S   UNK N   1      23.111 -19.064   0.307  0.00  0.00    -0.064 SA
HETATM   29  C   UNK N   1      23.913 -17.640   0.141  0.00  0.00     0.142 A 
HETATM   30  N   UNK N   1      23.037 -16.636  -0.089  0.00  0.00    -0.340 N 
ATOM     31  HN  UNK N   1      23.306 -15.661  -0.221  1.00  0.00     0.168 HD
BRANCH  29  32
HETATM   32  N   UNK N   1      25.308 -17.469   0.219  0.00  0.00    -0.380 N 
HETATM   33  H   UNK N   1      25.900 -18.254   0.273  0.00  0.00     0.158 HD
HETATM   34  H   UNK N   1      25.693 -16.562   0.219  0.00  0.00     0.158 HD
ENDBRANCH  29  32
ENDBRANCH  25  26
ENDBRANCH  22  25
ENDBRANCH   4  21
TORSDOF 11
