REMARK  15 active torsions:
REMARK  status: ('A' for Active; 'I' for Inactive)
REMARK    1  A    between atoms: C_5  and  C_3 
REMARK    2  A    between atoms: O_24  and  C_4 
REMARK    3  A    between atoms: C_7  and  C_6 
REMARK    4  A    between atoms: C_8  and  C_7 
REMARK    5  A    between atoms: C_10  and  C_9 
REMARK    6  A    between atoms: C_11  and  C_10 
REMARK    7  A    between atoms: C_13  and  C_12 
REMARK    8  A    between atoms: C_14  and  C_13 
REMARK    9  A    between atoms: C_16  and  C_15 
REMARK   10  A    between atoms: C_17  and  C_16 
REMARK   11  A    between atoms: C_19  and  C_18 
REMARK   12  A    between atoms: C_20  and  C_19 
REMARK   13  A    between atoms: C_21  and  C_20 
REMARK   14  A    between atoms: C_22  and  C_21 
REMARK   15  A    between atoms: O_24  and  C_22 
ROOT
HETATM    1  C   UNK N   1       0.060  -2.874   0.184  0.00  0.00    -0.027 C 
HETATM    2  C   UNK N   1       0.355  -1.568   0.140  0.00  0.00    -0.027 C 
ENDROOT
BRANCH   1   3
HETATM    3  C   UNK N   1       0.906  -3.916  -0.485  0.00  0.00     0.053 C 
BRANCH   3   4
HETATM    4  C   UNK N   1       2.215  -4.016   0.225  0.00  0.00    -0.027 C 
HETATM    5  C   UNK N   1       3.356  -3.803  -0.422  0.00  0.00    -0.027 C 
BRANCH   5   6
HETATM    6  C   UNK N   1       4.640  -3.832   0.337  0.00  0.00     0.053 C 
BRANCH   6   7
HETATM    7  C   UNK N   1       5.550  -4.910  -0.162  0.00  0.00    -0.027 C 
HETATM    8  C   UNK N   1       5.308  -6.217   0.004  0.00  0.00    -0.027 C 
BRANCH   8   9
HETATM    9  C   UNK N   1       4.086  -6.750   0.686  0.00  0.00     0.053 C 
BRANCH   9  10
HETATM   10  C   UNK N   1       3.424  -7.739  -0.221  0.00  0.00    -0.027 C 
HETATM   11  C   UNK N   1       2.097  -7.869  -0.328  0.00  0.00    -0.031 C 
BRANCH  11  12
HETATM   12  C   UNK N   1       1.134  -7.057   0.474  0.00  0.00     0.022 C 
HETATM   13  C   UNK N   1      -0.282  -7.410   0.065  0.00  0.00     0.009 C 
ENDBRANCH  11  12
ENDBRANCH   9  10
ENDBRANCH   8   9
ENDBRANCH   6   7
ENDBRANCH   5   6
ENDBRANCH   3   4
ENDBRANCH   1   3
BRANCH   2  14
HETATM   14  C   UNK N   1       1.519  -1.045  -0.642  0.00  0.00     0.053 C 
BRANCH  14  15
HETATM   15  C   UNK N   1       2.654  -0.708   0.274  0.00  0.00    -0.027 C 
HETATM   16  C   UNK N   1       3.247   0.487   0.261  0.00  0.00    -0.030 C 
BRANCH  16  17
HETATM   17  C   UNK N   1       2.798   1.577  -0.661  0.00  0.00     0.027 C 
BRANCH  17  18
HETATM   18  C   UNK N   1       2.343   2.790   0.135  0.00  0.00     0.013 C 
BRANCH  18  19
HETATM   19  C   UNK N   1       1.132   2.484   1.013  0.00  0.00     0.111 C 
BRANCH  19  20
HETATM   20  C   UNK N   1      -0.136   2.411   0.221  0.00  0.00     0.258 C 
HETATM   21  O   UNK N   1      -0.504   3.383  -0.422  0.00  0.00    -0.265 OA
BRANCH  20  22
HETATM   22  O   UNK N   1      -0.887   1.284   0.267  0.00  0.00    -0.322 OA
BRANCH  22  23
HETATM   23  C   UNK N   1      -2.089   1.175  -0.395  0.00  0.00     0.174 C 
HETATM   24  C   UNK N   1      -2.721  -0.167  -0.091  0.00  0.00     0.034 C 
ENDBRANCH  22  23
ENDBRANCH  20  22
ENDBRANCH  19  20
ENDBRANCH  18  19
ENDBRANCH  17  18
ENDBRANCH  16  17
ENDBRANCH  14  15
ENDBRANCH   2  14
TORSDOF 15
