MODEL 1
REMARK VINA RESULT:      -7.0      0.000      0.000
REMARK  5 active torsions:
REMARK  status: ('A' for Active; 'I' for Inactive)
REMARK    1  A    between atoms: C_13  and  C_12 
REMARK    2  A    between atoms: N_19  and  C_12 
REMARK    3  A    between atoms: O_22  and  C_13 
REMARK    4  A    between atoms: N_20  and  C_18 
REMARK    5  A    between atoms: O_22  and  N_20 
ROOT
HETATM    1  C   UNK N   1      33.794  10.050  12.246  0.00  0.00     0.001 A 
HETATM    2  C   UNK N   1      36.675  15.268  17.540  0.00  0.00     0.001 A 
HETATM    3  C   UNK N   1      34.615  10.794  11.425  0.00  0.00     0.001 A 
HETATM    4  C   UNK N   1      37.323  15.697  16.398  0.00  0.00     0.001 A 
HETATM    5  C   UNK N   1      33.729  10.359  13.595  0.00  0.00     0.012 A 
HETATM    6  C   UNK N   1      35.827  14.173  17.469  0.00  0.00     0.012 A 
HETATM    7  C   UNK N   1      35.356  11.836  11.964  0.00  0.00     0.014 A 
HETATM    8  C   UNK N   1      37.116  15.026  15.197  0.00  0.00     0.014 A 
HETATM    9  C   UNK N   1      34.245  11.547  15.504  0.00  0.00     0.013 A 
HETATM   10  C   UNK N   1      34.729  12.434  16.413  0.00  0.00     0.013 A 
HETATM   11  C   UNK N   1      34.468  11.413  14.160  0.00  0.00    -0.024 A 
HETATM   12  C   UNK N   1      35.599  13.480  16.270  0.00  0.00    -0.024 A 
HETATM   13  C   UNK N   1      35.331  12.207  13.332  0.00  0.00     0.004 A 
HETATM   14  C   UNK N   1      36.254  13.900  15.070  0.00  0.00     0.004 A 
HETATM   15  C   UNK N   1      36.157  13.342  13.742  0.00  0.00     0.076 A 
ENDROOT
BRANCH  15  16
HETATM   16  N   UNK N   1      36.897  13.962  12.852  0.00  0.00    -0.265 N 
ATOM     17  HN  UNK N   1      37.903  13.982  13.020  1.00  0.00     0.194 HD
BRANCH  16  18
HETATM   18  O   UNK N   1      36.463  14.563  11.764  0.00  0.00    -0.278 OA
BRANCH  18  19
HETATM   19  C   UNK N   1      35.679  15.683  11.850  0.00  0.00     0.220 C 
BRANCH  19  20
HETATM   20  C   UNK N   1      35.783  16.478  10.561  0.00  0.00     0.142 C 
BRANCH  20  21
HETATM   21  N   UNK N   1      34.477  16.999  10.201  0.00  0.00    -0.423 N 
HETATM   22  C   UNK N   1      34.415  17.009   8.751  0.00  0.00     0.139 C 
HETATM   23  H   UNK N   1      33.743  17.300  10.843  0.00  0.00     0.152 HD
ENDBRANCH  20  21
ENDBRANCH  19  20
ENDBRANCH  18  19
ENDBRANCH  16  18
ENDBRANCH  15  16
TORSDOF 5
ENDMDL
MODEL 2
REMARK VINA RESULT:      -6.5      4.870     10.168
REMARK  5 active torsions:
REMARK  status: ('A' for Active; 'I' for Inactive)
REMARK    1  A    between atoms: C_13  and  C_12 
REMARK    2  A    between atoms: N_19  and  C_12 
REMARK    3  A    between atoms: O_22  and  C_13 
REMARK    4  A    between atoms: N_20  and  C_18 
REMARK    5  A    between atoms: O_22  and  N_20 
ROOT
HETATM    1  C   UNK N   1      28.174  18.382   9.115  0.00  0.00     0.001 A 
HETATM    2  C   UNK N   1      32.699  16.320   2.884  0.00  0.00     0.001 A 
HETATM    3  C   UNK N   1      29.362  18.113   9.762  0.00  0.00     0.001 A 
HETATM    4  C   UNK N   1      33.615  16.177   3.909  0.00  0.00     0.001 A 
HETATM    5  C   UNK N   1      28.113  18.261   7.736  0.00  0.00     0.012 A 
HETATM    6  C   UNK N   1      31.414  16.751   3.178  0.00  0.00     0.012 A 
HETATM    7  C   UNK N   1      30.469  17.727   9.020  0.00  0.00     0.014 A 
HETATM    8  C   UNK N   1      33.236  16.467   5.215  0.00  0.00     0.014 A 
HETATM    9  C   UNK N   1      28.937  17.804   5.631  0.00  0.00     0.013 A 
HETATM   10  C   UNK N   1      29.701  17.451   4.563  0.00  0.00     0.013 A 
HETATM   11  C   UNK N   1      29.222  17.867   6.968  0.00  0.00    -0.024 A 
HETATM   12  C   UNK N   1      31.005  17.047   4.487  0.00  0.00    -0.024 A 
HETATM   13  C   UNK N   1      30.473  17.580   7.611  0.00  0.00     0.004 A 
HETATM   14  C   UNK N   1      31.929  16.907   5.570  0.00  0.00     0.004 A 
HETATM   15  C   UNK N   1      31.718  17.148   6.977  0.00  0.00     0.076 A 
ENDROOT
BRANCH  15  16
HETATM   16  N   UNK N   1      32.782  16.929   7.716  0.00  0.00    -0.265 N 
ATOM     17  HN  UNK N   1      33.508  17.645   7.704  1.00  0.00     0.194 HD
BRANCH  16  18
HETATM   18  O   UNK N   1      32.999  15.872   8.471  0.00  0.00    -0.278 OA
BRANCH  18  19
HETATM   19  C   UNK N   1      34.244  15.627   8.987  0.00  0.00     0.220 C 
BRANCH  19  20
HETATM   20  C   UNK N   1      34.865  16.929   9.460  0.00  0.00     0.142 C 
BRANCH  20  21
HETATM   21  N   UNK N   1      35.022  16.901  10.902  0.00  0.00    -0.423 N 
HETATM   22  C   UNK N   1      36.040  15.908  11.194  0.00  0.00     0.139 C 
HETATM   23  H   UNK N   1      34.515  17.468  11.581  0.00  0.00     0.152 HD
ENDBRANCH  20  21
ENDBRANCH  19  20
ENDBRANCH  18  19
ENDBRANCH  16  18
ENDBRANCH  15  16
TORSDOF 5
ENDMDL
MODEL 3
REMARK VINA RESULT:      -6.4      2.316      3.028
REMARK  5 active torsions:
REMARK  status: ('A' for Active; 'I' for Inactive)
REMARK    1  A    between atoms: C_13  and  C_12 
REMARK    2  A    between atoms: N_19  and  C_12 
REMARK    3  A    between atoms: O_22  and  C_13 
REMARK    4  A    between atoms: N_20  and  C_18 
REMARK    5  A    between atoms: O_22  and  N_20 
ROOT
HETATM    1  C   UNK N   1      35.638   8.286  12.870  0.00  0.00     0.001 A 
HETATM    2  C   UNK N   1      35.312  12.826  19.414  0.00  0.00     0.001 A 
HETATM    3  C   UNK N   1      35.523   9.532  12.290  0.00  0.00     0.001 A 
HETATM    4  C   UNK N   1      35.218  13.799  18.438  0.00  0.00     0.001 A 
HETATM    5  C   UNK N   1      35.687   8.186  14.251  0.00  0.00     0.012 A 
HETATM    6  C   UNK N   1      35.445  11.498  19.039  0.00  0.00     0.012 A 
HETATM    7  C   UNK N   1      35.458  10.657  13.099  0.00  0.00     0.014 A 
HETATM    8  C   UNK N   1      35.258  13.433  17.097  0.00  0.00     0.014 A 
HETATM    9  C   UNK N   1      35.673   8.983  16.415  0.00  0.00     0.013 A 
HETATM   10  C   UNK N   1      35.616   9.749  17.537  0.00  0.00     0.013 A 
HETATM   11  C   UNK N   1      35.618   9.313  15.088  0.00  0.00    -0.024 A 
HETATM   12  C   UNK N   1      35.485  11.102  17.693  0.00  0.00    -0.024 A 
HETATM   13  C   UNK N   1      35.497  10.624  14.516  0.00  0.00     0.004 A 
HETATM   14  C   UNK N   1      35.388  12.085  16.658  0.00  0.00     0.004 A 
HETATM   15  C   UNK N   1      35.400  11.897  15.227  0.00  0.00     0.076 A 
ENDROOT
BRANCH  15  16
HETATM   16  N   UNK N   1      35.297  13.016  14.547  0.00  0.00    -0.265 N 
ATOM     17  HN  UNK N   1      34.356  13.379  14.394  1.00  0.00     0.194 HD
BRANCH  16  18
HETATM   18  O   UNK N   1      36.294  13.712  14.041  0.00  0.00    -0.278 OA
BRANCH  18  19
HETATM   19  C   UNK N   1      36.063  14.687  13.108  0.00  0.00     0.220 C 
BRANCH  19  20
HETATM   20  C   UNK N   1      36.419  14.167  11.727  0.00  0.00     0.142 C 
BRANCH  20  21
HETATM   21  N   UNK N   1      37.572  13.290  11.818  0.00  0.00    -0.423 N 
HETATM   22  C   UNK N   1      38.069  13.110  10.465  0.00  0.00     0.139 C 
HETATM   23  H   UNK N   1      37.960  12.879  12.667  0.00  0.00     0.152 HD
ENDBRANCH  20  21
ENDBRANCH  19  20
ENDBRANCH  18  19
ENDBRANCH  16  18
ENDBRANCH  15  16
TORSDOF 5
ENDMDL
MODEL 4
REMARK VINA RESULT:      -6.4      9.001     11.386
REMARK  5 active torsions:
REMARK  status: ('A' for Active; 'I' for Inactive)
REMARK    1  A    between atoms: C_13  and  C_12 
REMARK    2  A    between atoms: N_19  and  C_12 
REMARK    3  A    between atoms: O_22  and  C_13 
REMARK    4  A    between atoms: N_20  and  C_18 
REMARK    5  A    between atoms: O_22  and  N_20 
ROOT
HETATM    1  C   UNK N   1      29.115  18.314   9.854  0.00  0.00     0.001 A 
HETATM    2  C   UNK N   1      33.202  16.617   3.223  0.00  0.00     0.001 A 
HETATM    3  C   UNK N   1      28.077  18.227   8.950  0.00  0.00     0.001 A 
HETATM    4  C   UNK N   1      31.915  16.632   2.720  0.00  0.00     0.001 A 
HETATM    5  C   UNK N   1      30.410  18.084   9.419  0.00  0.00     0.012 A 
HETATM    6  C   UNK N   1      33.404  16.848   4.576  0.00  0.00     0.012 A 
HETATM    7  C   UNK N   1      28.350  17.913   7.627  0.00  0.00     0.014 A 
HETATM    8  C   UNK N   1      30.845  16.876   3.574  0.00  0.00     0.014 A 
HETATM    9  C   UNK N   1      32.049  17.593   7.872  0.00  0.00     0.013 A 
HETATM   10  C   UNK N   1      32.754  17.306   6.746  0.00  0.00     0.013 A 
HETATM   11  C   UNK N   1      30.708  17.769   8.082  0.00  0.00    -0.024 A 
HETATM   12  C   UNK N   1      32.342  17.101   5.458  0.00  0.00    -0.024 A 
HETATM   13  C   UNK N   1      29.650  17.671   7.117  0.00  0.00     0.004 A 
HETATM   14  C   UNK N   1      30.999  17.124   4.968  0.00  0.00     0.004 A 
HETATM   15  C   UNK N   1      29.775  17.369   5.692  0.00  0.00     0.076 A 
ENDROOT
BRANCH  15  16
HETATM   16  N   UNK N   1      28.697  17.314   4.942  0.00  0.00    -0.265 N 
ATOM     17  HN  UNK N   1      28.269  16.397   4.816  1.00  0.00     0.194 HD
BRANCH  16  18
HETATM   18  O   UNK N   1      28.119  18.331   4.338  0.00  0.00    -0.278 OA
BRANCH  18  19
HETATM   19  C   UNK N   1      26.754  18.436   4.301  0.00  0.00     0.220 C 
BRANCH  19  20
HETATM   20  C   UNK N   1      26.321  19.714   4.997  0.00  0.00     0.142 C 
BRANCH  20  21
HETATM   21  N   UNK N   1      27.464  20.596   5.154  0.00  0.00    -0.423 N 
HETATM   22  C   UNK N   1      27.178  21.453   6.291  0.00  0.00     0.139 C 
HETATM   23  H   UNK N   1      28.305  20.612   4.577  0.00  0.00     0.152 HD
ENDBRANCH  20  21
ENDBRANCH  19  20
ENDBRANCH  18  19
ENDBRANCH  16  18
ENDBRANCH  15  16
TORSDOF 5
ENDMDL
MODEL 5
REMARK VINA RESULT:      -6.4     12.797     15.075
REMARK  5 active torsions:
REMARK  status: ('A' for Active; 'I' for Inactive)
REMARK    1  A    between atoms: C_13  and  C_12 
REMARK    2  A    between atoms: N_19  and  C_12 
REMARK    3  A    between atoms: O_22  and  C_13 
REMARK    4  A    between atoms: N_20  and  C_18 
REMARK    5  A    between atoms: O_22  and  N_20 
ROOT
HETATM    1  C   UNK N   1      22.823  11.752  11.793  0.00  0.00     0.001 A 
HETATM    2  C   UNK N   1      24.185  16.003   5.189  0.00  0.00     0.001 A 
HETATM    3  C   UNK N   1      21.558  12.253  11.568  0.00  0.00     0.001 A 
HETATM    4  C   UNK N   1      22.836  16.247   5.362  0.00  0.00     0.001 A 
HETATM    5  C   UNK N   1      23.841  12.064  10.907  0.00  0.00     0.012 A 
HETATM    6  C   UNK N   1      24.845  15.173   6.082  0.00  0.00     0.012 A 
HETATM    7  C   UNK N   1      21.332  13.059  10.461  0.00  0.00     0.014 A 
HETATM    8  C   UNK N   1      22.162  15.657   6.426  0.00  0.00     0.014 A 
HETATM    9  C   UNK N   1      24.775  13.067   9.053  0.00  0.00     0.013 A 
HETATM   10  C   UNK N   1      25.017  13.792   7.928  0.00  0.00     0.013 A 
HETATM   11  C   UNK N   1      23.633  12.882   9.783  0.00  0.00    -0.024 A 
HETATM   12  C   UNK N   1      24.188  14.568   7.166  0.00  0.00    -0.024 A 
HETATM   13  C   UNK N   1      22.328  13.420   9.520  0.00  0.00     0.004 A 
HETATM   14  C   UNK N   1      22.793  14.802   7.373  0.00  0.00     0.004 A 
HETATM   15  C   UNK N   1      21.935  14.293   8.416  0.00  0.00     0.076 A 
ENDROOT
BRANCH  15  16
HETATM   16  N   UNK N   1      20.688  14.696   8.319  0.00  0.00    -0.265 N 
ATOM     17  HN  UNK N   1      20.095  14.205   7.650  1.00  0.00     0.194 HD
BRANCH  16  18
HETATM   18  O   UNK N   1      20.134  15.676   9.002  0.00  0.00    -0.278 OA
BRANCH  18  19
HETATM   19  C   UNK N   1      19.184  16.478   8.427  0.00  0.00     0.220 C 
BRANCH  19  20
HETATM   20  C   UNK N   1      19.227  17.855   9.063  0.00  0.00     0.142 C 
BRANCH  20  21
HETATM   21  N   UNK N   1      18.006  18.086   9.813  0.00  0.00    -0.423 N 
HETATM   22  C   UNK N   1      18.324  19.063  10.840  0.00  0.00     0.139 C 
HETATM   23  H   UNK N   1      17.100  17.647   9.651  0.00  0.00     0.152 HD
ENDBRANCH  20  21
ENDBRANCH  19  20
ENDBRANCH  18  19
ENDBRANCH  16  18
ENDBRANCH  15  16
TORSDOF 5
ENDMDL
MODEL 6
REMARK VINA RESULT:      -6.3      2.195      4.991
REMARK  5 active torsions:
REMARK  status: ('A' for Active; 'I' for Inactive)
REMARK    1  A    between atoms: C_13  and  C_12 
REMARK    2  A    between atoms: N_19  and  C_12 
REMARK    3  A    between atoms: O_22  and  C_13 
REMARK    4  A    between atoms: N_20  and  C_18 
REMARK    5  A    between atoms: O_22  and  N_20 
ROOT
HETATM    1  C   UNK N   1      35.276  12.827  19.499  0.00  0.00     0.001 A 
HETATM    2  C   UNK N   1      35.508   8.245  12.980  0.00  0.00     0.001 A 
HETATM    3  C   UNK N   1      35.180  13.797  18.523  0.00  0.00     0.001 A 
HETATM    4  C   UNK N   1      35.397   9.493  12.397  0.00  0.00     0.001 A 
HETATM    5  C   UNK N   1      35.349  11.495  19.124  0.00  0.00     0.012 A 
HETATM    6  C   UNK N   1      35.523   8.141  14.363  0.00  0.00     0.012 A 
HETATM    7  C   UNK N   1      35.159  13.420  17.188  0.00  0.00     0.014 A 
HETATM    8  C   UNK N   1      35.301  10.622  13.204  0.00  0.00     0.014 A 
HETATM    9  C   UNK N   1      35.426   9.736  17.635  0.00  0.00     0.013 A 
HETATM   10  C   UNK N   1      35.469   8.947  16.529  0.00  0.00     0.013 A 
HETATM   11  C   UNK N   1      35.333  11.094  17.777  0.00  0.00    -0.024 A 
HETATM   12  C   UNK N   1      35.432   9.264  15.199  0.00  0.00    -0.024 A 
HETATM   13  C   UNK N   1      35.235  12.078  16.737  0.00  0.00     0.004 A 
HETATM   14  C   UNK N   1      35.317  10.570  14.626  0.00  0.00     0.004 A 
HETATM   15  C   UNK N   1      35.218  11.846  15.294  0.00  0.00     0.076 A 
ENDROOT
BRANCH  15  16
HETATM   16  N   UNK N   1      35.119  12.866  14.472  0.00  0.00    -0.265 N 
ATOM     17  HN  UNK N   1      34.184  13.101  14.139  1.00  0.00     0.194 HD
BRANCH  16  18
HETATM   18  O   UNK N   1      36.112  13.613  14.038  0.00  0.00    -0.278 OA
BRANCH  18  19
HETATM   19  C   UNK N   1      35.953  14.417  12.940  0.00  0.00     0.220 C 
BRANCH  19  20
HETATM   20  C   UNK N   1      36.653  13.793  11.746  0.00  0.00     0.142 C 
BRANCH  20  21
HETATM   21  N   UNK N   1      37.091  14.835  10.836  0.00  0.00    -0.423 N 
HETATM   22  C   UNK N   1      36.722  14.406   9.499  0.00  0.00     0.139 C 
HETATM   23  H   UNK N   1      37.567  15.702  11.087  0.00  0.00     0.152 HD
ENDBRANCH  20  21
ENDBRANCH  19  20
ENDBRANCH  18  19
ENDBRANCH  16  18
ENDBRANCH  15  16
TORSDOF 5
ENDMDL
MODEL 7
REMARK VINA RESULT:      -6.1      4.652      9.604
REMARK  5 active torsions:
REMARK  status: ('A' for Active; 'I' for Inactive)
REMARK    1  A    between atoms: C_13  and  C_12 
REMARK    2  A    between atoms: N_19  and  C_12 
REMARK    3  A    between atoms: O_22  and  C_13 
REMARK    4  A    between atoms: N_20  and  C_18 
REMARK    5  A    between atoms: O_22  and  N_20 
ROOT
HETATM    1  C   UNK N   1      32.927  16.266   3.017  0.00  0.00     0.001 A 
HETATM    2  C   UNK N   1      28.162  18.180   9.114  0.00  0.00     0.001 A 
HETATM    3  C   UNK N   1      33.729  15.888   4.073  0.00  0.00     0.001 A 
HETATM    4  C   UNK N   1      29.253  17.685   9.803  0.00  0.00     0.001 A 
HETATM    5  C   UNK N   1      31.667  16.780   3.275  0.00  0.00     0.012 A 
HETATM    6  C   UNK N   1      28.181  18.186   7.727  0.00  0.00     0.012 A 
HETATM    7  C   UNK N   1      33.259  16.032   5.371  0.00  0.00     0.014 A 
HETATM    8  C   UNK N   1      30.349  17.202   9.098  0.00  0.00     0.014 A 
HETATM    9  C   UNK N   1      29.915  17.473   4.606  0.00  0.00     0.013 A 
HETATM   10  C   UNK N   1      29.097  17.805   5.640  0.00  0.00     0.013 A 
HETATM   11  C   UNK N   1      31.175  16.938   4.582  0.00  0.00    -0.024 A 
HETATM   12  C   UNK N   1      29.276  17.707   6.992  0.00  0.00    -0.024 A 
HETATM   13  C   UNK N   1      31.985  16.555   5.704  0.00  0.00     0.004 A 
HETATM   14  C   UNK N   1      30.421  17.190   7.676  0.00  0.00     0.004 A 
HETATM   15  C   UNK N   1      31.644  16.660   7.122  0.00  0.00     0.076 A 
ENDROOT
BRANCH  15  16
HETATM   16  N   UNK N   1      32.505  16.259   8.028  0.00  0.00    -0.265 N 
ATOM     17  HN  UNK N   1      32.408  15.301   8.365  1.00  0.00     0.194 HD
BRANCH  16  18
HETATM   18  O   UNK N   1      33.481  16.976   8.545  0.00  0.00    -0.278 OA
BRANCH  18  19
HETATM   19  C   UNK N   1      34.694  16.406   8.825  0.00  0.00     0.220 C 
BRANCH  19  20
HETATM   20  C   UNK N   1      35.098  16.741  10.249  0.00  0.00     0.142 C 
BRANCH  20  21
HETATM   21  N   UNK N   1      36.172  15.862  10.673  0.00  0.00    -0.423 N 
HETATM   22  C   UNK N   1      35.699  15.161  11.853  0.00  0.00     0.139 C 
HETATM   23  H   UNK N   1      37.085  15.757  10.229  0.00  0.00     0.152 HD
ENDBRANCH  20  21
ENDBRANCH  19  20
ENDBRANCH  18  19
ENDBRANCH  16  18
ENDBRANCH  15  16
TORSDOF 5
ENDMDL
MODEL 8
REMARK VINA RESULT:      -6.0      2.529      2.965
REMARK  5 active torsions:
REMARK  status: ('A' for Active; 'I' for Inactive)
REMARK    1  A    between atoms: C_13  and  C_12 
REMARK    2  A    between atoms: N_19  and  C_12 
REMARK    3  A    between atoms: O_22  and  C_13 
REMARK    4  A    between atoms: N_20  and  C_18 
REMARK    5  A    between atoms: O_22  and  N_20 
ROOT
HETATM    1  C   UNK N   1      38.134   8.761  12.201  0.00  0.00     0.001 A 
HETATM    2  C   UNK N   1      35.148  12.455  18.603  0.00  0.00     0.001 A 
HETATM    3  C   UNK N   1      37.823   9.985  11.646  0.00  0.00     0.001 A 
HETATM    4  C   UNK N   1      35.017  13.457  17.661  0.00  0.00     0.001 A 
HETATM    5  C   UNK N   1      37.898   8.551  13.550  0.00  0.00     0.012 A 
HETATM    6  C   UNK N   1      35.712  11.243  18.233  0.00  0.00     0.012 A 
HETATM    7  C   UNK N   1      37.279  10.978  12.448  0.00  0.00     0.014 A 
HETATM    8  C   UNK N   1      35.453  13.236  16.359  0.00  0.00     0.014 A 
HETATM    9  C   UNK N   1      37.187   9.118  15.670  0.00  0.00     0.013 A 
HETATM   10  C   UNK N   1      36.677   9.739  16.766  0.00  0.00     0.013 A 
HETATM   11  C   UNK N   1      37.344   9.543  14.378  0.00  0.00    -0.024 A 
HETATM   12  C   UNK N   1      36.157  10.994  16.925  0.00  0.00    -0.024 A 
HETATM   13  C   UNK N   1      37.008  10.827  13.831  0.00  0.00     0.004 A 
HETATM   14  C   UNK N   1      36.034  12.011  15.926  0.00  0.00     0.004 A 
HETATM   15  C   UNK N   1      36.416  11.963  14.535  0.00  0.00     0.076 A 
ENDROOT
BRANCH  15  16
HETATM   16  N   UNK N   1      36.172  13.077  13.882  0.00  0.00    -0.265 N 
ATOM     17  HN  UNK N   1      36.917  13.774  13.863  1.00  0.00     0.194 HD
BRANCH  16  18
HETATM   18  O   UNK N   1      35.057  13.378  13.250  0.00  0.00    -0.278 OA
BRANCH  18  19
HETATM   19  C   UNK N   1      35.085  14.126  12.102  0.00  0.00     0.220 C 
BRANCH  19  20
HETATM   20  C   UNK N   1      36.524  14.341  11.669  0.00  0.00     0.142 C 
BRANCH  20  21
HETATM   21  N   UNK N   1      36.642  15.613  10.980  0.00  0.00    -0.423 N 
HETATM   22  C   UNK N   1      35.375  16.302  11.152  0.00  0.00     0.139 C 
HETATM   23  H   UNK N   1      37.457  15.958  10.473  0.00  0.00     0.152 HD
ENDBRANCH  20  21
ENDBRANCH  19  20
ENDBRANCH  18  19
ENDBRANCH  16  18
ENDBRANCH  15  16
TORSDOF 5
ENDMDL
MODEL 9
REMARK VINA RESULT:      -6.0     22.103     26.049
REMARK  5 active torsions:
REMARK  status: ('A' for Active; 'I' for Inactive)
REMARK    1  A    between atoms: C_13  and  C_12 
REMARK    2  A    between atoms: N_19  and  C_12 
REMARK    3  A    between atoms: O_22  and  C_13 
REMARK    4  A    between atoms: N_20  and  C_18 
REMARK    5  A    between atoms: O_22  and  N_20 
ROOT
HETATM    1  C   UNK N   1      28.510  26.442 -10.820  0.00  0.00     0.001 A 
HETATM    2  C   UNK N   1      26.409  29.129  -3.615  0.00  0.00     0.001 A 
HETATM    3  C   UNK N   1      27.519  25.536 -10.508  0.00  0.00     0.001 A 
HETATM    4  C   UNK N   1      25.543  28.059  -3.738  0.00  0.00     0.001 A 
HETATM    5  C   UNK N   1      28.806  27.455  -9.923  0.00  0.00     0.012 A 
HETATM    6  C   UNK N   1      27.279  29.421  -4.654  0.00  0.00     0.012 A 
HETATM    7  C   UNK N   1      26.842  25.655  -9.302  0.00  0.00     0.014 A 
HETATM    8  C   UNK N   1      25.557  27.294  -4.899  0.00  0.00     0.014 A 
HETATM    9  C   UNK N   1      28.595  28.650  -7.961  0.00  0.00     0.013 A 
HETATM   10  C   UNK N   1      28.245  29.114  -6.732  0.00  0.00     0.013 A 
HETATM   11  C   UNK N   1      28.136  27.590  -8.695  0.00  0.00    -0.024 A 
HETATM   12  C   UNK N   1      27.316  28.663  -5.835  0.00  0.00    -0.024 A 
HETATM   13  C   UNK N   1      27.100  26.662  -8.339  0.00  0.00     0.004 A 
HETATM   14  C   UNK N   1      26.433  27.549  -5.992  0.00  0.00     0.004 A 
HETATM   15  C   UNK N   1      26.311  26.642  -7.108  0.00  0.00     0.076 A 
ENDROOT
BRANCH  15  16
HETATM   16  N   UNK N   1      25.392  25.718  -6.940  0.00  0.00    -0.265 N 
ATOM     17  HN  UNK N   1      24.425  26.036  -6.870  1.00  0.00     0.194 HD
BRANCH  16  18
HETATM   18  O   UNK N   1      25.601  24.421  -6.854  0.00  0.00    -0.278 OA
BRANCH  18  19
HETATM   19  C   UNK N   1      25.860  23.835  -5.643  0.00  0.00     0.220 C 
BRANCH  19  20
HETATM   20  C   UNK N   1      27.355  23.620  -5.490  0.00  0.00     0.142 C 
BRANCH  20  21
HETATM   21  N   UNK N   1      27.883  24.541  -4.501  0.00  0.00    -0.423 N 
HETATM   22  C   UNK N   1      27.197  24.256  -3.254  0.00  0.00     0.139 C 
HETATM   23  H   UNK N   1      28.598  25.253  -4.652  0.00  0.00     0.152 HD
ENDBRANCH  20  21
ENDBRANCH  19  20
ENDBRANCH  18  19
ENDBRANCH  16  18
ENDBRANCH  15  16
TORSDOF 5
ENDMDL
