MODEL 1
REMARK VINA RESULT:      -5.1      0.000      0.000
REMARK  13 active torsions:
REMARK  status: ('A' for Active; 'I' for Inactive)
REMARK    1  A    between atoms: C_10  and  C_6 
REMARK    2  A    between atoms: C_11  and  C_7 
REMARK    3  A    between atoms: C_19  and  C_8 
REMARK    4  A    between atoms: C_20  and  C_9 
REMARK    5  A    between atoms: C_12  and  C_10 
REMARK    6  A    between atoms: C_13  and  C_11 
REMARK    7  A    between atoms: C_19  and  C_12 
REMARK    8  A    between atoms: C_20  and  C_13 
REMARK    9  A    between atoms: C_19  and  C_14 
REMARK   10  A    between atoms: N_23  and  C_14 
REMARK   11  A    between atoms: C_20  and  C_15 
REMARK   12  A    between atoms: N_24  and  C_15 
REMARK   13  A    between atoms: N_22  and  C_21 
ROOT
HETATM    1  C   UNK N   1      27.684  14.624   4.340  0.00  0.00     0.041 C 
HETATM    2  C   UNK N   1      30.089  15.115   4.861  0.00  0.00     0.306 C 
HETATM    3  C   UNK N   1      28.856  16.595   3.310  0.00  0.00     0.306 C 
HETATM    4  C   UNK N   1      28.770  17.005   5.729  0.00  0.00     0.542 C 
HETATM    5  C   UNK N   1      29.002  15.149   3.790  0.00  0.00     0.073 C 
HETATM    6  N   UNK N   1      29.884  16.067   5.967  0.00  0.00     0.119 N 
HETATM    7  N   UNK N   1      28.842  17.600   4.385  0.00  0.00     0.119 N 
ENDROOT
BRANCH   6   8
HETATM    8  C   UNK N   1      31.108  16.846   6.134  0.00  0.00     0.279 C 
BRANCH   8   9
HETATM    9  C   UNK N   1      31.814  16.535   7.455  0.00  0.00     0.014 C 
BRANCH   9  10
HETATM   10  C   UNK N   1      33.062  17.397   7.632  0.00  0.00     0.002 C 
HETATM   11  C   UNK N   1      33.808  17.543   6.320  0.00  0.00     0.005 C 
ENDBRANCH   9  10
BRANCH   9  12
HETATM   12  C   UNK N   1      30.842  16.814   8.590  0.00  0.00     0.006 C 
BRANCH  12  13
HETATM   13  C   UNK N   1      30.725  18.310   8.837  0.00  0.00     0.000 C 
BRANCH  13  14
HETATM   14  C   UNK N   1      29.554  18.580   9.758  0.00  0.00    -0.005 C 
HETATM   15  C   UNK N   1      28.267  18.526   8.962  0.00  0.00     0.005 C 
ENDBRANCH  13  14
ENDBRANCH  12  13
ENDBRANCH   9  12
ENDBRANCH   8   9
ENDBRANCH   6   8
BRANCH   5  16
HETATM   16  N   UNK N   1      29.402  14.315   2.674  0.00  0.00    -0.419 N 
HETATM   17  H   UNK N   1      29.855  13.407   2.573  0.00  0.00     0.150 HD
HETATM   18  H   UNK N   1      29.174  14.738   1.774  0.00  0.00     0.150 HD
ENDBRANCH   5  16
BRANCH   7  19
HETATM   19  C   UNK N   1      27.658  18.423   4.142  0.00  0.00     0.279 C 
BRANCH  19  20
HETATM   20  C   UNK N   1      27.183  19.216   5.362  0.00  0.00     0.014 C 
BRANCH  20  21
HETATM   21  C   UNK N   1      27.660  20.662   5.322  0.00  0.00     0.002 C 
HETATM   22  C   UNK N   1      26.896  21.498   6.330  0.00  0.00     0.005 C 
ENDBRANCH  20  21
BRANCH  20  23
HETATM   23  C   UNK N   1      25.659  19.171   5.355  0.00  0.00     0.006 C 
BRANCH  23  24
HETATM   24  C   UNK N   1      25.104  18.690   4.023  0.00  0.00     0.000 C 
BRANCH  24  25
HETATM   25  C   UNK N   1      24.261  19.776   3.379  0.00  0.00    -0.005 C 
HETATM   26  C   UNK N   1      25.130  20.661   2.509  0.00  0.00     0.005 C 
ENDBRANCH  24  25
ENDBRANCH  23  24
ENDBRANCH  20  23
ENDBRANCH  19  20
ENDBRANCH   7  19
TORSDOF 13
ENDMDL
MODEL 2
REMARK VINA RESULT:      -5.1      1.890      3.997
REMARK  13 active torsions:
REMARK  status: ('A' for Active; 'I' for Inactive)
REMARK    1  A    between atoms: C_10  and  C_6 
REMARK    2  A    between atoms: C_11  and  C_7 
REMARK    3  A    between atoms: C_19  and  C_8 
REMARK    4  A    between atoms: C_20  and  C_9 
REMARK    5  A    between atoms: C_12  and  C_10 
REMARK    6  A    between atoms: C_13  and  C_11 
REMARK    7  A    between atoms: C_19  and  C_12 
REMARK    8  A    between atoms: C_20  and  C_13 
REMARK    9  A    between atoms: C_19  and  C_14 
REMARK   10  A    between atoms: N_23  and  C_14 
REMARK   11  A    between atoms: C_20  and  C_15 
REMARK   12  A    between atoms: N_24  and  C_15 
REMARK   13  A    between atoms: N_22  and  C_21 
ROOT
HETATM    1  C   UNK N   1      27.985  19.315   7.158  0.00  0.00     0.041 C 
HETATM    2  C   UNK N   1      29.787  17.688   7.795  0.00  0.00     0.306 C 
HETATM    3  C   UNK N   1      27.506  16.852   7.324  0.00  0.00     0.306 C 
HETATM    4  C   UNK N   1      29.113  17.141   5.490  0.00  0.00     0.542 C 
HETATM    5  C   UNK N   1      28.302  18.025   7.902  0.00  0.00     0.073 C 
HETATM    6  N   UNK N   1      30.228  17.308   6.442  0.00  0.00     0.119 N 
HETATM    7  N   UNK N   1      28.036  16.316   6.060  0.00  0.00     0.119 N 
ENDROOT
BRANCH   6   8
HETATM    8  C   UNK N   1      30.945  16.039   6.532  0.00  0.00     0.279 C 
BRANCH   8   9
HETATM    9  C   UNK N   1      32.241  16.050   5.721  0.00  0.00     0.014 C 
BRANCH   9  10
HETATM   10  C   UNK N   1      31.990  15.652   4.269  0.00  0.00     0.002 C 
HETATM   11  C   UNK N   1      32.279  16.809   3.333  0.00  0.00     0.005 C 
ENDBRANCH   9  10
BRANCH   9  12
HETATM   12  C   UNK N   1      32.819  17.456   5.766  0.00  0.00     0.006 C 
BRANCH  12  13
HETATM   13  C   UNK N   1      34.050  17.499   6.657  0.00  0.00     0.000 C 
BRANCH  13  14
HETATM   14  C   UNK N   1      33.689  18.126   7.987  0.00  0.00    -0.005 C 
HETATM   15  C   UNK N   1      34.156  17.223   9.109  0.00  0.00     0.005 C 
ENDBRANCH  13  14
ENDBRANCH  12  13
ENDBRANCH   9  12
ENDBRANCH   8   9
ENDBRANCH   6   8
BRANCH   5  16
HETATM   16  N   UNK N   1      27.949  18.199   9.297  0.00  0.00    -0.419 N 
HETATM   17  H   UNK N   1      27.087  18.386   9.810  0.00  0.00     0.150 HD
HETATM   18  H   UNK N   1      28.757  18.114   9.914  0.00  0.00     0.150 HD
ENDBRANCH   5  16
BRANCH   7  19
HETATM   19  C   UNK N   1      26.900  16.278   5.140  0.00  0.00     0.279 C 
BRANCH  19  20
HETATM   20  C   UNK N   1      27.188  16.875   3.760  0.00  0.00     0.014 C 
BRANCH  20  21
HETATM   21  C   UNK N   1      27.199  15.811   2.670  0.00  0.00     0.002 C 
HETATM   22  C   UNK N   1      25.805  15.627   2.100  0.00  0.00     0.005 C 
ENDBRANCH  20  21
BRANCH  20  23
HETATM   23  C   UNK N   1      26.092  17.897   3.480  0.00  0.00     0.006 C 
BRANCH  23  24
HETATM   24  C   UNK N   1      26.563  19.325   3.711  0.00  0.00     0.000 C 
BRANCH  24  25
HETATM   25  C   UNK N   1      25.394  20.209   4.107  0.00  0.00    -0.005 C 
HETATM   26  C   UNK N   1      24.524  20.493   2.900  0.00  0.00     0.005 C 
ENDBRANCH  24  25
ENDBRANCH  23  24
ENDBRANCH  20  23
ENDBRANCH  19  20
ENDBRANCH   7  19
TORSDOF 13
ENDMDL
MODEL 3
REMARK VINA RESULT:      -5.1     10.851     13.042
REMARK  13 active torsions:
REMARK  status: ('A' for Active; 'I' for Inactive)
REMARK    1  A    between atoms: C_10  and  C_6 
REMARK    2  A    between atoms: C_11  and  C_7 
REMARK    3  A    between atoms: C_19  and  C_8 
REMARK    4  A    between atoms: C_20  and  C_9 
REMARK    5  A    between atoms: C_12  and  C_10 
REMARK    6  A    between atoms: C_13  and  C_11 
REMARK    7  A    between atoms: C_19  and  C_12 
REMARK    8  A    between atoms: C_20  and  C_13 
REMARK    9  A    between atoms: C_19  and  C_14 
REMARK   10  A    between atoms: N_23  and  C_14 
REMARK   11  A    between atoms: C_20  and  C_15 
REMARK   12  A    between atoms: N_24  and  C_15 
REMARK   13  A    between atoms: N_22  and  C_21 
ROOT
HETATM    1  C   UNK N   1      29.384  26.481  -5.817  0.00  0.00     0.041 C 
HETATM    2  C   UNK N   1      30.661  25.070  -4.181  0.00  0.00     0.306 C 
HETATM    3  C   UNK N   1      28.269  25.543  -3.768  0.00  0.00     0.306 C 
HETATM    4  C   UNK N   1      28.920  23.629  -5.161  0.00  0.00     0.542 C 
HETATM    5  C   UNK N   1      29.563  26.116  -4.350  0.00  0.00     0.073 C 
HETATM    6  N   UNK N   1      30.326  23.743  -4.728  0.00  0.00     0.119 N 
HETATM    7  N   UNK N   1      27.996  24.145  -4.138  0.00  0.00     0.119 N 
ENDROOT
BRANCH   6   8
HETATM    8  C   UNK N   1      30.565  22.745  -3.690  0.00  0.00     0.279 C 
BRANCH   8   9
HETATM    9  C   UNK N   1      31.668  21.760  -4.080  0.00  0.00     0.014 C 
BRANCH   9  10
HETATM   10  C   UNK N   1      32.560  21.427  -2.886  0.00  0.00     0.002 C 
HETATM   11  C   UNK N   1      33.828  20.728  -3.337  0.00  0.00     0.005 C 
ENDBRANCH   9  10
BRANCH   9  12
HETATM   12  C   UNK N   1      31.010  20.487  -4.589  0.00  0.00     0.006 C 
BRANCH  12  13
HETATM   13  C   UNK N   1      31.178  20.364  -6.094  0.00  0.00     0.000 C 
BRANCH  13  14
HETATM   14  C   UNK N   1      29.825  20.477  -6.765  0.00  0.00    -0.005 C 
HETATM   15  C   UNK N   1      29.567  19.231  -7.584  0.00  0.00     0.005 C 
ENDBRANCH  13  14
ENDBRANCH  12  13
ENDBRANCH   9  12
ENDBRANCH   8   9
ENDBRANCH   6   8
BRANCH   5  16
HETATM   16  N   UNK N   1      29.925  27.314  -3.618  0.00  0.00    -0.419 N 
HETATM   17  H   UNK N   1      29.415  28.095  -3.206  0.00  0.00     0.150 HD
HETATM   18  H   UNK N   1      30.933  27.394  -3.482  0.00  0.00     0.150 HD
ENDBRANCH   5  16
BRANCH   7  19
HETATM   19  C   UNK N   1      26.628  24.132  -4.652  0.00  0.00     0.279 C 
BRANCH  19  20
HETATM   20  C   UNK N   1      26.529  23.959  -6.171  0.00  0.00     0.014 C 
BRANCH  20  21
HETATM   21  C   UNK N   1      25.654  22.771  -6.552  0.00  0.00     0.002 C 
HETATM   22  C   UNK N   1      26.306  21.972  -7.664  0.00  0.00     0.005 C 
ENDBRANCH  20  21
BRANCH  20  23
HETATM   23  C   UNK N   1      25.930  25.246  -6.727  0.00  0.00     0.006 C 
BRANCH  23  24
HETATM   24  C   UNK N   1      25.150  26.019  -5.674  0.00  0.00     0.000 C 
BRANCH  24  25
HETATM   25  C   UNK N   1      25.573  27.477  -5.668  0.00  0.00    -0.005 C 
HETATM   26  C   UNK N   1      25.561  28.016  -4.252  0.00  0.00     0.005 C 
ENDBRANCH  24  25
ENDBRANCH  23  24
ENDBRANCH  20  23
ENDBRANCH  19  20
ENDBRANCH   7  19
TORSDOF 13
ENDMDL
MODEL 4
REMARK VINA RESULT:      -5.1      1.988      6.986
REMARK  13 active torsions:
REMARK  status: ('A' for Active; 'I' for Inactive)
REMARK    1  A    between atoms: C_10  and  C_6 
REMARK    2  A    between atoms: C_11  and  C_7 
REMARK    3  A    between atoms: C_19  and  C_8 
REMARK    4  A    between atoms: C_20  and  C_9 
REMARK    5  A    between atoms: C_12  and  C_10 
REMARK    6  A    between atoms: C_13  and  C_11 
REMARK    7  A    between atoms: C_19  and  C_12 
REMARK    8  A    between atoms: C_20  and  C_13 
REMARK    9  A    between atoms: C_19  and  C_14 
REMARK   10  A    between atoms: N_23  and  C_14 
REMARK   11  A    between atoms: C_20  and  C_15 
REMARK   12  A    between atoms: N_24  and  C_15 
REMARK   13  A    between atoms: N_22  and  C_21 
ROOT
HETATM    1  C   UNK N   1      28.704  16.807   9.601  0.00  0.00     0.041 C 
HETATM    2  C   UNK N   1      28.413  18.874   8.209  0.00  0.00     0.306 C 
HETATM    3  C   UNK N   1      30.593  17.706   8.209  0.00  0.00     0.306 C 
HETATM    4  C   UNK N   1      28.829  17.015   6.648  0.00  0.00     0.542 C 
HETATM    5  C   UNK N   1      29.378  18.063   9.068  0.00  0.00     0.073 C 
HETATM    6  N   UNK N   1      28.044  18.231   6.936  0.00  0.00     0.119 N 
HETATM    7  N   UNK N   1      30.269  17.240   6.851  0.00  0.00     0.119 N 
ENDROOT
BRANCH   6   8
HETATM    8  C   UNK N   1      28.274  19.186   5.855  0.00  0.00     0.279 C 
BRANCH   8   9
HETATM    9  C   UNK N   1      26.985  19.888   5.423  0.00  0.00     0.014 C 
BRANCH   9  10
HETATM   10  C   UNK N   1      27.014  21.371   5.784  0.00  0.00     0.002 C 
HETATM   11  C   UNK N   1      26.232  21.634   7.055  0.00  0.00     0.005 C 
ENDBRANCH   9  10
BRANCH   9  12
HETATM   12  C   UNK N   1      26.845  19.738   3.916  0.00  0.00     0.006 C 
BRANCH  12  13
HETATM   13  C   UNK N   1      25.711  18.783   3.578  0.00  0.00     0.000 C 
BRANCH  13  14
HETATM   14  C   UNK N   1      26.233  17.362   3.569  0.00  0.00    -0.005 C 
HETATM   15  C   UNK N   1      25.078  16.406   3.364  0.00  0.00     0.005 C 
ENDBRANCH  13  14
ENDBRANCH  12  13
ENDBRANCH   9  12
ENDBRANCH   8   9
ENDBRANCH   6   8
BRANCH   5  16
HETATM   16  N   UNK N   1      29.810  18.867  10.194  0.00  0.00    -0.419 N 
HETATM   17  H   UNK N   1      29.648  19.824  10.508  0.00  0.00     0.150 HD
HETATM   18  H   UNK N   1      30.425  18.352  10.824  0.00  0.00     0.150 HD
ENDBRANCH   5  16
BRANCH   7  19
HETATM   19  C   UNK N   1      30.997  15.984   6.680  0.00  0.00     0.279 C 
BRANCH  19  20
HETATM   20  C   UNK N   1      32.197  16.077   5.734  0.00  0.00     0.014 C 
BRANCH  20  21
HETATM   21  C   UNK N   1      32.126  17.312   4.845  0.00  0.00     0.002 C 
HETATM   22  C   UNK N   1      32.276  16.921   3.387  0.00  0.00     0.005 C 
ENDBRANCH  20  21
BRANCH  20  23
HETATM   23  C   UNK N   1      33.447  16.133   6.605  0.00  0.00     0.006 C 
BRANCH  23  24
HETATM   24  C   UNK N   1      34.120  17.497   6.557  0.00  0.00     0.000 C 
BRANCH  24  25
HETATM   25  C   UNK N   1      34.096  18.146   7.929  0.00  0.00    -0.005 C 
HETATM   26  C   UNK N   1      34.437  17.123   8.994  0.00  0.00     0.005 C 
ENDBRANCH  24  25
ENDBRANCH  23  24
ENDBRANCH  20  23
ENDBRANCH  19  20
ENDBRANCH   7  19
TORSDOF 13
ENDMDL
MODEL 5
REMARK VINA RESULT:      -5.1      1.777      5.973
REMARK  13 active torsions:
REMARK  status: ('A' for Active; 'I' for Inactive)
REMARK    1  A    between atoms: C_10  and  C_6 
REMARK    2  A    between atoms: C_11  and  C_7 
REMARK    3  A    between atoms: C_19  and  C_8 
REMARK    4  A    between atoms: C_20  and  C_9 
REMARK    5  A    between atoms: C_12  and  C_10 
REMARK    6  A    between atoms: C_13  and  C_11 
REMARK    7  A    between atoms: C_19  and  C_12 
REMARK    8  A    between atoms: C_20  and  C_13 
REMARK    9  A    between atoms: C_19  and  C_14 
REMARK   10  A    between atoms: N_23  and  C_14 
REMARK   11  A    between atoms: C_20  and  C_15 
REMARK   12  A    between atoms: N_24  and  C_15 
REMARK   13  A    between atoms: N_22  and  C_21 
ROOT
HETATM    1  C   UNK N   1      26.699  13.980   3.065  0.00  0.00     0.041 C 
HETATM    2  C   UNK N   1      24.990  15.785   3.417  0.00  0.00     0.306 C 
HETATM    3  C   UNK N   1      26.438  15.099   5.301  0.00  0.00     0.306 C 
HETATM    4  C   UNK N   1      27.201  16.824   3.730  0.00  0.00     0.542 C 
HETATM    5  C   UNK N   1      25.715  14.600   4.048  0.00  0.00     0.073 C 
HETATM    6  N   UNK N   1      25.849  16.953   3.155  0.00  0.00     0.119 N 
HETATM    7  N   UNK N   1      27.152  16.374   5.130  0.00  0.00     0.119 N 
ENDROOT
BRANCH   6   8
HETATM    8  C   UNK N   1      25.214  18.129   3.743  0.00  0.00     0.279 C 
BRANCH   8   9
HETATM    9  C   UNK N   1      26.109  19.367   3.665  0.00  0.00     0.014 C 
BRANCH   9  10
HETATM   10  C   UNK N   1      25.501  20.434   2.757  0.00  0.00     0.002 C 
HETATM   11  C   UNK N   1      24.006  20.545   2.979  0.00  0.00     0.005 C 
ENDBRANCH   9  10
BRANCH   9  12
HETATM   12  C   UNK N   1      26.266  19.930   5.069  0.00  0.00     0.006 C 
BRANCH  12  13
HETATM   13  C   UNK N   1      27.643  20.548   5.246  0.00  0.00     0.000 C 
BRANCH  13  14
HETATM   14  C   UNK N   1      27.572  21.653   6.279  0.00  0.00    -0.005 C 
HETATM   15  C   UNK N   1      26.285  21.521   7.065  0.00  0.00     0.005 C 
ENDBRANCH  13  14
ENDBRANCH  12  13
ENDBRANCH   9  12
ENDBRANCH   8   9
ENDBRANCH   6   8
BRANCH   5  16
HETATM   16  N   UNK N   1      24.746  13.591   4.428  0.00  0.00    -0.419 N 
HETATM   17  H   UNK N   1      23.903  13.573   5.002  0.00  0.00     0.150 HD
HETATM   18  H   UNK N   1      24.957  12.679   4.022  0.00  0.00     0.150 HD
ENDBRANCH   5  16
BRANCH   7  19
HETATM   19  C   UNK N   1      28.508  16.137   5.624  0.00  0.00     0.279 C 
BRANCH  19  20
HETATM   20  C   UNK N   1      29.071  17.271   6.484  0.00  0.00     0.014 C 
BRANCH  20  21
HETATM   21  C   UNK N   1      28.545  17.217   7.913  0.00  0.00     0.002 C 
HETATM   22  C   UNK N   1      28.203  18.611   8.403  0.00  0.00     0.005 C 
ENDBRANCH  20  21
BRANCH  20  23
HETATM   23  C   UNK N   1      30.588  17.120   6.482  0.00  0.00     0.006 C 
BRANCH  23  24
HETATM   24  C   UNK N   1      31.133  16.772   7.860  0.00  0.00     0.000 C 
BRANCH  24  25
HETATM   25  C   UNK N   1      32.107  17.838   8.327  0.00  0.00    -0.005 C 
HETATM   26  C   UNK N   1      33.323  17.864   7.423  0.00  0.00     0.005 C 
ENDBRANCH  24  25
ENDBRANCH  23  24
ENDBRANCH  20  23
ENDBRANCH  19  20
ENDBRANCH   7  19
TORSDOF 13
ENDMDL
MODEL 6
REMARK VINA RESULT:      -5.0      7.042     11.473
REMARK  13 active torsions:
REMARK  status: ('A' for Active; 'I' for Inactive)
REMARK    1  A    between atoms: C_10  and  C_6 
REMARK    2  A    between atoms: C_11  and  C_7 
REMARK    3  A    between atoms: C_19  and  C_8 
REMARK    4  A    between atoms: C_20  and  C_9 
REMARK    5  A    between atoms: C_12  and  C_10 
REMARK    6  A    between atoms: C_13  and  C_11 
REMARK    7  A    between atoms: C_19  and  C_12 
REMARK    8  A    between atoms: C_20  and  C_13 
REMARK    9  A    between atoms: C_19  and  C_14 
REMARK   10  A    between atoms: N_23  and  C_14 
REMARK   11  A    between atoms: C_20  and  C_15 
REMARK   12  A    between atoms: N_24  and  C_15 
REMARK   13  A    between atoms: N_22  and  C_21 
ROOT
HETATM    1  C   UNK N   1      38.301  13.110  10.515  0.00  0.00     0.041 C 
HETATM    2  C   UNK N   1      36.409  14.553   9.715  0.00  0.00     0.306 C 
HETATM    3  C   UNK N   1      35.911  12.375  10.776  0.00  0.00     0.306 C 
HETATM    4  C   UNK N   1      36.192  14.382  12.162  0.00  0.00     0.542 C 
HETATM    5  C   UNK N   1      36.911  13.123   9.892  0.00  0.00     0.073 C 
HETATM    6  N   UNK N   1      36.123  15.258  10.977  0.00  0.00     0.119 N 
HETATM    7  N   UNK N   1      35.448  13.129  11.953  0.00  0.00     0.119 N 
ENDROOT
BRANCH   6   8
HETATM    8  C   UNK N   1      34.773  15.811  10.897  0.00  0.00     0.279 C 
BRANCH   8   9
HETATM    9  C   UNK N   1      34.222  15.781   9.471  0.00  0.00     0.014 C 
BRANCH   9  10
HETATM   10  C   UNK N   1      32.964  14.920   9.382  0.00  0.00     0.002 C 
HETATM   11  C   UNK N   1      33.054  13.950   8.220  0.00  0.00     0.005 C 
ENDBRANCH   9  10
BRANCH   9  12
HETATM   12  C   UNK N   1      33.887  17.207   9.061  0.00  0.00     0.006 C 
BRANCH  12  13
HETATM   13  C   UNK N   1      34.494  17.529   7.705  0.00  0.00     0.000 C 
BRANCH  13  14
HETATM   14  C   UNK N   1      33.396  17.609   6.666  0.00  0.00    -0.005 C 
HETATM   15  C   UNK N   1      33.746  16.712   5.498  0.00  0.00     0.005 C 
ENDBRANCH  13  14
ENDBRANCH  12  13
ENDBRANCH   9  12
ENDBRANCH   8   9
ENDBRANCH   6   8
BRANCH   5  16
HETATM   16  N   UNK N   1      36.981  12.475   8.597  0.00  0.00    -0.419 N 
HETATM   17  H   UNK N   1      36.320  11.986   7.994  0.00  0.00     0.150 HD
HETATM   18  H   UNK N   1      37.916  12.520   8.192  0.00  0.00     0.150 HD
ENDBRANCH   5  16
BRANCH   7  19
HETATM   19  C   UNK N   1      35.645  12.238  13.095  0.00  0.00     0.279 C 
BRANCH  19  20
HETATM   20  C   UNK N   1      34.641  12.444  14.233  0.00  0.00     0.014 C 
BRANCH  20  21
HETATM   21  C   UNK N   1      33.890  11.161  14.568  0.00  0.00     0.002 C 
HETATM   22  C   UNK N   1      34.613   9.961  13.987  0.00  0.00     0.005 C 
ENDBRANCH  20  21
BRANCH  20  23
HETATM   23  C   UNK N   1      35.435  12.914  15.446  0.00  0.00     0.006 C 
BRANCH  23  24
HETATM   24  C   UNK N   1      34.545  13.163  16.655  0.00  0.00     0.000 C 
BRANCH  24  25
HETATM   25  C   UNK N   1      35.268  12.772  17.932  0.00  0.00    -0.005 C 
HETATM   26  C   UNK N   1      35.284  11.265  18.080  0.00  0.00     0.005 C 
ENDBRANCH  24  25
ENDBRANCH  23  24
ENDBRANCH  20  23
ENDBRANCH  19  20
ENDBRANCH   7  19
TORSDOF 13
ENDMDL
MODEL 7
REMARK VINA RESULT:      -5.0      7.164     10.058
REMARK  13 active torsions:
REMARK  status: ('A' for Active; 'I' for Inactive)
REMARK    1  A    between atoms: C_10  and  C_6 
REMARK    2  A    between atoms: C_11  and  C_7 
REMARK    3  A    between atoms: C_19  and  C_8 
REMARK    4  A    between atoms: C_20  and  C_9 
REMARK    5  A    between atoms: C_12  and  C_10 
REMARK    6  A    between atoms: C_13  and  C_11 
REMARK    7  A    between atoms: C_19  and  C_12 
REMARK    8  A    between atoms: C_20  and  C_13 
REMARK    9  A    between atoms: C_19  and  C_14 
REMARK   10  A    between atoms: N_23  and  C_14 
REMARK   11  A    between atoms: C_20  and  C_15 
REMARK   12  A    between atoms: N_24  and  C_15 
REMARK   13  A    between atoms: N_22  and  C_21 
ROOT
HETATM    1  C   UNK N   1      36.665  12.765   9.466  0.00  0.00     0.041 C 
HETATM    2  C   UNK N   1      37.172  13.313  11.862  0.00  0.00     0.306 C 
HETATM    3  C   UNK N   1      36.226  15.062  10.391  0.00  0.00     0.306 C 
HETATM    4  C   UNK N   1      34.734  13.519  11.582  0.00  0.00     0.542 C 
HETATM    5  C   UNK N   1      37.147  13.840  10.430  0.00  0.00     0.073 C 
HETATM    6  N   UNK N   1      35.841  13.045  12.434  0.00  0.00     0.119 N 
HETATM    7  N   UNK N   1      34.959  14.899  11.122  0.00  0.00     0.119 N 
ENDROOT
BRANCH   6   8
HETATM    8  C   UNK N   1      35.749  13.727  13.722  0.00  0.00     0.279 C 
BRANCH   8   9
HETATM    9  C   UNK N   1      35.064  12.865  14.784  0.00  0.00     0.014 C 
BRANCH   9  10
HETATM   10  C   UNK N   1      35.062  11.391  14.384  0.00  0.00     0.002 C 
HETATM   11  C   UNK N   1      33.677  10.792  14.529  0.00  0.00     0.005 C 
ENDBRANCH   9  10
BRANCH   9  12
HETATM   12  C   UNK N   1      35.819  13.032  16.093  0.00  0.00     0.006 C 
BRANCH  12  13
HETATM   13  C   UNK N   1      34.854  13.295  17.236  0.00  0.00     0.000 C 
BRANCH  13  14
HETATM   14  C   UNK N   1      35.306  12.535  18.465  0.00  0.00    -0.005 C 
HETATM   15  C   UNK N   1      35.279  11.050  18.173  0.00  0.00     0.005 C 
ENDBRANCH  13  14
ENDBRANCH  12  13
ENDBRANCH   9  12
ENDBRANCH   8   9
ENDBRANCH   6   8
BRANCH   5  16
HETATM   16  N   UNK N   1      38.486  14.240  10.043  0.00  0.00    -0.419 N 
HETATM   17  H   UNK N   1      39.424  14.094  10.416  0.00  0.00     0.150 HD
HETATM   18  H   UNK N   1      38.490  14.804   9.193  0.00  0.00     0.150 HD
ENDBRANCH   5  16
BRANCH   7  19
HETATM   19  C   UNK N   1      33.908  15.287  10.182  0.00  0.00     0.279 C 
BRANCH  19  20
HETATM   20  C   UNK N   1      34.361  15.340   8.720  0.00  0.00     0.014 C 
BRANCH  20  21
HETATM   21  C   UNK N   1      33.719  14.239   7.885  0.00  0.00     0.002 C 
HETATM   22  C   UNK N   1      34.562  13.949   6.658  0.00  0.00     0.005 C 
ENDBRANCH  20  21
BRANCH  20  23
HETATM   23  C   UNK N   1      33.956  16.707   8.180  0.00  0.00     0.006 C 
BRANCH  23  24
HETATM   24  C   UNK N   1      32.476  16.772   7.831  0.00  0.00     0.000 C 
BRANCH  24  25
HETATM   25  C   UNK N   1      32.289  17.288   6.416  0.00  0.00    -0.005 C 
HETATM   26  C   UNK N   1      33.635  17.436   5.735  0.00  0.00     0.005 C 
ENDBRANCH  24  25
ENDBRANCH  23  24
ENDBRANCH  20  23
ENDBRANCH  19  20
ENDBRANCH   7  19
TORSDOF 13
ENDMDL
MODEL 8
REMARK VINA RESULT:      -5.0     10.864     14.547
REMARK  13 active torsions:
REMARK  status: ('A' for Active; 'I' for Inactive)
REMARK    1  A    between atoms: C_10  and  C_6 
REMARK    2  A    between atoms: C_11  and  C_7 
REMARK    3  A    between atoms: C_19  and  C_8 
REMARK    4  A    between atoms: C_20  and  C_9 
REMARK    5  A    between atoms: C_12  and  C_10 
REMARK    6  A    between atoms: C_13  and  C_11 
REMARK    7  A    between atoms: C_19  and  C_12 
REMARK    8  A    between atoms: C_20  and  C_13 
REMARK    9  A    between atoms: C_19  and  C_14 
REMARK   10  A    between atoms: N_23  and  C_14 
REMARK   11  A    between atoms: C_20  and  C_15 
REMARK   12  A    between atoms: N_24  and  C_15 
REMARK   13  A    between atoms: N_22  and  C_21 
ROOT
HETATM    1  C   UNK N   1      26.944  22.729 -10.021  0.00  0.00     0.041 C 
HETATM    2  C   UNK N   1      25.453  22.938  -8.014  0.00  0.00     0.306 C 
HETATM    3  C   UNK N   1      27.253  21.242  -8.018  0.00  0.00     0.306 C 
HETATM    4  C   UNK N   1      27.727  23.535  -7.280  0.00  0.00     0.542 C 
HETATM    5  C   UNK N   1      26.241  21.977  -8.899  0.00  0.00     0.073 C 
HETATM    6  N   UNK N   1      26.288  23.853  -7.215  0.00  0.00     0.119 N 
HETATM    7  N   UNK N   1      27.974  22.100  -7.064  0.00  0.00     0.119 N 
ENDROOT
BRANCH   6   8
HETATM    8  C   UNK N   1      25.864  23.762  -5.821  0.00  0.00     0.279 C 
BRANCH   8   9
HETATM    9  C   UNK N   1      25.493  25.128  -5.241  0.00  0.00     0.014 C 
BRANCH   9  10
HETATM   10  C   UNK N   1      26.379  25.482  -4.049  0.00  0.00     0.002 C 
HETATM   11  C   UNK N   1      27.091  24.252  -3.520  0.00  0.00     0.005 C 
ENDBRANCH   9  10
BRANCH   9  12
HETATM   12  C   UNK N   1      25.673  26.173  -6.331  0.00  0.00     0.006 C 
BRANCH  12  13
HETATM   13  C   UNK N   1      25.986  27.530  -5.723  0.00  0.00     0.000 C 
BRANCH  13  14
HETATM   14  C   UNK N   1      27.177  28.138  -6.432  0.00  0.00    -0.005 C 
HETATM   15  C   UNK N   1      27.536  27.286  -7.631  0.00  0.00     0.005 C 
ENDBRANCH  13  14
ENDBRANCH  12  13
ENDBRANCH   9  12
ENDBRANCH   8   9
ENDBRANCH   6   8
BRANCH   5  16
HETATM   16  N   UNK N   1      25.333  21.014  -9.489  0.00  0.00    -0.419 N 
HETATM   17  H   UNK N   1      24.836  20.187  -9.157  0.00  0.00     0.150 HD
HETATM   18  H   UNK N   1      25.146  21.210 -10.472  0.00  0.00     0.150 HD
ENDBRANCH   5  16
BRANCH   7  19
HETATM   19  C   UNK N   1      29.392  21.804  -7.260  0.00  0.00     0.279 C 
BRANCH  19  20
HETATM   20  C   UNK N   1      29.969  20.799  -6.259  0.00  0.00     0.014 C 
BRANCH  20  21
HETATM   21  C   UNK N   1      30.865  19.771  -6.938  0.00  0.00     0.002 C 
HETATM   22  C   UNK N   1      30.069  18.960  -7.943  0.00  0.00     0.005 C 
ENDBRANCH  20  21
BRANCH  20  23
HETATM   23  C   UNK N   1      30.773  21.599  -5.240  0.00  0.00     0.006 C 
BRANCH  23  24
HETATM   24  C   UNK N   1      30.432  21.214  -3.808  0.00  0.00     0.000 C 
BRANCH  24  25
HETATM   25  C   UNK N   1      31.169  22.111  -2.831  0.00  0.00    -0.005 C 
HETATM   26  C   UNK N   1      30.733  23.550  -3.016  0.00  0.00     0.005 C 
ENDBRANCH  24  25
ENDBRANCH  23  24
ENDBRANCH  20  23
ENDBRANCH  19  20
ENDBRANCH   7  19
TORSDOF 13
ENDMDL
MODEL 9
REMARK VINA RESULT:      -5.0      1.850      6.469
REMARK  13 active torsions:
REMARK  status: ('A' for Active; 'I' for Inactive)
REMARK    1  A    between atoms: C_10  and  C_6 
REMARK    2  A    between atoms: C_11  and  C_7 
REMARK    3  A    between atoms: C_19  and  C_8 
REMARK    4  A    between atoms: C_20  and  C_9 
REMARK    5  A    between atoms: C_12  and  C_10 
REMARK    6  A    between atoms: C_13  and  C_11 
REMARK    7  A    between atoms: C_19  and  C_12 
REMARK    8  A    between atoms: C_20  and  C_13 
REMARK    9  A    between atoms: C_19  and  C_14 
REMARK   10  A    between atoms: N_23  and  C_14 
REMARK   11  A    between atoms: C_20  and  C_15 
REMARK   12  A    between atoms: N_24  and  C_15 
REMARK   13  A    between atoms: N_22  and  C_21 
ROOT
HETATM    1  C   UNK N   1      27.565  15.075   5.460  0.00  0.00     0.041 C 
HETATM    2  C   UNK N   1      27.029  17.527   5.428  0.00  0.00     0.306 C 
HETATM    3  C   UNK N   1      28.717  16.673   7.022  0.00  0.00     0.306 C 
HETATM    4  C   UNK N   1      29.385  17.301   4.745  0.00  0.00     0.542 C 
HETATM    5  C   UNK N   1      27.410  16.335   6.301  0.00  0.00     0.073 C 
HETATM    6  N   UNK N   1      28.092  17.971   4.509  0.00  0.00     0.119 N 
HETATM    7  N   UNK N   1      29.741  17.302   6.172  0.00  0.00     0.119 N 
ENDROOT
BRANCH   6   8
HETATM    8  C   UNK N   1      28.283  19.407   4.689  0.00  0.00     0.279 C 
BRANCH   8   9
HETATM    9  C   UNK N   1      26.954  20.161   4.767  0.00  0.00     0.014 C 
BRANCH   9  10
HETATM   10  C   UNK N   1      27.065  21.387   5.671  0.00  0.00     0.002 C 
HETATM   11  C   UNK N   1      26.382  21.140   7.002  0.00  0.00     0.005 C 
ENDBRANCH   9  10
BRANCH   9  12
HETATM   12  C   UNK N   1      26.576  20.604   3.362  0.00  0.00     0.006 C 
BRANCH  12  13
HETATM   13  C   UNK N   1      25.439  19.751   2.822  0.00  0.00     0.000 C 
BRANCH  13  14
HETATM   14  C   UNK N   1      24.234  19.883   3.729  0.00  0.00    -0.005 C 
HETATM   15  C   UNK N   1      23.056  20.393   2.925  0.00  0.00     0.005 C 
ENDBRANCH  13  14
ENDBRANCH  12  13
ENDBRANCH   9  12
ENDBRANCH   8   9
ENDBRANCH   6   8
BRANCH   5  16
HETATM   16  N   UNK N   1      26.369  16.107   7.284  0.00  0.00    -0.419 N 
HETATM   17  H   UNK N   1      26.239  16.334   8.269  0.00  0.00     0.150 HD
HETATM   18  H   UNK N   1      25.575  15.598   6.895  0.00  0.00     0.150 HD
ENDBRANCH   5  16
BRANCH   7  19
HETATM   19  C   UNK N   1      30.960  16.522   6.381  0.00  0.00     0.279 C 
BRANCH  19  20
HETATM   20  C   UNK N   1      32.255  17.314   6.176  0.00  0.00     0.014 C 
BRANCH  20  21
HETATM   21  C   UNK N   1      33.036  17.473   7.475  0.00  0.00     0.002 C 
HETATM   22  C   UNK N   1      32.174  18.140   8.529  0.00  0.00     0.005 C 
ENDBRANCH  20  21
BRANCH  20  23
HETATM   23  C   UNK N   1      33.090  16.545   5.158  0.00  0.00     0.006 C 
BRANCH  23  24
HETATM   24  C   UNK N   1      32.938  17.104   3.751  0.00  0.00     0.000 C 
BRANCH  24  25
HETATM   25  C   UNK N   1      33.365  16.071   2.724  0.00  0.00    -0.005 C 
HETATM   26  C   UNK N   1      33.791  14.793   3.418  0.00  0.00     0.005 C 
ENDBRANCH  24  25
ENDBRANCH  23  24
ENDBRANCH  20  23
ENDBRANCH  19  20
ENDBRANCH   7  19
TORSDOF 13
ENDMDL
