MODEL 1
REMARK VINA RESULT:      -7.1      0.000      0.000
REMARK  6 active torsions:
REMARK  status: ('A' for Active; 'I' for Inactive)
REMARK    1  A    between atoms: C_22  and  C_16 
REMARK    2  A    between atoms: C_23  and  C_17 
REMARK    3  A    between atoms: C_24  and  C_18 
REMARK    4  A    between atoms: C_25  and  C_19 
REMARK    5  A    between atoms: C_26  and  C_20 
REMARK    6  A    between atoms: C_27  and  C_21 
ROOT
HETATM    1  C   UNK N   1      30.897  12.219   3.521  0.00  0.00     0.153 C 
HETATM    2  C   UNK N   1      23.309  12.865   3.656  0.00  0.00     0.153 C 
HETATM    3  C   UNK N   1      24.837  19.152   4.129  0.00  0.00     0.153 C 
HETATM    4  C   UNK N   1      28.548  12.696   2.714  0.00  0.00     0.190 C 
HETATM    5  C   UNK N   1      26.402  17.241   4.714  0.00  0.00     0.190 C 
HETATM    6  C   UNK N   1      22.614  14.936   2.382  0.00  0.00     0.190 C 
HETATM    7  C   UNK N   1      28.910  15.468   4.349  0.00  0.00     0.227 C 
HETATM    8  C   UNK N   1      25.554  12.419   1.832  0.00  0.00     0.227 C 
HETATM    9  C   UNK N   1      22.513  17.347   4.261  0.00  0.00     0.227 C 
HETATM   10  C   UNK N   1      29.886  14.274   4.247  0.00  0.00     0.250 C 
HETATM   11  C   UNK N   1      24.580  13.582   1.699  0.00  0.00     0.250 C 
HETATM   12  C   UNK N   1      23.951  16.937   4.646  0.00  0.00     0.250 C 
HETATM   13  C   UNK N   1      27.299  12.587   3.603  0.00  0.00     0.283 C 
HETATM   14  C   UNK N   1      26.731  16.272   3.546  0.00  0.00     0.283 C 
HETATM   15  C   UNK N   1      21.669  15.126   3.579  0.00  0.00     0.283 C 
HETATM   16  N   UNK N   1      29.742  13.109   3.504  0.00  0.00    -0.340 N 
HETATM   17  N   UNK N   1      23.503  13.764   2.537  0.00  0.00    -0.340 N 
HETATM   18  N   UNK N   1      25.032  17.780   4.532  0.00  0.00    -0.340 N 
HETATM   19  O   UNK N   1      30.906  14.390   4.918  0.00  0.00    -0.270 OA
HETATM   20  O   UNK N   1      24.823  14.410   0.835  0.00  0.00    -0.270 OA
HETATM   21  O   UNK N   1      24.136  15.785   5.018  0.00  0.00    -0.270 OA
HETATM   22  O   UNK N   1      27.437  12.698   4.812  0.00  0.00    -0.263 OA
HETATM   23  O   UNK N   1      25.956  16.228   2.606  0.00  0.00    -0.263 OA
HETATM   24  O   UNK N   1      20.857  14.251   3.838  0.00  0.00    -0.263 OA
HETATM   25  O   UNK N   1      26.037  12.359   3.131  0.00  0.00    -0.304 OA
HETATM   26  O   UNK N   1      27.809  15.417   3.519  0.00  0.00    -0.304 OA
HETATM   27  O   UNK N   1      21.667  16.250   4.353  0.00  0.00    -0.304 OA
ENDROOT
BRANCH   4  28
HETATM   28  C   UNK N   1      28.827  11.298   2.039  0.00  0.00     0.010 C 
HETATM   29  C   UNK N   1      28.562  11.120   0.561  0.00  0.00     0.012 C 
HETATM   30  C   UNK N   1      28.215  10.121   2.797  0.00  0.00     0.012 C 
ENDBRANCH   4  28
BRANCH   8  31
HETATM   31  C   UNK N   1      24.976  11.049   1.386  0.00  0.00     0.016 C 
HETATM   32  C   UNK N   1      24.452  10.144   2.486  0.00  0.00     0.012 C 
HETATM   33  C   UNK N   1      23.927  11.190   0.293  0.00  0.00     0.012 C 
ENDBRANCH   8  31
BRANCH   7  34
HETATM   34  C   UNK N   1      29.679  16.779   4.050  0.00  0.00     0.016 C 
HETATM   35  C   UNK N   1      30.349  16.797   2.687  0.00  0.00     0.012 C 
HETATM   36  C   UNK N   1      30.649  17.204   5.144  0.00  0.00     0.012 C 
ENDBRANCH   7  34
BRANCH   6  37
HETATM   37  C   UNK N   1      21.735  14.869   1.105  0.00  0.00     0.010 C 
HETATM   38  C   UNK N   1      21.095  13.524   0.813  0.00  0.00     0.012 C 
HETATM   39  C   UNK N   1      20.686  15.965   1.034  0.00  0.00     0.012 C 
ENDBRANCH   6  37
BRANCH   5  40
HETATM   40  C   UNK N   1      27.473  18.349   4.901  0.00  0.00     0.010 C 
HETATM   41  C   UNK N   1      27.511  18.896   6.321  0.00  0.00     0.012 C 
HETATM   42  C   UNK N   1      27.409  19.488   3.891  0.00  0.00     0.012 C 
ENDBRANCH   5  40
BRANCH   9  43
HETATM   43  C   UNK N   1      21.856  18.456   5.109  0.00  0.00     0.016 C 
HETATM   44  C   UNK N   1      21.183  18.028   6.401  0.00  0.00     0.012 C 
HETATM   45  C   UNK N   1      21.013  19.438   4.320  0.00  0.00     0.012 C 
ENDBRANCH   9  43
TORSDOF 6
ENDMDL
MODEL 2
REMARK VINA RESULT:      -7.1      5.848     11.577
REMARK  6 active torsions:
REMARK  status: ('A' for Active; 'I' for Inactive)
REMARK    1  A    between atoms: C_22  and  C_16 
REMARK    2  A    between atoms: C_23  and  C_17 
REMARK    3  A    between atoms: C_24  and  C_18 
REMARK    4  A    between atoms: C_25  and  C_19 
REMARK    5  A    between atoms: C_26  and  C_20 
REMARK    6  A    between atoms: C_27  and  C_21 
ROOT
HETATM    1  C   UNK N   1      29.913  15.211   2.545  0.00  0.00     0.153 C 
HETATM    2  C   UNK N   1      32.881  15.096   9.558  0.00  0.00     0.153 C 
HETATM    3  C   UNK N   1      35.048   9.344   7.482  0.00  0.00     0.153 C 
HETATM    4  C   UNK N   1      31.641  15.365   4.387  0.00  0.00     0.190 C 
HETATM    5  C   UNK N   1      33.075  10.588   6.480  0.00  0.00     0.190 C 
HETATM    6  C   UNK N   1      35.161  14.003   9.494  0.00  0.00     0.190 C 
HETATM    7  C   UNK N   1      31.580  12.130   4.254  0.00  0.00     0.227 C 
HETATM    8  C   UNK N   1      33.289  16.250   6.900  0.00  0.00     0.227 C 
HETATM    9  C   UNK N   1      34.899  10.986   9.923  0.00  0.00     0.227 C 
HETATM   10  C   UNK N   1      30.719  13.143   3.467  0.00  0.00     0.250 C 
HETATM   11  C   UNK N   1      34.321  15.382   7.608  0.00  0.00     0.250 C 
HETATM   12  C   UNK N   1      33.870  11.049   8.773  0.00  0.00     0.250 C 
HETATM   13  C   UNK N   1      31.336  15.094   5.868  0.00  0.00     0.283 C 
HETATM   14  C   UNK N   1      33.402  11.989   5.897  0.00  0.00     0.283 C 
HETATM   15  C   UNK N   1      34.652  13.299  10.761  0.00  0.00     0.283 C 
HETATM   16  N   UNK N   1      30.784  14.531   3.496  0.00  0.00    -0.340 N 
HETATM   17  N   UNK N   1      34.138  14.874   8.874  0.00  0.00    -0.340 N 
HETATM   18  N   UNK N   1      33.982  10.308   7.619  0.00  0.00    -0.340 N 
HETATM   19  O   UNK N   1      29.874  12.637   2.736  0.00  0.00    -0.270 OA
HETATM   20  O   UNK N   1      35.324  15.089   6.975  0.00  0.00    -0.270 OA
HETATM   21  O   UNK N   1      32.942  11.839   8.881  0.00  0.00    -0.270 OA
HETATM   22  O   UNK N   1      30.385  14.379   6.144  0.00  0.00    -0.263 OA
HETATM   23  O   UNK N   1      34.406  12.554   6.297  0.00  0.00    -0.263 OA
HETATM   24  O   UNK N   1      34.311  13.976  11.719  0.00  0.00    -0.263 OA
HETATM   25  O   UNK N   1      32.056  15.613   6.908  0.00  0.00    -0.304 OA
HETATM   26  O   UNK N   1      32.611  12.667   4.997  0.00  0.00    -0.304 OA
HETATM   27  O   UNK N   1      34.594  11.941  10.884  0.00  0.00    -0.304 OA
ENDROOT
BRANCH   4  28
HETATM   28  C   UNK N   1      31.384  16.891   4.076  0.00  0.00     0.010 C 
HETATM   29  C   UNK N   1      32.563  17.822   3.906  0.00  0.00     0.012 C 
HETATM   30  C   UNK N   1      30.369  17.542   5.013  0.00  0.00     0.012 C 
ENDBRANCH   4  28
BRANCH   8  31
HETATM   31  C   UNK N   1      33.177  17.693   7.461  0.00  0.00     0.016 C 
HETATM   32  C   UNK N   1      32.003  17.973   8.382  0.00  0.00     0.012 C 
HETATM   33  C   UNK N   1      34.467  18.162   8.117  0.00  0.00     0.012 C 
ENDBRANCH   8  31
BRANCH   7  34
HETATM   34  C   UNK N   1      32.182  11.100   3.265  0.00  0.00     0.016 C 
HETATM   35  C   UNK N   1      33.046  11.726   2.184  0.00  0.00     0.012 C 
HETATM   36  C   UNK N   1      31.170  10.134   2.667  0.00  0.00     0.012 C 
ENDBRANCH   7  34
BRANCH   6  37
HETATM   37  C   UNK N   1      36.457  14.765   9.878  0.00  0.00     0.010 C 
HETATM   38  C   UNK N   1      36.272  15.980  10.767  0.00  0.00     0.012 C 
HETATM   39  C   UNK N   1      37.539  13.866  10.452  0.00  0.00     0.012 C 
ENDBRANCH   6  37
BRANCH   5  40
HETATM   40  C   UNK N   1      33.084   9.468   5.405  0.00  0.00     0.010 C 
HETATM   41  C   UNK N   1      32.380   8.201   5.870  0.00  0.00     0.012 C 
HETATM   42  C   UNK N   1      34.454   9.137   4.825  0.00  0.00     0.012 C 
ENDBRANCH   5  40
BRANCH   9  43
HETATM   43  C   UNK N   1      35.012   9.648  10.683  0.00  0.00     0.016 C 
HETATM   44  C   UNK N   1      33.715   8.940  11.030  0.00  0.00     0.012 C 
HETATM   45  C   UNK N   1      35.988   9.662  11.843  0.00  0.00     0.012 C 
ENDBRANCH   9  43
TORSDOF 6
ENDMDL
MODEL 3
REMARK VINA RESULT:      -6.7      1.652      6.389
REMARK  6 active torsions:
REMARK  status: ('A' for Active; 'I' for Inactive)
REMARK    1  A    between atoms: C_22  and  C_16 
REMARK    2  A    between atoms: C_23  and  C_17 
REMARK    3  A    between atoms: C_24  and  C_18 
REMARK    4  A    between atoms: C_25  and  C_19 
REMARK    5  A    between atoms: C_26  and  C_20 
REMARK    6  A    between atoms: C_27  and  C_21 
ROOT
HETATM    1  C   UNK N   1      22.018  10.222   1.023  0.00  0.00     0.153 C 
HETATM    2  C   UNK N   1      28.170  14.582   2.089  0.00  0.00     0.153 C 
HETATM    3  C   UNK N   1      23.843  18.188   5.309  0.00  0.00     0.153 C 
HETATM    4  C   UNK N   1      23.994  11.279   2.195  0.00  0.00     0.190 C 
HETATM    5  C   UNK N   1      23.253  16.465   3.540  0.00  0.00     0.190 C 
HETATM    6  C   UNK N   1      28.107  15.582   4.411  0.00  0.00     0.190 C 
HETATM    7  C   UNK N   1      22.016  13.824   2.511  0.00  0.00     0.227 C 
HETATM    8  C   UNK N   1      26.889  12.129   3.041  0.00  0.00     0.227 C 
HETATM    9  C   UNK N   1      26.634  18.262   4.367  0.00  0.00     0.227 C 
HETATM   10  C   UNK N   1      21.758  12.487   1.779  0.00  0.00     0.250 C 
HETATM   11  C   UNK N   1      27.215  13.313   3.942  0.00  0.00     0.250 C 
HETATM   12  C   UNK N   1      25.504  17.476   3.667  0.00  0.00     0.250 C 
HETATM   13  C   UNK N   1      24.902  12.340   1.551  0.00  0.00     0.283 C 
HETATM   14  C   UNK N   1      23.696  15.012   3.856  0.00  0.00     0.283 C 
HETATM   15  C   UNK N   1      28.544  16.856   3.671  0.00  0.00     0.283 C 
HETATM   16  N   UNK N   1      22.596  11.383   1.688  0.00  0.00    -0.340 N 
HETATM   17  N   UNK N   1      27.852  14.448   3.496  0.00  0.00    -0.340 N 
HETATM   18  N   UNK N   1      24.217  17.414   4.149  0.00  0.00    -0.340 N 
HETATM   19  O   UNK N   1      20.675  12.419   1.208  0.00  0.00    -0.270 OA
HETATM   20  O   UNK N   1      26.827  13.249   5.099  0.00  0.00    -0.270 OA
HETATM   21  O   UNK N   1      25.791  16.835   2.664  0.00  0.00    -0.270 OA
HETATM   22  O   UNK N   1      24.448  13.017   0.642  0.00  0.00    -0.263 OA
HETATM   23  O   UNK N   1      24.600  14.852   4.658  0.00  0.00    -0.263 OA
HETATM   24  O   UNK N   1      29.582  16.840   3.027  0.00  0.00    -0.263 OA
HETATM   25  O   UNK N   1      26.197  12.569   1.921  0.00  0.00    -0.304 OA
HETATM   26  O   UNK N   1      23.177  13.888   3.255  0.00  0.00    -0.304 OA
HETATM   27  O   UNK N   1      27.842  18.025   3.727  0.00  0.00    -0.304 OA
ENDROOT
BRANCH   4  28
HETATM   28  C   UNK N   1      24.562   9.844   1.867  0.00  0.00     0.010 C 
HETATM   29  C   UNK N   1      25.243   9.049   2.957  0.00  0.00     0.012 C 
HETATM   30  C   UNK N   1      25.427   9.802   0.609  0.00  0.00     0.012 C 
ENDBRANCH   4  28
BRANCH   8  31
HETATM   31  C   UNK N   1      28.122  11.277   2.637  0.00  0.00     0.016 C 
HETATM   32  C   UNK N   1      28.670  11.497   1.239  0.00  0.00     0.012 C 
HETATM   33  C   UNK N   1      29.251  11.372   3.653  0.00  0.00     0.012 C 
ENDBRANCH   8  31
BRANCH   7  34
HETATM   34  C   UNK N   1      20.823  14.125   3.452  0.00  0.00     0.016 C 
HETATM   35  C   UNK N   1      20.589  13.054   4.504  0.00  0.00     0.012 C 
HETATM   36  C   UNK N   1      19.528  14.479   2.734  0.00  0.00     0.012 C 
ENDBRANCH   7  34
BRANCH   6  37
HETATM   37  C   UNK N   1      29.190  15.272   5.478  0.00  0.00     0.010 C 
HETATM   38  C   UNK N   1      30.450  14.599   4.966  0.00  0.00     0.012 C 
HETATM   39  C   UNK N   1      29.559  16.473   6.332  0.00  0.00     0.012 C 
ENDBRANCH   6  37
BRANCH   5  40
HETATM   40  C   UNK N   1      21.781  16.751   3.942  0.00  0.00     0.010 C 
HETATM   41  C   UNK N   1      21.213  17.987   3.258  0.00  0.00     0.012 C 
HETATM   42  C   UNK N   1      21.517  16.802   5.442  0.00  0.00     0.012 C 
ENDBRANCH   5  40
BRANCH   9  43
HETATM   43  C   UNK N   1      26.482  19.796   4.422  0.00  0.00     0.016 C 
HETATM   44  C   UNK N   1      26.231  20.513   3.108  0.00  0.00     0.012 C 
HETATM   45  C   UNK N   1      27.520  20.502   5.272  0.00  0.00     0.012 C 
ENDBRANCH   9  43
TORSDOF 6
ENDMDL
MODEL 4
REMARK VINA RESULT:      -6.4      2.822      7.050
REMARK  6 active torsions:
REMARK  status: ('A' for Active; 'I' for Inactive)
REMARK    1  A    between atoms: C_22  and  C_16 
REMARK    2  A    between atoms: C_23  and  C_17 
REMARK    3  A    between atoms: C_24  and  C_18 
REMARK    4  A    between atoms: C_25  and  C_19 
REMARK    5  A    between atoms: C_26  and  C_20 
REMARK    6  A    between atoms: C_27  and  C_21 
ROOT
HETATM    1  C   UNK N   1      28.575   9.121   0.457  0.00  0.00     0.153 C 
HETATM    2  C   UNK N   1      31.734  15.562   3.013  0.00  0.00     0.153 C 
HETATM    3  C   UNK N   1      25.801  16.315   5.526  0.00  0.00     0.153 C 
HETATM    4  C   UNK N   1      29.628  10.763   2.066  0.00  0.00     0.190 C 
HETATM    5  C   UNK N   1      26.355  14.799   3.567  0.00  0.00     0.190 C 
HETATM    6  C   UNK N   1      30.868  16.066   5.335  0.00  0.00     0.190 C 
HETATM    7  C   UNK N   1      26.667  12.071   2.143  0.00  0.00     0.227 C 
HETATM    8  C   UNK N   1      31.627  12.683   3.528  0.00  0.00     0.227 C 
HETATM    9  C   UNK N   1      28.336  17.774   5.170  0.00  0.00     0.227 C 
HETATM   10  C   UNK N   1      27.176  10.888   1.289  0.00  0.00     0.250 C 
HETATM   11  C   UNK N   1      31.223  13.737   4.551  0.00  0.00     0.250 C 
HETATM   12  C   UNK N   1      27.823  16.679   4.208  0.00  0.00     0.250 C 
HETATM   13  C   UNK N   1      30.017  12.201   1.687  0.00  0.00     0.283 C 
HETATM   14  C   UNK N   1      27.375  13.669   3.871  0.00  0.00     0.283 C 
HETATM   15  C   UNK N   1      30.761  17.495   4.781  0.00  0.00     0.283 C 
HETATM   16  N   UNK N   1      28.437  10.304   1.297  0.00  0.00    -0.340 N 
HETATM   17  N   UNK N   1      31.312  15.090   4.316  0.00  0.00    -0.340 N 
HETATM   18  N   UNK N   1      26.660  15.976   4.417  0.00  0.00    -0.340 N 
HETATM   19  O   UNK N   1      26.349  10.428   0.510  0.00  0.00    -0.270 OA
HETATM   20  O   UNK N   1      30.745  13.333   5.600  0.00  0.00    -0.270 OA
HETATM   21  O   UNK N   1      28.522  16.394   3.244  0.00  0.00    -0.270 OA
HETATM   22  O   UNK N   1      29.439  12.731   0.751  0.00  0.00    -0.263 OA
HETATM   23  O   UNK N   1      28.119  13.813   4.826  0.00  0.00    -0.263 OA
HETATM   24  O   UNK N   1      31.768  18.043   4.358  0.00  0.00    -0.263 OA
HETATM   25  O   UNK N   1      30.984  12.928   2.324  0.00  0.00    -0.304 OA
HETATM   26  O   UNK N   1      27.538  12.536   3.107  0.00  0.00    -0.304 OA
HETATM   27  O   UNK N   1      29.594  18.203   4.771  0.00  0.00    -0.304 OA
ENDROOT
BRANCH   4  28
HETATM   28  C   UNK N   1      30.843   9.802   1.767  0.00  0.00     0.010 C 
HETATM   29  C   UNK N   1      31.649   9.244   2.918  0.00  0.00     0.012 C 
HETATM   30  C   UNK N   1      31.802  10.342   0.707  0.00  0.00     0.012 C 
ENDBRANCH   4  28
BRANCH   8  31
HETATM   31  C   UNK N   1      33.160  12.545   3.326  0.00  0.00     0.016 C 
HETATM   32  C   UNK N   1      33.739  13.183   2.076  0.00  0.00     0.012 C 
HETATM   33  C   UNK N   1      33.949  12.997   4.546  0.00  0.00     0.012 C 
ENDBRANCH   8  31
BRANCH   7  34
HETATM   34  C   UNK N   1      25.347  11.660   2.843  0.00  0.00     0.016 C 
HETATM   35  C   UNK N   1      25.487  10.447   3.747  0.00  0.00     0.012 C 
HETATM   36  C   UNK N   1      24.157  11.510   1.906  0.00  0.00     0.012 C 
ENDBRANCH   7  34
BRANCH   6  37
HETATM   37  C   UNK N   1      31.799  16.118   6.575  0.00  0.00     0.010 C 
HETATM   38  C   UNK N   1      33.282  16.258   6.284  0.00  0.00     0.012 C 
HETATM   39  C   UNK N   1      31.377  17.152   7.605  0.00  0.00     0.012 C 
ENDBRANCH   6  37
BRANCH   5  40
HETATM   40  C   UNK N   1      24.879  14.330   3.684  0.00  0.00     0.010 C 
HETATM   41  C   UNK N   1      23.906  15.272   2.989  0.00  0.00     0.012 C 
HETATM   42  C   UNK N   1      24.407  14.022   5.100  0.00  0.00     0.012 C 
ENDBRANCH   5  40
BRANCH   9  43
HETATM   43  C   UNK N   1      27.477  19.049   5.292  0.00  0.00     0.016 C 
HETATM   44  C   UNK N   1      27.377  19.935   4.064  0.00  0.00     0.012 C 
HETATM   45  C   UNK N   1      27.713  19.848   6.559  0.00  0.00     0.012 C 
ENDBRANCH   9  43
TORSDOF 6
ENDMDL
MODEL 5
REMARK VINA RESULT:      -6.4      2.305      6.797
REMARK  6 active torsions:
REMARK  status: ('A' for Active; 'I' for Inactive)
REMARK    1  A    between atoms: C_22  and  C_16 
REMARK    2  A    between atoms: C_23  and  C_17 
REMARK    3  A    between atoms: C_24  and  C_18 
REMARK    4  A    between atoms: C_25  and  C_19 
REMARK    5  A    between atoms: C_26  and  C_20 
REMARK    6  A    between atoms: C_27  and  C_21 
ROOT
HETATM    1  C   UNK N   1      25.782  10.670   0.867  0.00  0.00     0.153 C 
HETATM    2  C   UNK N   1      26.590  15.820   6.419  0.00  0.00     0.153 C 
HETATM    3  C   UNK N   1      32.786  15.429   4.535  0.00  0.00     0.153 C 
HETATM    4  C   UNK N   1      26.106  12.918   1.980  0.00  0.00     0.190 C 
HETATM    5  C   UNK N   1      31.030  13.648   4.096  0.00  0.00     0.190 C 
HETATM    6  C   UNK N   1      28.324  17.531   5.740  0.00  0.00     0.190 C 
HETATM    7  C   UNK N   1      29.172  11.931   2.316  0.00  0.00     0.227 C 
HETATM    8  C   UNK N   1      25.691  15.538   3.647  0.00  0.00     0.227 C 
HETATM    9  C   UNK N   1      31.105  16.628   6.637  0.00  0.00     0.227 C 
HETATM   10  C   UNK N   1      27.968  11.156   1.735  0.00  0.00     0.250 C 
HETATM   11  C   UNK N   1      26.811  16.476   4.078  0.00  0.00     0.250 C 
HETATM   12  C   UNK N   1      30.767  15.312   5.903  0.00  0.00     0.250 C 
HETATM   13  C   UNK N   1      26.229  13.108   3.500  0.00  0.00     0.283 C 
HETATM   14  C   UNK N   1      29.812  14.112   3.253  0.00  0.00     0.283 C 
HETATM   15  C   UNK N   1      28.804  17.342   7.187  0.00  0.00     0.283 C 
HETATM   16  N   UNK N   1      26.666  11.604   1.552  0.00  0.00    -0.340 N 
HETATM   17  N   UNK N   1      27.203  16.633   5.388  0.00  0.00    -0.340 N 
HETATM   18  N   UNK N   1      31.539  14.792   4.891  0.00  0.00    -0.340 N 
HETATM   19  O   UNK N   1      28.216  10.000   1.407  0.00  0.00    -0.270 OA
HETATM   20  O   UNK N   1      27.413  17.061   3.190  0.00  0.00    -0.270 OA
HETATM   21  O   UNK N   1      29.729  14.739   6.208  0.00  0.00    -0.270 OA
HETATM   22  O   UNK N   1      26.613  12.165   4.174  0.00  0.00    -0.263 OA
HETATM   23  O   UNK N   1      29.568  15.306   3.212  0.00  0.00    -0.263 OA
HETATM   24  O   UNK N   1      28.027  17.570   8.103  0.00  0.00    -0.263 OA
HETATM   25  O   UNK N   1      25.923  14.268   4.156  0.00  0.00    -0.304 OA
HETATM   26  O   UNK N   1      28.953  13.266   2.589  0.00  0.00    -0.304 OA
HETATM   27  O   UNK N   1      30.076  16.964   7.506  0.00  0.00    -0.304 OA
ENDROOT
BRANCH   4  28
HETATM   28  C   UNK N   1      24.584  12.994   1.570  0.00  0.00     0.010 C 
HETATM   29  C   UNK N   1      24.078  14.202   0.815  0.00  0.00     0.012 C 
HETATM   30  C   UNK N   1      23.626  12.691   2.721  0.00  0.00     0.012 C 
ENDBRANCH   4  28
BRANCH   8  31
HETATM   31  C   UNK N   1      24.267  16.035   4.013  0.00  0.00     0.016 C 
HETATM   32  C   UNK N   1      23.657  15.473   5.284  0.00  0.00     0.012 C 
HETATM   33  C   UNK N   1      24.168  17.554   4.024  0.00  0.00     0.012 C 
ENDBRANCH   8  31
BRANCH   7  34
HETATM   34  C   UNK N   1      30.365  11.830   1.332  0.00  0.00     0.016 C 
HETATM   35  C   UNK N   1      30.041  12.313  -0.071  0.00  0.00     0.012 C 
HETATM   36  C   UNK N   1      31.040  10.466   1.299  0.00  0.00     0.012 C 
ENDBRANCH   7  34
BRANCH   6  37
HETATM   37  C   UNK N   1      27.982  19.033   5.558  0.00  0.00     0.010 C 
HETATM   38  C   UNK N   1      28.489  19.677   4.281  0.00  0.00     0.012 C 
HETATM   39  C   UNK N   1      26.505  19.343   5.739  0.00  0.00     0.012 C 
ENDBRANCH   6  37
BRANCH   5  40
HETATM   40  C   UNK N   1      32.131  12.961   3.243  0.00  0.00     0.010 C 
HETATM   41  C   UNK N   1      32.992  12.004   4.055  0.00  0.00     0.012 C 
HETATM   42  C   UNK N   1      33.005  13.908   2.429  0.00  0.00     0.012 C 
ENDBRANCH   5  40
BRANCH   9  43
HETATM   43  C   UNK N   1      32.392  16.638   7.488  0.00  0.00     0.016 C 
HETATM   44  C   UNK N   1      32.583  15.491   8.464  0.00  0.00     0.012 C 
HETATM   45  C   UNK N   1      32.728  17.980   8.107  0.00  0.00     0.012 C 
ENDBRANCH   9  43
TORSDOF 6
ENDMDL
MODEL 6
REMARK VINA RESULT:      -6.3      1.819      8.670
REMARK  6 active torsions:
REMARK  status: ('A' for Active; 'I' for Inactive)
REMARK    1  A    between atoms: C_22  and  C_16 
REMARK    2  A    between atoms: C_23  and  C_17 
REMARK    3  A    between atoms: C_24  and  C_18 
REMARK    4  A    between atoms: C_25  and  C_19 
REMARK    5  A    between atoms: C_26  and  C_20 
REMARK    6  A    between atoms: C_27  and  C_21 
ROOT
HETATM    1  C   UNK N   1      22.416  16.725   3.724  0.00  0.00     0.153 C 
HETATM    2  C   UNK N   1      29.642  16.197   6.073  0.00  0.00     0.153 C 
HETATM    3  C   UNK N   1      29.520  11.058   2.116  0.00  0.00     0.153 C 
HETATM    4  C   UNK N   1      24.940  16.893   3.673  0.00  0.00     0.190 C 
HETATM    5  C   UNK N   1      27.463  12.138   3.139  0.00  0.00     0.190 C 
HETATM    6  C   UNK N   1      31.101  15.429   4.156  0.00  0.00     0.190 C 
HETATM    7  C   UNK N   1      24.803  13.715   3.065  0.00  0.00     0.227 C 
HETATM    8  C   UNK N   1      27.915  17.693   4.244  0.00  0.00     0.227 C 
HETATM    9  C   UNK N   1      31.252  12.375   4.101  0.00  0.00     0.227 C 
HETATM   10  C   UNK N   1      23.642  14.690   3.367  0.00  0.00     0.250 C 
HETATM   11  C   UNK N   1      29.128  16.892   3.791  0.00  0.00     0.250 C 
HETATM   12  C   UNK N   1      29.709  12.433   4.124  0.00  0.00     0.250 C 
HETATM   13  C   UNK N   1      25.851  16.415   4.814  0.00  0.00     0.283 C 
HETATM   14  C   UNK N   1      27.240  13.628   2.763  0.00  0.00     0.283 C 
HETATM   15  C   UNK N   1      31.716  14.523   5.234  0.00  0.00     0.283 C 
HETATM   16  N   UNK N   1      23.706  16.061   3.580  0.00  0.00    -0.340 N 
HETATM   17  N   UNK N   1      29.959  16.222   4.660  0.00  0.00    -0.340 N 
HETATM   18  N   UNK N   1      28.918  11.851   3.161  0.00  0.00    -0.340 N 
HETATM   19  O   UNK N   1      22.536  14.163   3.427  0.00  0.00    -0.270 OA
HETATM   20  O   UNK N   1      29.316  16.809   2.586  0.00  0.00    -0.270 OA
HETATM   21  O   UNK N   1      29.176  13.077   5.019  0.00  0.00    -0.270 OA
HETATM   22  O   UNK N   1      25.430  15.555   5.571  0.00  0.00    -0.263 OA
HETATM   23  O   UNK N   1      28.204  14.270   2.381  0.00  0.00    -0.263 OA
HETATM   24  O   UNK N   1      32.209  15.035   6.227  0.00  0.00    -0.263 OA
HETATM   25  O   UNK N   1      27.107  16.903   5.049  0.00  0.00    -0.304 OA
HETATM   26  O   UNK N   1      26.042  14.294   2.881  0.00  0.00    -0.304 OA
HETATM   27  O   UNK N   1      31.771  13.164   5.119  0.00  0.00    -0.304 OA
ENDROOT
BRANCH   4  28
HETATM   28  C   UNK N   1      24.536  18.397   3.926  0.00  0.00     0.010 C 
HETATM   29  C   UNK N   1      25.136  19.483   3.063  0.00  0.00     0.012 C 
HETATM   30  C   UNK N   1      24.637  18.817   5.392  0.00  0.00     0.012 C 
ENDBRANCH   4  28
BRANCH   8  31
HETATM   31  C   UNK N   1      28.261  19.034   4.945  0.00  0.00     0.016 C 
HETATM   32  C   UNK N   1      27.809  20.302   4.245  0.00  0.00     0.012 C 
HETATM   33  C   UNK N   1      27.811  19.062   6.398  0.00  0.00     0.012 C 
ENDBRANCH   8  31
BRANCH   7  34
HETATM   34  C   UNK N   1      24.460  12.894   1.797  0.00  0.00     0.016 C 
HETATM   35  C   UNK N   1      24.104  13.750   0.593  0.00  0.00     0.012 C 
HETATM   36  C   UNK N   1      23.425  11.800   2.016  0.00  0.00     0.012 C 
ENDBRANCH   7  34
BRANCH   6  37
HETATM   37  C   UNK N   1      32.244  16.306   3.581  0.00  0.00     0.010 C 
HETATM   38  C   UNK N   1      32.687  17.469   4.449  0.00  0.00     0.012 C 
HETATM   39  C   UNK N   1      33.456  15.504   3.137  0.00  0.00     0.012 C 
ENDBRANCH   6  37
BRANCH   5  40
HETATM   40  C   UNK N   1      26.663  11.160   2.237  0.00  0.00     0.010 C 
HETATM   41  C   UNK N   1      26.466   9.795   2.880  0.00  0.00     0.012 C 
HETATM   42  C   UNK N   1      27.191  11.011   0.816  0.00  0.00     0.012 C 
ENDBRANCH   5  40
BRANCH   9  43
HETATM   43  C   UNK N   1      31.898  10.985   4.278  0.00  0.00     0.016 C 
HETATM   44  C   UNK N   1      31.281  10.064   5.314  0.00  0.00     0.012 C 
HETATM   45  C   UNK N   1      33.412  10.998   4.350  0.00  0.00     0.012 C 
ENDBRANCH   9  43
TORSDOF 6
ENDMDL
MODEL 7
REMARK VINA RESULT:      -6.3      6.102     10.976
REMARK  6 active torsions:
REMARK  status: ('A' for Active; 'I' for Inactive)
REMARK    1  A    between atoms: C_22  and  C_16 
REMARK    2  A    between atoms: C_23  and  C_17 
REMARK    3  A    between atoms: C_24  and  C_18 
REMARK    4  A    between atoms: C_25  and  C_19 
REMARK    5  A    between atoms: C_26  and  C_20 
REMARK    6  A    between atoms: C_27  and  C_21 
ROOT
HETATM    1  C   UNK N   1      35.307  16.750  10.241  0.00  0.00     0.153 C 
HETATM    2  C   UNK N   1      33.228  14.736   3.197  0.00  0.00     0.153 C 
HETATM    3  C   UNK N   1      34.809   8.868   5.468  0.00  0.00     0.153 C 
HETATM    4  C   UNK N   1      33.888  15.809   8.371  0.00  0.00     0.190 C 
HETATM    5  C   UNK N   1      35.628  11.062   6.449  0.00  0.00     0.190 C 
HETATM    6  C   UNK N   1      32.034  12.508   3.272  0.00  0.00     0.190 C 
HETATM    7  C   UNK N   1      35.844  13.241   8.633  0.00  0.00     0.227 C 
HETATM    8  C   UNK N   1      32.124  15.487   5.802  0.00  0.00     0.227 C 
HETATM    9  C   UNK N   1      34.043  10.222   2.966  0.00  0.00     0.227 C 
HETATM   10  C   UNK N   1      35.912  14.586   9.391  0.00  0.00     0.250 C 
HETATM   11  C   UNK N   1      31.831  14.160   5.114  0.00  0.00     0.250 C 
HETATM   12  C   UNK N   1      34.795  10.908   4.128  0.00  0.00     0.250 C 
HETATM   13  C   UNK N   1      34.345  15.736   6.905  0.00  0.00     0.283 C 
HETATM   14  C   UNK N   1      34.516  12.011   6.971  0.00  0.00     0.283 C 
HETATM   15  C   UNK N   1      32.905  12.212   2.041  0.00  0.00     0.283 C 
HETATM   16  N   UNK N   1      35.040  15.665   9.306  0.00  0.00    -0.340 N 
HETATM   17  N   UNK N   1      32.322  13.829   3.872  0.00  0.00    -0.340 N 
HETATM   18  N   UNK N   1      35.102  10.273   5.308  0.00  0.00    -0.340 N 
HETATM   19  O   UNK N   1      36.867  14.695  10.153  0.00  0.00    -0.270 OA
HETATM   20  O   UNK N   1      31.173  13.345   5.744  0.00  0.00    -0.270 OA
HETATM   21  O   UNK N   1      35.080  12.092   4.002  0.00  0.00    -0.270 OA
HETATM   22  O   UNK N   1      35.543  15.716   6.672  0.00  0.00    -0.263 OA
HETATM   23  O   UNK N   1      33.387  11.862   6.534  0.00  0.00    -0.263 OA
HETATM   24  O   UNK N   1      32.812  12.937   1.062  0.00  0.00    -0.263 OA
HETATM   25  O   UNK N   1      33.494  15.704   5.836  0.00  0.00    -0.304 OA
HETATM   26  O   UNK N   1      34.722  13.046   7.854  0.00  0.00    -0.304 OA
HETATM   27  O   UNK N   1      33.758  11.149   1.973  0.00  0.00    -0.304 OA
ENDROOT
BRANCH   4  28
HETATM   28  C   UNK N   1      33.182  17.197   8.625  0.00  0.00     0.010 C 
HETATM   29  C   UNK N   1      31.673  17.261   8.695  0.00  0.00     0.012 C 
HETATM   30  C   UNK N   1      33.683  18.313   7.709  0.00  0.00     0.012 C 
ENDBRANCH   4  28
BRANCH   8  31
HETATM   31  C   UNK N   1      31.381  16.702   5.185  0.00  0.00     0.016 C 
HETATM   32  C   UNK N   1      32.190  17.595   4.262  0.00  0.00     0.012 C 
HETATM   33  C   UNK N   1      30.081  16.303   4.503  0.00  0.00     0.012 C 
ENDBRANCH   8  31
BRANCH   7  34
HETATM   34  C   UNK N   1      35.933  12.079   9.652  0.00  0.00     0.016 C 
HETATM   35  C   UNK N   1      34.834  12.102  10.702  0.00  0.00     0.012 C 
HETATM   36  C   UNK N   1      37.301  11.908  10.296  0.00  0.00     0.012 C 
ENDBRANCH   7  34
BRANCH   6  37
HETATM   37  C   UNK N   1      30.552  12.345   2.840  0.00  0.00     0.010 C 
HETATM   38  C   UNK N   1      29.950  13.517   2.087  0.00  0.00     0.012 C 
HETATM   39  C   UNK N   1      30.280  11.054   2.087  0.00  0.00     0.012 C 
ENDBRANCH   6  37
BRANCH   5  40
HETATM   40  C   UNK N   1      36.245  10.180   7.567  0.00  0.00     0.010 C 
HETATM   41  C   UNK N   1      37.576   9.561   7.161  0.00  0.00     0.012 C 
HETATM   42  C   UNK N   1      35.315   9.118   8.142  0.00  0.00     0.012 C 
ENDBRANCH   5  40
BRANCH   9  43
HETATM   43  C   UNK N   1      34.769   9.059   2.259  0.00  0.00     0.016 C 
HETATM   44  C   UNK N   1      36.225   9.278   1.889  0.00  0.00     0.012 C 
HETATM   45  C   UNK N   1      33.981   8.414   1.136  0.00  0.00     0.012 C 
ENDBRANCH   9  43
TORSDOF 6
ENDMDL
MODEL 8
REMARK VINA RESULT:      -6.3      4.724      8.799
REMARK  6 active torsions:
REMARK  status: ('A' for Active; 'I' for Inactive)
REMARK    1  A    between atoms: C_22  and  C_16 
REMARK    2  A    between atoms: C_23  and  C_17 
REMARK    3  A    between atoms: C_24  and  C_18 
REMARK    4  A    between atoms: C_25  and  C_19 
REMARK    5  A    between atoms: C_26  and  C_20 
REMARK    6  A    between atoms: C_27  and  C_21 
ROOT
HETATM    1  C   UNK N   1      34.604  11.029   0.543  0.00  0.00     0.153 C 
HETATM    2  C   UNK N   1      34.142  16.027   6.271  0.00  0.00     0.153 C 
HETATM    3  C   UNK N   1      27.803  14.982   5.368  0.00  0.00     0.153 C 
HETATM    4  C   UNK N   1      34.276  11.916   2.889  0.00  0.00     0.190 C 
HETATM    5  C   UNK N   1      29.600  14.531   3.633  0.00  0.00     0.190 C 
HETATM    6  C   UNK N   1      32.239  15.382   7.805  0.00  0.00     0.190 C 
HETATM    7  C   UNK N   1      31.337  12.737   1.806  0.00  0.00     0.227 C 
HETATM    8  C   UNK N   1      34.724  13.215   5.704  0.00  0.00     0.227 C 
HETATM    9  C   UNK N   1      29.643  16.712   6.885  0.00  0.00     0.227 C 
HETATM   10  C   UNK N   1      32.509  12.102   1.025  0.00  0.00     0.250 C 
HETATM   11  C   UNK N   1      33.607  13.673   6.633  0.00  0.00     0.250 C 
HETATM   12  C   UNK N   1      29.972  16.094   5.509  0.00  0.00     0.250 C 
HETATM   13  C   UNK N   1      34.322  13.408   3.252  0.00  0.00     0.283 C 
HETATM   14  C   UNK N   1      30.680  13.496   4.050  0.00  0.00     0.283 C 
HETATM   15  C   UNK N   1      31.945  16.889   7.767  0.00  0.00     0.283 C 
HETATM   16  N   UNK N   1      33.751  11.710   1.509  0.00  0.00    -0.340 N 
HETATM   17  N   UNK N   1      33.364  14.996   6.925  0.00  0.00    -0.340 N 
HETATM   18  N   UNK N   1      29.119  15.249   4.837  0.00  0.00    -0.340 N 
HETATM   19  O   UNK N   1      32.296  11.939  -0.172  0.00  0.00    -0.270 OA
HETATM   20  O   UNK N   1      32.870  12.807   7.080  0.00  0.00    -0.270 OA
HETATM   21  O   UNK N   1      31.072  16.330   5.026  0.00  0.00    -0.270 OA
HETATM   22  O   UNK N   1      34.078  14.225   2.378  0.00  0.00    -0.263 OA
HETATM   23  O   UNK N   1      30.844  13.292   5.240  0.00  0.00    -0.263 OA
HETATM   24  O   UNK N   1      32.809  17.670   8.138  0.00  0.00    -0.263 OA
HETATM   25  O   UNK N   1      34.632  13.887   4.494  0.00  0.00    -0.304 OA
HETATM   26  O   UNK N   1      31.505  12.830   3.173  0.00  0.00    -0.304 OA
HETATM   27  O   UNK N   1      30.745  17.403   7.370  0.00  0.00    -0.304 OA
ENDROOT
BRANCH   4  28
HETATM   28  C   UNK N   1      35.731  11.314   2.987  0.00  0.00     0.010 C 
HETATM   29  C   UNK N   1      36.092  10.432   4.161  0.00  0.00     0.012 C 
HETATM   30  C   UNK N   1      36.835  12.351   2.788  0.00  0.00     0.012 C 
ENDBRANCH   4  28
BRANCH   8  31
HETATM   31  C   UNK N   1      36.148  13.343   6.308  0.00  0.00     0.016 C 
HETATM   32  C   UNK N   1      37.010  14.474   5.778  0.00  0.00     0.012 C 
HETATM   33  C   UNK N   1      36.132  13.378   7.829  0.00  0.00     0.012 C 
ENDBRANCH   8  31
BRANCH   7  34
HETATM   34  C   UNK N   1      30.045  11.926   1.533  0.00  0.00     0.016 C 
HETATM   35  C   UNK N   1      30.131  10.475   1.973  0.00  0.00     0.012 C 
HETATM   36  C   UNK N   1      29.522  12.036   0.107  0.00  0.00     0.012 C 
ENDBRANCH   7  34
BRANCH   6  37
HETATM   37  C   UNK N   1      32.465  14.991   9.290  0.00  0.00     0.010 C 
HETATM   38  C   UNK N   1      33.806  15.387   9.881  0.00  0.00     0.012 C 
HETATM   39  C   UNK N   1      31.344  15.441  10.211  0.00  0.00     0.012 C 
ENDBRANCH   6  37
BRANCH   5  40
HETATM   40  C   UNK N   1      28.451  13.903   2.798  0.00  0.00     0.010 C 
HETATM   41  C   UNK N   1      27.624  14.946   2.059  0.00  0.00     0.012 C 
HETATM   42  C   UNK N   1      27.544  12.945   3.562  0.00  0.00     0.012 C 
ENDBRANCH   5  40
BRANCH   9  43
HETATM   43  C   UNK N   1      28.467  17.710   6.936  0.00  0.00     0.016 C 
HETATM   44  C   UNK N   1      28.308  18.649   5.754  0.00  0.00     0.012 C 
HETATM   45  C   UNK N   1      28.302  18.423   8.263  0.00  0.00     0.012 C 
ENDBRANCH   9  43
TORSDOF 6
ENDMDL
MODEL 9
REMARK VINA RESULT:      -6.3      3.603      8.350
REMARK  6 active torsions:
REMARK  status: ('A' for Active; 'I' for Inactive)
REMARK    1  A    between atoms: C_22  and  C_16 
REMARK    2  A    between atoms: C_23  and  C_17 
REMARK    3  A    between atoms: C_24  and  C_18 
REMARK    4  A    between atoms: C_25  and  C_19 
REMARK    5  A    between atoms: C_26  and  C_20 
REMARK    6  A    between atoms: C_27  and  C_21 
ROOT
HETATM    1  C   UNK N   1      29.229  18.265   8.111  0.00  0.00     0.153 C 
HETATM    2  C   UNK N   1      29.039  14.226   1.657  0.00  0.00     0.153 C 
HETATM    3  C   UNK N   1      34.400  11.663   4.259  0.00  0.00     0.153 C 
HETATM    4  C   UNK N   1      28.865  16.302   6.557  0.00  0.00     0.190 C 
HETATM    5  C   UNK N   1      33.427  13.920   4.894  0.00  0.00     0.190 C 
HETATM    6  C   UNK N   1      29.802  11.860   2.117  0.00  0.00     0.190 C 
HETATM    7  C   UNK N   1      32.074  15.946   6.800  0.00  0.00     0.227 C 
HETATM    8  C   UNK N   1      27.797  14.408   4.301  0.00  0.00     0.227 C 
HETATM    9  C   UNK N   1      32.832  11.640   1.765  0.00  0.00     0.227 C 
HETATM   10  C   UNK N   1      31.178  17.051   7.404  0.00  0.00     0.250 C 
HETATM   11  C   UNK N   1      28.525  13.169   3.796  0.00  0.00     0.250 C 
HETATM   12  C   UNK N   1      32.896  12.838   2.737  0.00  0.00     0.250 C 
HETATM   13  C   UNK N   1      29.198  16.326   5.057  0.00  0.00     0.283 C 
HETATM   14  C   UNK N   1      31.985  13.882   5.468  0.00  0.00     0.283 C 
HETATM   15  C   UNK N   1      30.590  12.060   0.813  0.00  0.00     0.283 C 
HETATM   16  N   UNK N   1      29.796  17.170   7.334  0.00  0.00    -0.340 N 
HETATM   17  N   UNK N   1      29.073  13.076   2.537  0.00  0.00    -0.340 N 
HETATM   18  N   UNK N   1      33.595  12.813   3.921  0.00  0.00    -0.340 N 
HETATM   19  O   UNK N   1      31.787  17.925   8.012  0.00  0.00    -0.270 OA
HETATM   20  O   UNK N   1      28.665  12.250   4.589  0.00  0.00    -0.270 OA
HETATM   21  O   UNK N   1      32.244  13.836   2.457  0.00  0.00    -0.270 OA
HETATM   22  O   UNK N   1      30.042  17.116   4.664  0.00  0.00    -0.263 OA
HETATM   23  O   UNK N   1      31.293  12.913   5.208  0.00  0.00    -0.263 OA
HETATM   24  O   UNK N   1      29.981  12.332  -0.211  0.00  0.00    -0.263 OA
HETATM   25  O   UNK N   1      28.600  15.526   4.125  0.00  0.00    -0.304 OA
HETATM   26  O   UNK N   1      31.411  14.891   6.207  0.00  0.00    -0.304 OA
HETATM   27  O   UNK N   1      31.944  11.914   0.733  0.00  0.00    -0.304 OA
ENDROOT
BRANCH   4  28
HETATM   28  C   UNK N   1      27.385  16.808   6.767  0.00  0.00     0.010 C 
HETATM   29  C   UNK N   1      26.296  15.809   7.084  0.00  0.00     0.012 C 
HETATM   30  C   UNK N   1      26.895  17.739   5.659  0.00  0.00     0.012 C 
ENDBRANCH   4  28
BRANCH   8  31
HETATM   31  C   UNK N   1      26.394  14.623   3.675  0.00  0.00     0.016 C 
HETATM   32  C   UNK N   1      26.286  15.687   2.599  0.00  0.00     0.012 C 
HETATM   33  C   UNK N   1      25.776  13.324   3.178  0.00  0.00     0.012 C 
ENDBRANCH   8  31
BRANCH   7  34
HETATM   34  C   UNK N   1      32.994  15.376   7.908  0.00  0.00     0.016 C 
HETATM   35  C   UNK N   1      32.239  14.808   9.097  0.00  0.00     0.012 C 
HETATM   36  C   UNK N   1      34.096  16.323   8.361  0.00  0.00     0.012 C 
ENDBRANCH   7  34
BRANCH   6  37
HETATM   37  C   UNK N   1      28.873  10.633   1.912  0.00  0.00     0.010 C 
HETATM   38  C   UNK N   1      27.638  10.873   1.063  0.00  0.00     0.012 C 
HETATM   39  C   UNK N   1      29.605   9.396   1.419  0.00  0.00     0.012 C 
ENDBRANCH   6  37
BRANCH   5  40
HETATM   40  C   UNK N   1      34.518  13.932   5.998  0.00  0.00     0.010 C 
HETATM   41  C   UNK N   1      35.872  14.399   5.482  0.00  0.00     0.012 C 
HETATM   42  C   UNK N   1      34.663  12.632   6.780  0.00  0.00     0.012 C 
ENDBRANCH   5  40
BRANCH   9  43
HETATM   43  C   UNK N   1      34.153  11.227   1.083  0.00  0.00     0.016 C 
HETATM   44  C   UNK N   1      35.021  12.342   0.528  0.00  0.00     0.012 C 
HETATM   45  C   UNK N   1      34.028  10.063   0.120  0.00  0.00     0.012 C 
ENDBRANCH   9  43
TORSDOF 6
ENDMDL
