REMARK  6 active torsions:
REMARK  status: ('A' for Active; 'I' for Inactive)
REMARK    1  A    between atoms: C_11  and  C_10 
REMARK    2  A    between atoms: C_15  and  C_10 
REMARK    3  A    between atoms: C_16  and  C_11 
REMARK    4  A    between atoms: C_13  and  C_12 
REMARK    5  A    between atoms: C_15  and  C_14 
REMARK    6  A    between atoms: O_19  and  C_16 
ROOT
HETATM    1  C   UNK N   1       5.613   0.014  -0.000  0.00  0.00     0.013 A 
HETATM    2  C   UNK N   1       7.072  -1.911   0.000  0.00  0.00     0.013 A 
HETATM    3  C   UNK N   1       4.506  -0.833  -0.000  0.00  0.00     0.016 A 
HETATM    4  C   UNK N   1       5.958  -2.756   0.000  0.00  0.00     0.016 A 
HETATM    5  C   UNK N   1       6.909  -0.517  -0.000  0.00  0.00    -0.026 A 
HETATM    6  C   UNK N   1       4.658  -2.227  -0.000  0.00  0.00     0.010 A 
ENDROOT
BRANCH   6   7
HETATM    7  C   UNK N   1       3.485  -3.160   0.000  0.00  0.00     0.160 C 
HETATM    8  O   UNK N   1       3.705  -4.362  -0.000  0.00  0.00    -0.292 OA
BRANCH   7   9
HETATM    9  C   UNK N   1       2.031  -2.728   0.000  0.00  0.00     0.094 C 
BRANCH   9  10
HETATM   10  C   UNK N   1       1.765  -1.227   0.000  0.00  0.00     0.117 C 
BRANCH  10  11
HETATM   11  C   UNK N   1       0.317  -0.854   0.000  0.00  0.00     0.139 C 
HETATM   12  O   UNK N   1      -0.556  -1.712  -0.000  0.00  0.00    -0.650 OA
BRANCH  11  13
HETATM   13  O   UNK N   1      -0.026   0.445   0.000  0.00  0.00    -0.776 OA
HETATM   14  H   UNK N   1       0.639   1.106   0.000  0.00  0.00     0.167 HD
ENDBRANCH  11  13
ENDBRANCH  10  11
ENDBRANCH   9  10
ENDBRANCH   7   9
ENDBRANCH   6   7
BRANCH   5  15
HETATM   15  C   UNK N   1       8.087   0.381  -0.000  0.00  0.00    -0.026 A 
HETATM   16  C   UNK N   1       7.922   1.777  -0.000  0.00  0.00     0.012 A 
HETATM   17  C   UNK N   1       9.036   2.621  -0.000  0.00  0.00     0.001 A 
HETATM   18  C   UNK N   1      10.323   2.080  -0.000  0.00  0.00     0.000 A 
HETATM   19  C   UNK N   1      10.499   0.694   0.000  0.00  0.00     0.001 A 
HETATM   20  C   UNK N   1       9.387  -0.152   0.000  0.00  0.00     0.012 A 
ENDBRANCH   5  15
TORSDOF 6
