REMARK  6 active torsions:
REMARK  status: ('A' for Active; 'I' for Inactive)
REMARK    1  A    between atoms: C_4  and  N_8 
REMARK    2  A    between atoms: C_6  and  C_31 
REMARK       I    between atoms: N_8  and  C_9 
REMARK       I    between atoms: C_9  and  N_10 
REMARK    3  A    between atoms: N_10  and  C_12 
REMARK    4  A    between atoms: C_15  and  O_18 
REMARK    5  A    between atoms: O_18  and  C_19 
REMARK    6  A    between atoms: C_24  and  C_26 
REMARK       I    between atoms: C_26  and  N_27 
ROOT
HETATM    1  C   UNK N   1      13.276 -11.580   0.134  0.00  0.00     0.075 A 
HETATM    2  C   UNK N   1      12.050 -12.254   0.140  0.00  0.00     0.145 A 
HETATM    3  C   UNK N   1      10.857 -11.519   0.089  0.00  0.00     0.081 A 
HETATM    4  C   UNK N   1      10.878 -10.109   0.045  0.00  0.00     0.079 A 
HETATM    5  C   UNK N   1      12.099  -9.450   0.055  0.00  0.00     0.040 A 
HETATM    6  C   UNK N   1      13.278 -10.173   0.104  0.00  0.00     0.035 A 
HETATM    7  F   UNK N   1      12.009 -13.608   0.186  0.00  0.00    -0.204 F 
ENDROOT
BRANCH   1   8
HETATM    8  N   UNK N   1      14.515 -12.289   0.219  0.00  0.00    -0.306 N 
HETATM    9  C   UNK N   1      15.663 -11.717  -0.230  0.00  0.00     0.325 C 
HETATM   10  N   UNK N   1      16.875 -12.145   0.221  0.00  0.00    -0.309 N 
HETATM   11  O   UNK N   1      15.602 -10.756  -0.987  0.00  0.00    -0.247 OA
HETATM   12  H   UNK N   1      16.968 -13.045   0.608  0.00  0.00     0.170 HD
HETATM   13  H   UNK N   1      14.536 -13.194   0.604  0.00  0.00     0.171 HD
BRANCH  10  14
HETATM   14  C   UNK N   1      18.012 -11.285   0.131  0.00  0.00     0.037 A 
HETATM   15  C   UNK N   1      19.314 -11.784   0.133  0.00  0.00     0.031 A 
HETATM   16  C   UNK N   1      20.394 -10.891   0.051  0.00  0.00     0.027 A 
HETATM   17  C   UNK N   1      20.184  -9.500  -0.013  0.00  0.00     0.049 A 
HETATM   18  C   UNK N   1      18.861  -8.994   0.022  0.00  0.00     0.071 A 
HETATM   19 Cl   UNK N   1      21.597  -8.463  -0.124  0.00  0.00    -0.083 Cl
HETATM   20  C   UNK N   1      17.818  -9.899   0.101  0.00  0.00     0.047 A 
BRANCH  18  21
HETATM   21  C   UNK N   1      18.463  -7.534  -0.025  0.00  0.00     0.419 C 
HETATM   22  F   UNK N   1      17.773  -7.218   1.133  0.00  0.00    -0.166 F 
HETATM   23  F   UNK N   1      17.616  -7.334  -1.103  0.00  0.00    -0.166 F 
HETATM   24  F   UNK N   1      19.528  -6.667  -0.147  0.00  0.00    -0.166 F 
ENDBRANCH  18  21
ENDBRANCH  10  14
ENDBRANCH   1   8
BRANCH   4  25
HETATM   25  O   UNK N   1       9.756  -9.345   0.001  0.00  0.00    -0.311 OA
BRANCH  25  26
HETATM   26  C   UNK N   1       8.457  -9.733  -0.008  0.00  0.00     0.079 A 
HETATM   27  C   UNK N   1       8.070 -11.078  -0.005  0.00  0.00     0.054 A 
HETATM   28  C   UNK N   1       6.718 -11.406  -0.009  0.00  0.00     0.091 A 
HETATM   29  N   UNK N   1       5.781 -10.423  -0.015  0.00  0.00    -0.361 N 
HETATM   30  C   UNK N   1       6.118  -9.103  -0.019  0.00  0.00     0.103 A 
ATOM     31  HN  UNK N   1       4.794 -10.681  -0.016  1.00  0.00     0.165 HD
HETATM   32  C   UNK N   1       7.472  -8.745  -0.017  0.00  0.00     0.072 A 
BRANCH  30  33
HETATM   33  C   UNK N   1       5.076  -8.035  -0.022  0.00  0.00     0.267 C 
HETATM   34  N   UNK N   1       3.742  -8.299  -0.013  0.00  0.00    -0.360 N 
HETATM   35  C   UNK N   1       3.166  -9.620   0.001  0.00  0.00     0.149 C 
HETATM   36  H   UNK N   1       3.125  -7.532  -0.017  0.00  0.00     0.162 HD
HETATM   37  O   UNK N   1       5.435  -6.867  -0.030  0.00  0.00    -0.266 OA
ENDBRANCH  30  33
ENDBRANCH  25  26
ENDBRANCH   4  25
TORSDOF 6
