MODEL 1
REMARK VINA RESULT:      -6.7      0.000      0.000
REMARK  2 active torsions:
REMARK  status: ('A' for Active; 'I' for Inactive)
REMARK    1  A    between atoms: N_1  and  C_7 
REMARK    2  A    between atoms: C_10  and  C_14 
ROOT
HETATM    1  C   UNK N   1      21.541  17.332   5.053  0.00  0.00     0.144 C 
HETATM    2  C   UNK N   1      22.262  16.195   5.148  0.00  0.00     0.075 C 
HETATM    3  C   UNK N   1      21.240  18.148   6.218  0.00  0.00     0.120 C 
HETATM    4  C   UNK N   1      21.201  14.764   6.389  0.00  0.00     0.097 C 
HETATM    5  S   UNK N   1      22.825  15.591   6.636  0.00  0.00    -0.110 SA
HETATM    6  S   UNK N   1      22.339  14.990   3.853  0.00  0.00    -0.118 SA
HETATM    7  C   UNK N   1      21.242  14.045   5.002  0.00  0.00     0.100 C 
HETATM    8  N   UNK N   1      21.025  18.768   7.172  0.00  0.00    -0.190 NA
ENDROOT
BRANCH   1   9
HETATM    9  N   UNK N   1      21.014  17.677   3.780  0.00  0.00    -0.307 N 
HETATM   10  C   UNK N   1      19.704  17.543   3.522  0.00  0.00     0.115 A 
HETATM   11  C   UNK N   1      19.350  18.509   2.600  0.00  0.00     0.106 A 
HETATM   12  N   UNK N   1      20.434  19.263   2.332  0.00  0.00    -0.360 N 
HETATM   13  C   UNK N   1      21.429  18.754   3.083  0.00  0.00     0.188 A 
ATOM     14  HN  UNK N   1      20.489  20.056   1.692  1.00  0.00     0.166 HD
ENDBRANCH   1   9
BRANCH   4  15
HETATM   15  C   UNK N   1      21.119  13.882   7.561  0.00  0.00    -0.021 C 
HETATM   16  C   UNK N   1      20.546  14.386   8.758  0.00  0.00     0.043 C 
HETATM   17  C   UNK N   1      20.858  13.773   9.955  0.00  0.00     0.048 C 
HETATM   18 Cl   UNK N   1      19.630  15.897   8.830  0.00  0.00    -0.084 Cl
HETATM   19  C   UNK N   1      21.674  12.646   9.958  0.00  0.00     0.035 C 
HETATM   20  C   UNK N   1      22.109  12.063   8.767  0.00  0.00     0.024 C 
HETATM   21 Cl   UNK N   1      22.261  12.026  11.466  0.00  0.00    -0.084 Cl
HETATM   22  C   UNK N   1      21.837  12.685   7.562  0.00  0.00     0.012 C 
ENDBRANCH   4  15
TORSDOF 2
ENDMDL
MODEL 2
REMARK VINA RESULT:      -6.1      8.285     10.208
REMARK  2 active torsions:
REMARK  status: ('A' for Active; 'I' for Inactive)
REMARK    1  A    between atoms: N_1  and  C_7 
REMARK    2  A    between atoms: C_10  and  C_14 
ROOT
HETATM    1  C   UNK N   1      30.371  17.059   7.881  0.00  0.00     0.144 C 
HETATM    2  C   UNK N   1      29.720  16.435   6.878  0.00  0.00     0.075 C 
HETATM    3  C   UNK N   1      29.682  17.933   8.816  0.00  0.00     0.120 C 
HETATM    4  C   UNK N   1      28.887  17.913   5.522  0.00  0.00     0.097 C 
HETATM    5  S   UNK N   1      28.058  16.663   6.585  0.00  0.00    -0.110 SA
HETATM    6  S   UNK N   1      30.551  15.675   5.512  0.00  0.00    -0.118 SA
HETATM    7  C   UNK N   1      29.912  17.158   4.614  0.00  0.00     0.100 C 
HETATM    8  N   UNK N   1      29.092  18.621   9.539  0.00  0.00    -0.190 NA
ENDROOT
BRANCH   1   9
HETATM    9  N   UNK N   1      31.780  16.897   7.956  0.00  0.00    -0.307 N 
HETATM   10  C   UNK N   1      32.598  17.957   7.870  0.00  0.00     0.115 A 
HETATM   11  C   UNK N   1      33.728  17.687   8.616  0.00  0.00     0.106 A 
HETATM   12  N   UNK N   1      33.579  16.481   9.198  0.00  0.00    -0.360 N 
HETATM   13  C   UNK N   1      32.373  16.031   8.803  0.00  0.00     0.188 A 
ATOM     14  HN  UNK N   1      34.243  16.007   9.811  1.00  0.00     0.166 HD
ENDBRANCH   1   9
BRANCH   4  15
HETATM   15  C   UNK N   1      27.752  18.531   4.824  0.00  0.00    -0.021 C 
HETATM   16  C   UNK N   1      27.102  19.640   5.424  0.00  0.00     0.043 C 
HETATM   17  C   UNK N   1      25.808  19.938   5.044  0.00  0.00     0.048 C 
HETATM   18 Cl   UNK N   1      27.773  20.528   6.798  0.00  0.00    -0.084 Cl
HETATM   19  C   UNK N   1      25.194  19.188   4.045  0.00  0.00     0.035 C 
HETATM   20  C   UNK N   1      25.892  18.199   3.350  0.00  0.00     0.024 C 
HETATM   21 Cl   UNK N   1      23.503  19.401   3.741  0.00  0.00    -0.084 Cl
HETATM   22  C   UNK N   1      27.174  17.863   3.742  0.00  0.00     0.012 C 
ENDBRANCH   4  15
TORSDOF 2
ENDMDL
MODEL 3
REMARK VINA RESULT:      -6.1     12.889     14.476
REMARK  2 active torsions:
REMARK  status: ('A' for Active; 'I' for Inactive)
REMARK    1  A    between atoms: N_1  and  C_7 
REMARK    2  A    between atoms: C_10  and  C_14 
ROOT
HETATM    1  C   UNK N   1      35.357  14.576  10.065  0.00  0.00     0.144 C 
HETATM    2  C   UNK N   1      34.185  14.007   9.713  0.00  0.00     0.075 C 
HETATM    3  C   UNK N   1      35.492  16.015  10.230  0.00  0.00     0.120 C 
HETATM    4  C   UNK N   1      33.604  14.703   7.739  0.00  0.00     0.097 C 
HETATM    5  S   UNK N   1      32.790  14.922   9.373  0.00  0.00    -0.110 SA
HETATM    6  S   UNK N   1      34.056  12.336   9.143  0.00  0.00    -0.118 SA
HETATM    7  C   UNK N   1      33.807  13.170   7.513  0.00  0.00     0.100 C 
HETATM    8  N   UNK N   1      35.554  17.165  10.350  0.00  0.00    -0.190 NA
ENDROOT
BRANCH   1   9
HETATM    9  N   UNK N   1      36.489  13.730  10.201  0.00  0.00    -0.307 N 
HETATM   10  C   UNK N   1      37.534  13.844   9.366  0.00  0.00     0.115 A 
HETATM   11  C   UNK N   1      38.673  13.478  10.057  0.00  0.00     0.106 A 
HETATM   12  N   UNK N   1      38.330  13.187  11.327  0.00  0.00    -0.360 N 
HETATM   13  C   UNK N   1      36.998  13.374  11.398  0.00  0.00     0.188 A 
ATOM     14  HN  UNK N   1      38.951  12.888  12.079  1.00  0.00     0.166 HD
ENDBRANCH   1   9
BRANCH   4  15
HETATM   15  C   UNK N   1      32.658  15.362   6.829  0.00  0.00    -0.021 C 
HETATM   16  C   UNK N   1      32.746  16.767   6.651  0.00  0.00     0.043 C 
HETATM   17  C   UNK N   1      31.638  17.450   6.190  0.00  0.00     0.048 C 
HETATM   18 Cl   UNK N   1      34.125  17.727   7.200  0.00  0.00    -0.084 Cl
HETATM   19  C   UNK N   1      30.486  16.745   5.854  0.00  0.00     0.035 C 
HETATM   20  C   UNK N   1      30.456  15.350   5.884  0.00  0.00     0.024 C 
HETATM   21 Cl   UNK N   1      29.027  17.614   5.511  0.00  0.00    -0.084 Cl
HETATM   22  C   UNK N   1      31.543  14.653   6.378  0.00  0.00     0.012 C 
ENDBRANCH   4  15
TORSDOF 2
ENDMDL
MODEL 4
REMARK VINA RESULT:      -6.1     11.150     12.742
REMARK  2 active torsions:
REMARK  status: ('A' for Active; 'I' for Inactive)
REMARK    1  A    between atoms: N_1  and  C_7 
REMARK    2  A    between atoms: C_10  and  C_14 
ROOT
HETATM    1  C   UNK N   1      34.070  15.161   8.772  0.00  0.00     0.144 C 
HETATM    2  C   UNK N   1      33.896  16.120   7.838  0.00  0.00     0.075 C 
HETATM    3  C   UNK N   1      33.312  13.920   8.747  0.00  0.00     0.120 C 
HETATM    4  C   UNK N   1      31.864  16.877   7.944  0.00  0.00     0.097 C 
HETATM    5  S   UNK N   1      32.740  15.987   6.595  0.00  0.00    -0.110 SA
HETATM    6  S   UNK N   1      34.503  17.772   8.027  0.00  0.00    -0.118 SA
HETATM    7  C   UNK N   1      32.714  18.135   8.313  0.00  0.00     0.100 C 
HETATM    8  N   UNK N   1      32.688  12.947   8.687  0.00  0.00    -0.190 NA
ENDROOT
BRANCH   1   9
HETATM    9  N   UNK N   1      34.970  15.430   9.836  0.00  0.00    -0.307 N 
HETATM   10  C   UNK N   1      34.562  15.361  11.113  0.00  0.00     0.115 A 
HETATM   11  C   UNK N   1      35.642  14.980  11.886  0.00  0.00     0.106 A 
HETATM   12  N   UNK N   1      36.697  14.770  11.075  0.00  0.00    -0.360 N 
HETATM   13  C   UNK N   1      36.256  15.024   9.828  0.00  0.00     0.188 A 
ATOM     14  HN  UNK N   1      37.635  14.478  11.349  1.00  0.00     0.166 HD
ENDBRANCH   1   9
BRANCH   4  15
HETATM   15  C   UNK N   1      30.554  17.149   7.337  0.00  0.00    -0.021 C 
HETATM   16  C   UNK N   1      29.497  17.605   8.167  0.00  0.00     0.043 C 
HETATM   17  C   UNK N   1      28.195  17.434   7.741  0.00  0.00     0.048 C 
HETATM   18 Cl   UNK N   1      29.744  18.178   9.822  0.00  0.00    -0.084 Cl
HETATM   19  C   UNK N   1      27.948  16.877   6.490  0.00  0.00     0.035 C 
HETATM   20  C   UNK N   1      28.991  16.573   5.614  0.00  0.00     0.024 C 
HETATM   21 Cl   UNK N   1      26.328  16.440   6.058  0.00  0.00    -0.084 Cl
HETATM   22  C   UNK N   1      30.301  16.703   6.039  0.00  0.00     0.012 C 
ENDBRANCH   4  15
TORSDOF 2
ENDMDL
MODEL 5
REMARK VINA RESULT:      -5.9      2.033      2.431
REMARK  2 active torsions:
REMARK  status: ('A' for Active; 'I' for Inactive)
REMARK    1  A    between atoms: N_1  and  C_7 
REMARK    2  A    between atoms: C_10  and  C_14 
ROOT
HETATM    1  C   UNK N   1      20.247  16.724   4.625  0.00  0.00     0.144 C 
HETATM    2  C   UNK N   1      21.308  16.852   5.450  0.00  0.00     0.075 C 
HETATM    3  C   UNK N   1      19.063  15.973   5.009  0.00  0.00     0.120 C 
HETATM    4  C   UNK N   1      22.169  14.895   5.833  0.00  0.00     0.097 C 
HETATM    5  S   UNK N   1      21.376  16.098   6.975  0.00  0.00    -0.110 SA
HETATM    6  S   UNK N   1      22.892  17.424   4.905  0.00  0.00    -0.118 SA
HETATM    7  C   UNK N   1      23.328  15.638   5.093  0.00  0.00     0.100 C 
HETATM    8  N   UNK N   1      18.140  15.366   5.356  0.00  0.00    -0.190 NA
ENDROOT
BRANCH   1   9
HETATM    9  N   UNK N   1      20.348  17.289   3.326  0.00  0.00    -0.307 N 
HETATM   10  C   UNK N   1      20.600  16.514   2.260  0.00  0.00     0.115 A 
HETATM   11  C   UNK N   1      19.995  17.091   1.160  0.00  0.00     0.106 A 
HETATM   12  N   UNK N   1      19.333  18.193   1.564  0.00  0.00    -0.360 N 
HETATM   13  C   UNK N   1      19.540  18.278   2.892  0.00  0.00     0.188 A 
ATOM     14  HN  UNK N   1      18.787  18.830   0.984  1.00  0.00     0.166 HD
ENDBRANCH   1   9
BRANCH   4  15
HETATM   15  C   UNK N   1      22.581  13.822   6.747  0.00  0.00    -0.021 C 
HETATM   16  C   UNK N   1      21.711  12.717   6.940  0.00  0.00     0.043 C 
HETATM   17  C   UNK N   1      21.846  11.957   8.085  0.00  0.00     0.048 C 
HETATM   18 Cl   UNK N   1      20.316  12.391   5.904  0.00  0.00    -0.084 Cl
HETATM   19  C   UNK N   1      22.861  12.250   8.991  0.00  0.00     0.035 C 
HETATM   20  C   UNK N   1      23.808  13.240   8.721  0.00  0.00     0.024 C 
HETATM   21 Cl   UNK N   1      22.879  11.461  10.532  0.00  0.00    -0.084 Cl
HETATM   22  C   UNK N   1      23.667  14.034   7.598  0.00  0.00     0.012 C 
ENDBRANCH   4  15
TORSDOF 2
ENDMDL
MODEL 6
REMARK VINA RESULT:      -5.9     16.235     17.412
REMARK  2 active torsions:
REMARK  status: ('A' for Active; 'I' for Inactive)
REMARK    1  A    between atoms: N_1  and  C_7 
REMARK    2  A    between atoms: C_10  and  C_14 
ROOT
HETATM    1  C   UNK N   1      36.457  12.401  11.110  0.00  0.00     0.144 C 
HETATM    2  C   UNK N   1      35.610  12.967  11.995  0.00  0.00     0.075 C 
HETATM    3  C   UNK N   1      36.784  10.985  11.159  0.00  0.00     0.120 C 
HETATM    4  C   UNK N   1      36.437  12.806  13.997  0.00  0.00     0.097 C 
HETATM    5  S   UNK N   1      34.905  12.092  13.274  0.00  0.00    -0.110 SA
HETATM    6  S   UNK N   1      35.469  14.718  12.213  0.00  0.00    -0.118 SA
HETATM    7  C   UNK N   1      36.391  14.352  13.772  0.00  0.00     0.100 C 
HETATM    8  N   UNK N   1      37.016   9.853  11.235  0.00  0.00    -0.190 NA
ENDROOT
BRANCH   1   9
HETATM    9  N   UNK N   1      37.086  13.250  10.161  0.00  0.00    -0.307 N 
HETATM   10  C   UNK N   1      38.420  13.401  10.155  0.00  0.00     0.115 A 
HETATM   11  C   UNK N   1      38.815  13.649   8.855  0.00  0.00     0.106 A 
HETATM   12  N   UNK N   1      37.728  13.601   8.060  0.00  0.00    -0.360 N 
HETATM   13  C   UNK N   1      36.691  13.330   8.875  0.00  0.00     0.188 A 
ATOM     14  HN  UNK N   1      37.699  13.741   7.050  1.00  0.00     0.166 HD
ENDBRANCH   1   9
BRANCH   4  15
HETATM   15  C   UNK N   1      36.358  12.363  15.395  0.00  0.00    -0.021 C 
HETATM   16  C   UNK N   1      36.849  11.075  15.733  0.00  0.00     0.043 C 
HETATM   17  C   UNK N   1      36.392  10.471  16.887  0.00  0.00     0.048 C 
HETATM   18 Cl   UNK N   1      37.845  10.102  14.643  0.00  0.00    -0.084 Cl
HETATM   19  C   UNK N   1      35.513  11.156  17.721  0.00  0.00     0.035 C 
HETATM   20  C   UNK N   1      35.154  12.480  17.463  0.00  0.00     0.024 C 
HETATM   21 Cl   UNK N   1      34.754  10.314  19.031  0.00  0.00    -0.084 Cl
HETATM   22  C   UNK N   1      35.572  13.087  16.294  0.00  0.00     0.012 C 
ENDBRANCH   4  15
TORSDOF 2
ENDMDL
MODEL 7
REMARK VINA RESULT:      -5.9      1.795      2.147
REMARK  2 active torsions:
REMARK  status: ('A' for Active; 'I' for Inactive)
REMARK    1  A    between atoms: N_1  and  C_7 
REMARK    2  A    between atoms: C_10  and  C_14 
ROOT
HETATM    1  C   UNK N   1      22.180  15.327   5.332  0.00  0.00     0.144 C 
HETATM    2  C   UNK N   1      23.027  14.344   5.706  0.00  0.00     0.075 C 
HETATM    3  C   UNK N   1      21.727  16.345   6.266  0.00  0.00     0.120 C 
HETATM    4  C   UNK N   1      22.085  13.115   7.228  0.00  0.00     0.097 C 
HETATM    5  S   UNK N   1      23.584  14.177   7.306  0.00  0.00    -0.110 SA
HETATM    6  S   UNK N   1      23.311  12.893   4.734  0.00  0.00    -0.118 SA
HETATM    7  C   UNK N   1      22.279  12.107   6.050  0.00  0.00     0.100 C 
HETATM    8  N   UNK N   1      21.392  17.136   7.044  0.00  0.00    -0.190 NA
ENDROOT
BRANCH   1   9
HETATM    9  N   UNK N   1      21.680  15.298   4.004  0.00  0.00    -0.307 N 
HETATM   10  C   UNK N   1      20.400  14.972   3.761  0.00  0.00     0.115 A 
HETATM   11  C   UNK N   1      19.996  15.645   2.625  0.00  0.00     0.106 A 
HETATM   12  N   UNK N   1      21.014  16.420   2.201  0.00  0.00    -0.360 N 
HETATM   13  C   UNK N   1      22.019  16.213   3.073  0.00  0.00     0.188 A 
ATOM     14  HN  UNK N   1      21.021  17.037   1.389  1.00  0.00     0.166 HD
ENDBRANCH   1   9
BRANCH   4  15
HETATM   15  C   UNK N   1      22.052  12.525   8.573  0.00  0.00    -0.021 C 
HETATM   16  C   UNK N   1      21.282  13.162   9.581  0.00  0.00     0.043 C 
HETATM   17  C   UNK N   1      21.583  12.912  10.905  0.00  0.00     0.048 C 
HETATM   18 Cl   UNK N   1      20.102  14.434   9.238  0.00  0.00    -0.084 Cl
HETATM   19  C   UNK N   1      22.587  12.002  11.223  0.00  0.00     0.035 C 
HETATM   20  C   UNK N   1      23.235  11.264  10.232  0.00  0.00     0.024 C 
HETATM   21 Cl   UNK N   1      23.127  11.872  12.864  0.00  0.00    -0.084 Cl
HETATM   22  C   UNK N   1      22.972  11.528   8.901  0.00  0.00     0.012 C 
ENDBRANCH   4  15
TORSDOF 2
ENDMDL
MODEL 8
REMARK VINA RESULT:      -5.7     15.646     17.151
REMARK  2 active torsions:
REMARK  status: ('A' for Active; 'I' for Inactive)
REMARK    1  A    between atoms: N_1  and  C_7 
REMARK    2  A    between atoms: C_10  and  C_14 
ROOT
HETATM    1  C   UNK N   1      36.463  13.898  13.402  0.00  0.00     0.144 C 
HETATM    2  C   UNK N   1      36.502  12.558  13.557  0.00  0.00     0.075 C 
HETATM    3  C   UNK N   1      36.883  14.805  14.458  0.00  0.00     0.120 C 
HETATM    4  C   UNK N   1      35.158  11.973  15.159  0.00  0.00     0.097 C 
HETATM    5  S   UNK N   1      36.984  11.820  15.013  0.00  0.00    -0.110 SA
HETATM    6  S   UNK N   1      35.669  11.436  12.471  0.00  0.00    -0.118 SA
HETATM    7  C   UNK N   1      34.523  11.277  13.912  0.00  0.00     0.100 C 
HETATM    8  N   UNK N   1      37.228  15.490  15.326  0.00  0.00    -0.190 NA
ENDROOT
BRANCH   1   9
HETATM    9  N   UNK N   1      35.925  14.408  12.191  0.00  0.00    -0.307 N 
HETATM   10  C   UNK N   1      35.239  15.562  12.178  0.00  0.00     0.115 A 
HETATM   11  C   UNK N   1      35.430  16.159  10.947  0.00  0.00     0.106 A 
HETATM   12  N   UNK N   1      36.271  15.392  10.225  0.00  0.00    -0.360 N 
HETATM   13  C   UNK N   1      36.581  14.345  11.014  0.00  0.00     0.188 A 
ATOM     14  HN  UNK N   1      36.605  15.569   9.278  1.00  0.00     0.166 HD
ENDBRANCH   1   9
BRANCH   4  15
HETATM   15  C   UNK N   1      34.893  11.328  16.452  0.00  0.00    -0.021 C 
HETATM   16  C   UNK N   1      35.087  12.077  17.642  0.00  0.00     0.043 C 
HETATM   17  C   UNK N   1      35.287  11.400  18.828  0.00  0.00     0.048 C 
HETATM   18 Cl   UNK N   1      35.311  13.831  17.656  0.00  0.00    -0.084 Cl
HETATM   19  C   UNK N   1      35.236  10.009  18.845  0.00  0.00     0.035 C 
HETATM   20  C   UNK N   1      34.892   9.284  17.702  0.00  0.00     0.024 C 
HETATM   21 Cl   UNK N   1      35.725   9.157  20.271  0.00  0.00    -0.084 Cl
HETATM   22  C   UNK N   1      34.725   9.943  16.499  0.00  0.00     0.012 C 
ENDBRANCH   4  15
TORSDOF 2
ENDMDL
MODEL 9
REMARK VINA RESULT:      -5.7     15.424     17.447
REMARK  2 active torsions:
REMARK  status: ('A' for Active; 'I' for Inactive)
REMARK    1  A    between atoms: N_1  and  C_7 
REMARK    2  A    between atoms: C_10  and  C_14 
ROOT
HETATM    1  C   UNK N   1      30.363  22.396  -3.979  0.00  0.00     0.144 C 
HETATM    2  C   UNK N   1      29.451  22.837  -4.871  0.00  0.00     0.075 C 
HETATM    3  C   UNK N   1      30.321  22.790  -2.580  0.00  0.00     0.120 C 
HETATM    4  C   UNK N   1      29.592  24.997  -5.047  0.00  0.00     0.097 C 
HETATM    5  S   UNK N   1      28.217  23.932  -4.450  0.00  0.00    -0.110 SA
HETATM    6  S   UNK N   1      29.666  22.697  -6.622  0.00  0.00    -0.118 SA
HETATM    7  C   UNK N   1      29.977  24.513  -6.482  0.00  0.00     0.100 C 
HETATM    8  N   UNK N   1      30.248  23.129  -1.475  0.00  0.00    -0.190 NA
ENDROOT
BRANCH   1   9
HETATM    9  N   UNK N   1      31.423  21.586  -4.464  0.00  0.00    -0.307 N 
HETATM   10  C   UNK N   1      32.702  21.959  -4.298  0.00  0.00     0.115 A 
HETATM   11  C   UNK N   1      33.471  20.816  -4.197  0.00  0.00     0.106 A 
HETATM   12  N   UNK N   1      32.655  19.744  -4.254  0.00  0.00    -0.360 N 
HETATM   13  C   UNK N   1      31.410  20.240  -4.389  0.00  0.00     0.188 A 
ATOM     14  HN  UNK N   1      32.925  18.762  -4.203  1.00  0.00     0.166 HD
ENDBRANCH   1   9
BRANCH   4  15
HETATM   15  C   UNK N   1      29.004  26.340  -4.964  0.00  0.00    -0.021 C 
HETATM   16  C   UNK N   1      29.518  27.254  -4.007  0.00  0.00     0.043 C 
HETATM   17  C   UNK N   1      28.725  28.309  -3.603  0.00  0.00     0.048 C 
HETATM   18 Cl   UNK N   1      31.033  26.990  -3.134  0.00  0.00    -0.084 Cl
HETATM   19  C   UNK N   1      27.472  28.490  -4.180  0.00  0.00     0.035 C 
HETATM   20  C   UNK N   1      27.035  27.680  -5.230  0.00  0.00     0.024 C 
HETATM   21 Cl   UNK N   1      26.385  29.658  -3.506  0.00  0.00    -0.084 Cl
HETATM   22  C   UNK N   1      27.800  26.597  -5.622  0.00  0.00     0.012 C 
ENDBRANCH   4  15
TORSDOF 2
ENDMDL
