MODEL 1
REMARK VINA RESULT:      -6.3      0.000      0.000
REMARK  9 active torsions:
REMARK  status: ('A' for Active; 'I' for Inactive)
REMARK    1  A    between atoms: C_13  and  C_11 
REMARK    2  A    between atoms: N_22  and  C_11 
REMARK    3  A    between atoms: C_14  and  C_12 
REMARK    4  A    between atoms: N_22  and  C_12 
REMARK    5  A    between atoms: O_23  and  C_13 
REMARK    6  A    between atoms: O_24  and  C_14 
REMARK    7  A    between atoms: C_17  and  C_15 
REMARK    8  A    between atoms: C_18  and  C_16 
REMARK    9  A    between atoms: N_22  and  C_19 
ROOT
HETATM    1  C   UNK N   1      31.854  16.263   8.202  0.00  0.00     0.080 A 
HETATM    2  C   UNK N   1      32.714  15.838   7.168  0.00  0.00     0.117 A 
HETATM    3  C   UNK N   1      33.494  15.170   9.027  0.00  0.00     0.227 A 
HETATM    4  N   UNK N   1      32.374  15.831   9.371  0.00  0.00    -0.319 N 
ATOM      5  HN  UNK N   1      32.000  15.975  10.308  1.00  0.00     0.169 HD
HETATM    6  O   UNK N   1      33.691  15.168   7.733  0.00  0.00    -0.276 OA
ENDROOT
BRANCH   3   7
HETATM    7  N   UNK N   1      34.390  14.598   9.963  0.00  0.00    -0.343 N 
BRANCH   7   8
HETATM    8  C   UNK N   1      34.712  13.195   9.870  0.00  0.00     0.152 C 
BRANCH   8   9
HETATM    9  C   UNK N   1      36.166  12.998   9.493  0.00  0.00     0.184 C 
BRANCH   9  10
HETATM   10  O   UNK N   1      36.522  13.951   8.540  0.00  0.00    -0.399 OA
HETATM   11  H   UNK N   1      36.869  13.713   7.666  0.00  0.00     0.209 HD
ENDBRANCH   9  10
ENDBRANCH   8   9
ENDBRANCH   7   8
BRANCH   7  12
HETATM   12  C   UNK N   1      34.676  15.312  11.185  0.00  0.00     0.152 C 
BRANCH  12  13
HETATM   13  C   UNK N   1      35.545  16.521  10.912  0.00  0.00     0.184 C 
BRANCH  13  14
HETATM   14  O   UNK N   1      36.873  16.112  10.791  0.00  0.00    -0.399 OA
HETATM   15  H   UNK N   1      37.568  16.763  10.610  0.00  0.00     0.209 HD
ENDBRANCH  13  14
ENDBRANCH  12  13
ENDBRANCH   7  12
ENDBRANCH   3   7
BRANCH   1  16
HETATM   16  C   UNK N   1      30.587  17.043   8.192  0.00  0.00    -0.006 A 
HETATM   17  C   UNK N   1      29.635  16.936   7.173  0.00  0.00     0.014 A 
HETATM   18  C   UNK N   1      28.454  17.683   7.213  0.00  0.00     0.001 A 
HETATM   19  C   UNK N   1      28.212  18.549   8.282  0.00  0.00     0.000 A 
HETATM   20  C   UNK N   1      29.147  18.661   9.312  0.00  0.00     0.001 A 
HETATM   21  C   UNK N   1      30.324  17.909   9.268  0.00  0.00     0.014 A 
ENDBRANCH   1  16
BRANCH   2  22
HETATM   22  C   UNK N   1      32.722  16.068   5.700  0.00  0.00     0.000 A 
HETATM   23  C   UNK N   1      32.805  17.390   5.234  0.00  0.00     0.014 A 
HETATM   24  C   UNK N   1      32.757  17.671   3.866  0.00  0.00     0.001 A 
HETATM   25  C   UNK N   1      32.609  16.631   2.946  0.00  0.00     0.000 A 
HETATM   26  C   UNK N   1      32.516  15.313   3.398  0.00  0.00     0.001 A 
HETATM   27  C   UNK N   1      32.571  15.037   4.767  0.00  0.00     0.014 A 
ENDBRANCH   2  22
TORSDOF 9
ENDMDL
MODEL 2
REMARK VINA RESULT:      -6.3      0.973      1.820
REMARK  9 active torsions:
REMARK  status: ('A' for Active; 'I' for Inactive)
REMARK    1  A    between atoms: C_13  and  C_11 
REMARK    2  A    between atoms: N_22  and  C_11 
REMARK    3  A    between atoms: C_14  and  C_12 
REMARK    4  A    between atoms: N_22  and  C_12 
REMARK    5  A    between atoms: O_23  and  C_13 
REMARK    6  A    between atoms: O_24  and  C_14 
REMARK    7  A    between atoms: C_17  and  C_15 
REMARK    8  A    between atoms: C_18  and  C_16 
REMARK    9  A    between atoms: N_22  and  C_19 
ROOT
HETATM    1  C   UNK N   1      31.795  16.234   8.297  0.00  0.00     0.080 A 
HETATM    2  C   UNK N   1      32.705  15.805   7.308  0.00  0.00     0.117 A 
HETATM    3  C   UNK N   1      33.369  15.104   9.200  0.00  0.00     0.227 A 
HETATM    4  N   UNK N   1      32.242  15.780   9.488  0.00  0.00    -0.319 N 
ATOM      5  HN  UNK N   1      31.819  15.921  10.404  1.00  0.00     0.169 HD
HETATM    6  O   UNK N   1      33.638  15.112   7.919  0.00  0.00    -0.276 OA
ENDROOT
BRANCH   3   7
HETATM    7  N   UNK N   1      34.201  14.506  10.178  0.00  0.00    -0.343 N 
BRANCH   7   8
HETATM    8  C   UNK N   1      34.713  15.311  11.261  0.00  0.00     0.152 C 
BRANCH   8   9
HETATM    9  C   UNK N   1      35.567  16.446  10.734  0.00  0.00     0.184 C 
BRANCH   9  10
HETATM   10  O   UNK N   1      36.912  16.098  10.857  0.00  0.00    -0.399 OA
HETATM   11  H   UNK N   1      37.200  15.214  11.132  0.00  0.00     0.209 HD
ENDBRANCH   9  10
ENDBRANCH   8   9
ENDBRANCH   7   8
BRANCH   7  12
HETATM   12  C   UNK N   1      34.814  13.231   9.891  0.00  0.00     0.152 C 
BRANCH  12  13
HETATM   13  C   UNK N   1      35.281  12.559  11.165  0.00  0.00     0.184 C 
BRANCH  13  14
HETATM   14  O   UNK N   1      34.264  11.733  11.645  0.00  0.00    -0.399 OA
HETATM   15  H   UNK N   1      34.464  10.824  11.916  0.00  0.00     0.209 HD
ENDBRANCH  13  14
ENDBRANCH  12  13
ENDBRANCH   7  12
ENDBRANCH   3   7
BRANCH   1  16
HETATM   16  C   UNK N   1      30.545  17.036   8.226  0.00  0.00    -0.006 A 
HETATM   17  C   UNK N   1      29.633  16.934   7.169  0.00  0.00     0.014 A 
HETATM   18  C   UNK N   1      28.466  17.702   7.152  0.00  0.00     0.001 A 
HETATM   19  C   UNK N   1      28.195  18.584   8.200  0.00  0.00     0.000 A 
HETATM   20  C   UNK N   1      29.089  18.692   9.266  0.00  0.00     0.001 A 
HETATM   21  C   UNK N   1      30.253  17.919   9.280  0.00  0.00     0.014 A 
ENDBRANCH   1  16
BRANCH   2  22
HETATM   22  C   UNK N   1      32.799  16.051   5.845  0.00  0.00     0.000 A 
HETATM   23  C   UNK N   1      32.828  17.381   5.395  0.00  0.00     0.014 A 
HETATM   24  C   UNK N   1      32.856  17.672   4.028  0.00  0.00     0.001 A 
HETATM   25  C   UNK N   1      32.839  16.635   3.094  0.00  0.00     0.000 A 
HETATM   26  C   UNK N   1      32.802  15.309   3.530  0.00  0.00     0.001 A 
HETATM   27  C   UNK N   1      32.780  15.022   4.898  0.00  0.00     0.014 A 
ENDBRANCH   2  22
TORSDOF 9
ENDMDL
MODEL 3
REMARK VINA RESULT:      -6.1      5.023      9.676
REMARK  9 active torsions:
REMARK  status: ('A' for Active; 'I' for Inactive)
REMARK    1  A    between atoms: C_13  and  C_11 
REMARK    2  A    between atoms: N_22  and  C_11 
REMARK    3  A    between atoms: C_14  and  C_12 
REMARK    4  A    between atoms: N_22  and  C_12 
REMARK    5  A    between atoms: O_23  and  C_13 
REMARK    6  A    between atoms: O_24  and  C_14 
REMARK    7  A    between atoms: C_17  and  C_15 
REMARK    8  A    between atoms: C_18  and  C_16 
REMARK    9  A    between atoms: N_22  and  C_19 
ROOT
HETATM    1  C   UNK N   1      36.355  13.148  14.062  0.00  0.00     0.080 A 
HETATM    2  C   UNK N   1      36.475  11.779  13.743  0.00  0.00     0.117 A 
HETATM    3  C   UNK N   1      36.188  12.878  11.949  0.00  0.00     0.227 A 
HETATM    4  N   UNK N   1      36.170  13.822  12.907  0.00  0.00    -0.319 N 
ATOM      5  HN  UNK N   1      36.043  14.826  12.788  1.00  0.00     0.169 HD
HETATM    6  O   UNK N   1      36.374  11.679  12.438  0.00  0.00    -0.276 OA
ENDROOT
BRANCH   3   7
HETATM    7  N   UNK N   1      35.968  13.145  10.575  0.00  0.00    -0.343 N 
BRANCH   7   8
HETATM    8  C   UNK N   1      34.617  13.205  10.072  0.00  0.00     0.152 C 
BRANCH   8   9
HETATM    9  C   UNK N   1      34.107  14.631  10.061  0.00  0.00     0.184 C 
BRANCH   9  10
HETATM   10  O   UNK N   1      33.521  14.916  11.293  0.00  0.00    -0.399 OA
HETATM   11  H   UNK N   1      32.590  14.726  11.486  0.00  0.00     0.209 HD
ENDBRANCH   9  10
ENDBRANCH   8   9
ENDBRANCH   7   8
BRANCH   7  12
HETATM   12  C   UNK N   1      37.064  12.993   9.648  0.00  0.00     0.152 C 
BRANCH  12  13
HETATM   13  C   UNK N   1      38.169  13.983   9.952  0.00  0.00     0.184 C 
BRANCH  13  14
HETATM   14  O   UNK N   1      37.600  15.205  10.310  0.00  0.00    -0.399 OA
HETATM   15  H   UNK N   1      38.151  15.901  10.701  0.00  0.00     0.209 HD
ENDBRANCH  13  14
ENDBRANCH  12  13
ENDBRANCH   7  12
ENDBRANCH   3   7
BRANCH   1  16
HETATM   16  C   UNK N   1      36.397  13.881  15.356  0.00  0.00    -0.006 A 
HETATM   17  C   UNK N   1      37.207  15.001  15.572  0.00  0.00     0.014 A 
HETATM   18  C   UNK N   1      37.203  15.663  16.803  0.00  0.00     0.001 A 
HETATM   19  C   UNK N   1      36.381  15.208  17.837  0.00  0.00     0.000 A 
HETATM   20  C   UNK N   1      35.560  14.098  17.635  0.00  0.00     0.001 A 
HETATM   21  C   UNK N   1      35.566  13.443  16.402  0.00  0.00     0.014 A 
ENDBRANCH   1  16
BRANCH   2  22
HETATM   22  C   UNK N   1      36.610  10.555  14.575  0.00  0.00     0.000 A 
HETATM   23  C   UNK N   1      35.441   9.946  15.059  0.00  0.00     0.014 A 
HETATM   24  C   UNK N   1      35.510   8.828  15.894  0.00  0.00     0.001 A 
HETATM   25  C   UNK N   1      36.753   8.314  16.269  0.00  0.00     0.000 A 
HETATM   26  C   UNK N   1      37.923   8.917  15.802  0.00  0.00     0.001 A 
HETATM   27  C   UNK N   1      37.848  10.031  14.962  0.00  0.00     0.014 A 
ENDBRANCH   2  22
TORSDOF 9
ENDMDL
MODEL 4
REMARK VINA RESULT:      -6.1      4.861      9.457
REMARK  9 active torsions:
REMARK  status: ('A' for Active; 'I' for Inactive)
REMARK    1  A    between atoms: C_13  and  C_11 
REMARK    2  A    between atoms: N_22  and  C_11 
REMARK    3  A    between atoms: C_14  and  C_12 
REMARK    4  A    between atoms: N_22  and  C_12 
REMARK    5  A    between atoms: O_23  and  C_13 
REMARK    6  A    between atoms: O_24  and  C_14 
REMARK    7  A    between atoms: C_17  and  C_15 
REMARK    8  A    between atoms: C_18  and  C_16 
REMARK    9  A    between atoms: N_22  and  C_19 
ROOT
HETATM    1  C   UNK N   1      36.515  13.534  13.971  0.00  0.00     0.080 A 
HETATM    2  C   UNK N   1      36.628  12.198  13.530  0.00  0.00     0.117 A 
HETATM    3  C   UNK N   1      36.459  13.467  11.836  0.00  0.00     0.227 A 
HETATM    4  N   UNK N   1      36.404  14.317  12.876  0.00  0.00    -0.319 N 
ATOM      5  HN  UNK N   1      36.300  15.331  12.847  1.00  0.00     0.169 HD
HETATM    6  O   UNK N   1      36.598  12.224  12.218  0.00  0.00    -0.276 OA
ENDROOT
BRANCH   3   7
HETATM    7  N   UNK N   1      36.319  13.867  10.484  0.00  0.00    -0.343 N 
BRANCH   7   8
HETATM    8  C   UNK N   1      37.208  13.321   9.487  0.00  0.00     0.152 C 
BRANCH   8   9
HETATM    9  C   UNK N   1      38.655  13.577   9.856  0.00  0.00     0.184 C 
BRANCH   9  10
HETATM   10  O   UNK N   1      38.882  14.953   9.880  0.00  0.00    -0.399 OA
HETATM   11  H   UNK N   1      38.188  15.593  10.102  0.00  0.00     0.209 HD
ENDBRANCH   9  10
ENDBRANCH   8   9
ENDBRANCH   7   8
BRANCH   7  12
HETATM   12  C   UNK N   1      35.558  15.055  10.181  0.00  0.00     0.152 C 
BRANCH  12  13
HETATM   13  C   UNK N   1      34.077  14.744  10.110  0.00  0.00     0.184 C 
BRANCH  13  14
HETATM   14  O   UNK N   1      33.510  14.934  11.370  0.00  0.00    -0.399 OA
HETATM   15  H   UNK N   1      33.779  15.690  11.915  0.00  0.00     0.209 HD
ENDBRANCH  13  14
ENDBRANCH  12  13
ENDBRANCH   7  12
ENDBRANCH   3   7
BRANCH   1  16
HETATM   16  C   UNK N   1      36.498  14.141  15.329  0.00  0.00    -0.006 A 
HETATM   17  C   UNK N   1      37.270  15.255  15.675  0.00  0.00     0.014 A 
HETATM   18  C   UNK N   1      37.211  15.796  16.963  0.00  0.00     0.001 A 
HETATM   19  C   UNK N   1      36.372  15.226  17.922  0.00  0.00     0.000 A 
HETATM   20  C   UNK N   1      35.588  14.120  17.590  0.00  0.00     0.001 A 
HETATM   21  C   UNK N   1      35.648  13.585  16.301  0.00  0.00     0.014 A 
ENDBRANCH   1  16
BRANCH   2  22
HETATM   22  C   UNK N   1      36.697  10.899  14.248  0.00  0.00     0.000 A 
HETATM   23  C   UNK N   1      35.497  10.220  14.512  0.00  0.00     0.014 A 
HETATM   24  C   UNK N   1      35.496   9.024  15.235  0.00  0.00     0.001 A 
HETATM   25  C   UNK N   1      36.698   8.501  15.717  0.00  0.00     0.000 A 
HETATM   26  C   UNK N   1      37.897   9.172  15.469  0.00  0.00     0.001 A 
HETATM   27  C   UNK N   1      37.893  10.365  14.740  0.00  0.00     0.014 A 
ENDBRANCH   2  22
TORSDOF 9
ENDMDL
MODEL 5
REMARK VINA RESULT:      -6.0      1.554      4.297
REMARK  9 active torsions:
REMARK  status: ('A' for Active; 'I' for Inactive)
REMARK    1  A    between atoms: C_13  and  C_11 
REMARK    2  A    between atoms: N_22  and  C_11 
REMARK    3  A    between atoms: C_14  and  C_12 
REMARK    4  A    between atoms: N_22  and  C_12 
REMARK    5  A    between atoms: O_23  and  C_13 
REMARK    6  A    between atoms: O_24  and  C_14 
REMARK    7  A    between atoms: C_17  and  C_15 
REMARK    8  A    between atoms: C_18  and  C_16 
REMARK    9  A    between atoms: N_22  and  C_19 
ROOT
HETATM    1  C   UNK N   1      33.802  16.185   6.903  0.00  0.00     0.080 A 
HETATM    2  C   UNK N   1      33.008  16.630   7.982  0.00  0.00     0.117 A 
HETATM    3  C   UNK N   1      34.825  15.838   8.747  0.00  0.00     0.227 A 
HETATM    4  N   UNK N   1      34.946  15.684   7.416  0.00  0.00    -0.319 N 
ATOM      5  HN  UNK N   1      35.729  15.276   6.907  1.00  0.00     0.169 HD
HETATM    6  O   UNK N   1      33.691  16.400   9.080  0.00  0.00    -0.276 OA
ENDROOT
BRANCH   3   7
HETATM    7  N   UNK N   1      35.787  15.386   9.684  0.00  0.00    -0.343 N 
BRANCH   7   8
HETATM    8  C   UNK N   1      36.543  14.190   9.401  0.00  0.00     0.152 C 
BRANCH   8   9
HETATM    9  C   UNK N   1      37.999  14.371   9.779  0.00  0.00     0.184 C 
BRANCH   9  10
HETATM   10  O   UNK N   1      38.280  13.588  10.898  0.00  0.00    -0.399 OA
HETATM   11  H   UNK N   1      38.188  13.920  11.804  0.00  0.00     0.209 HD
ENDBRANCH   9  10
ENDBRANCH   8   9
ENDBRANCH   7   8
BRANCH   7  12
HETATM   12  C   UNK N   1      35.743  15.896  11.033  0.00  0.00     0.152 C 
BRANCH  12  13
HETATM   13  C   UNK N   1      35.062  14.911  11.960  0.00  0.00     0.184 C 
BRANCH  13  14
HETATM   14  O   UNK N   1      33.738  14.742  11.555  0.00  0.00    -0.399 OA
HETATM   15  H   UNK N   1      33.013  14.952  12.163  0.00  0.00     0.209 HD
ENDBRANCH  13  14
ENDBRANCH  12  13
ENDBRANCH   7  12
ENDBRANCH   3   7
BRANCH   1  16
HETATM   16  C   UNK N   1      33.581  16.186   5.432  0.00  0.00    -0.006 A 
HETATM   17  C   UNK N   1      33.901  15.098   4.613  0.00  0.00     0.014 A 
HETATM   18  C   UNK N   1      33.664  15.143   3.236  0.00  0.00     0.001 A 
HETATM   19  C   UNK N   1      33.100  16.284   2.661  0.00  0.00     0.000 A 
HETATM   20  C   UNK N   1      32.767  17.375   3.465  0.00  0.00     0.001 A 
HETATM   21  C   UNK N   1      33.002  17.323   4.842  0.00  0.00     0.014 A 
ENDBRANCH   1  16
BRANCH   2  22
HETATM   22  C   UNK N   1      31.636  17.192   8.062  0.00  0.00     0.000 A 
HETATM   23  C   UNK N   1      31.409  18.273   8.930  0.00  0.00     0.014 A 
HETATM   24  C   UNK N   1      30.126  18.804   9.091  0.00  0.00     0.001 A 
HETATM   25  C   UNK N   1      29.050  18.249   8.396  0.00  0.00     0.000 A 
HETATM   26  C   UNK N   1      29.262  17.168   7.537  0.00  0.00     0.001 A 
HETATM   27  C   UNK N   1      30.547  16.644   7.375  0.00  0.00     0.014 A 
ENDBRANCH   2  22
TORSDOF 9
ENDMDL
MODEL 6
REMARK VINA RESULT:      -6.0      5.154     10.154
REMARK  9 active torsions:
REMARK  status: ('A' for Active; 'I' for Inactive)
REMARK    1  A    between atoms: C_13  and  C_11 
REMARK    2  A    between atoms: N_22  and  C_11 
REMARK    3  A    between atoms: C_14  and  C_12 
REMARK    4  A    between atoms: N_22  and  C_12 
REMARK    5  A    between atoms: O_23  and  C_13 
REMARK    6  A    between atoms: O_24  and  C_14 
REMARK    7  A    between atoms: C_17  and  C_15 
REMARK    8  A    between atoms: C_18  and  C_16 
REMARK    9  A    between atoms: N_22  and  C_19 
ROOT
HETATM    1  C   UNK N   1      36.257  11.575  13.950  0.00  0.00     0.080 A 
HETATM    2  C   UNK N   1      36.173  12.958  14.219  0.00  0.00     0.117 A 
HETATM    3  C   UNK N   1      35.993  12.654  12.124  0.00  0.00     0.227 A 
HETATM    4  N   UNK N   1      36.144  11.411  12.614  0.00  0.00    -0.319 N 
ATOM      5  HN  UNK N   1      36.170  10.536  12.092  1.00  0.00     0.169 HD
HETATM    6  O   UNK N   1      36.003  13.563  13.066  0.00  0.00    -0.276 OA
ENDROOT
BRANCH   3   7
HETATM    7  N   UNK N   1      35.898  12.951  10.742  0.00  0.00    -0.343 N 
BRANCH   7   8
HETATM    8  C   UNK N   1      34.598  13.132  10.144  0.00  0.00     0.152 C 
BRANCH   8   9
HETATM    9  C   UNK N   1      34.207  14.596  10.134  0.00  0.00     0.184 C 
BRANCH   9  10
HETATM   10  O   UNK N   1      33.617  14.918  11.355  0.00  0.00    -0.399 OA
HETATM   11  H   UNK N   1      32.716  15.272  11.422  0.00  0.00     0.209 HD
ENDBRANCH   9  10
ENDBRANCH   8   9
ENDBRANCH   7   8
BRANCH   7  12
HETATM   12  C   UNK N   1      37.042  12.710   9.895  0.00  0.00     0.152 C 
BRANCH  12  13
HETATM   13  C   UNK N   1      38.232  13.528  10.350  0.00  0.00     0.184 C 
BRANCH  13  14
HETATM   14  O   UNK N   1      37.960  14.881  10.147  0.00  0.00    -0.399 OA
HETATM   15  H   UNK N   1      38.493  15.395   9.521  0.00  0.00     0.209 HD
ENDBRANCH  13  14
ENDBRANCH  12  13
ENDBRANCH   7  12
ENDBRANCH   3   7
BRANCH   1  16
HETATM   16  C   UNK N   1      36.436  10.394  14.835  0.00  0.00    -0.006 A 
HETATM   17  C   UNK N   1      35.369   9.748  15.470  0.00  0.00     0.014 A 
HETATM   18  C   UNK N   1      35.588   8.633  16.284  0.00  0.00     0.001 A 
HETATM   19  C   UNK N   1      36.884   8.150  16.472  0.00  0.00     0.000 A 
HETATM   20  C   UNK N   1      37.959   8.777  15.840  0.00  0.00     0.001 A 
HETATM   21  C   UNK N   1      37.734   9.888  15.024  0.00  0.00     0.014 A 
ENDBRANCH   1  16
BRANCH   2  22
HETATM   22  C   UNK N   1      36.306  13.756  15.465  0.00  0.00     0.000 A 
HETATM   23  C   UNK N   1      35.484  13.430  16.555  0.00  0.00     0.014 A 
HETATM   24  C   UNK N   1      35.523  14.183  17.732  0.00  0.00     0.001 A 
HETATM   25  C   UNK N   1      36.378  15.283  17.826  0.00  0.00     0.000 A 
HETATM   26  C   UNK N   1      37.194  15.623  16.745  0.00  0.00     0.001 A 
HETATM   27  C   UNK N   1      37.155  14.863  15.573  0.00  0.00     0.014 A 
ENDBRANCH   2  22
TORSDOF 9
ENDMDL
MODEL 7
REMARK VINA RESULT:      -5.8      3.900      6.375
REMARK  9 active torsions:
REMARK  status: ('A' for Active; 'I' for Inactive)
REMARK    1  A    between atoms: C_13  and  C_11 
REMARK    2  A    between atoms: N_22  and  C_11 
REMARK    3  A    between atoms: C_14  and  C_12 
REMARK    4  A    between atoms: N_22  and  C_12 
REMARK    5  A    between atoms: O_23  and  C_13 
REMARK    6  A    between atoms: O_24  and  C_14 
REMARK    7  A    between atoms: C_17  and  C_15 
REMARK    8  A    between atoms: C_18  and  C_16 
REMARK    9  A    between atoms: N_22  and  C_19 
ROOT
HETATM    1  C   UNK N   1      28.889  16.474   5.123  0.00  0.00     0.080 A 
HETATM    2  C   UNK N   1      28.303  17.748   5.280  0.00  0.00     0.117 A 
HETATM    3  C   UNK N   1      29.713  17.446   6.839  0.00  0.00     0.227 A 
HETATM    4  N   UNK N   1      29.776  16.306   6.128  0.00  0.00    -0.319 N 
ATOM      5  HN  UNK N   1      30.363  15.493   6.307  1.00  0.00     0.169 HD
HETATM    6  O   UNK N   1      28.853  18.296   6.339  0.00  0.00    -0.276 OA
ENDROOT
BRANCH   3   7
HETATM    7  N   UNK N   1      30.446  17.672   8.030  0.00  0.00    -0.343 N 
BRANCH   7   8
HETATM    8  C   UNK N   1      31.636  16.898   8.289  0.00  0.00     0.152 C 
BRANCH   8   9
HETATM    9  C   UNK N   1      32.861  17.788   8.330  0.00  0.00     0.184 C 
BRANCH   9  10
HETATM   10  O   UNK N   1      33.648  17.428   9.423  0.00  0.00    -0.399 OA
HETATM   11  H   UNK N   1      33.330  17.482  10.337  0.00  0.00     0.209 HD
ENDBRANCH   9  10
ENDBRANCH   8   9
ENDBRANCH   7   8
BRANCH   7  12
HETATM   12  C   UNK N   1      29.816  18.388   9.114  0.00  0.00     0.152 C 
BRANCH  12  13
HETATM   13  C   UNK N   1      28.636  17.612   9.659  0.00  0.00     0.184 C 
BRANCH  13  14
HETATM   14  O   UNK N   1      27.455  18.257   9.290  0.00  0.00    -0.399 OA
HETATM   15  H   UNK N   1      26.698  17.740   8.973  0.00  0.00     0.209 HD
ENDBRANCH  13  14
ENDBRANCH  12  13
ENDBRANCH   7  12
ENDBRANCH   3   7
BRANCH   1  16
HETATM   16  C   UNK N   1      28.689  15.399   4.115  0.00  0.00    -0.006 A 
HETATM   17  C   UNK N   1      28.729  15.630   2.736  0.00  0.00     0.014 A 
HETATM   18  C   UNK N   1      28.546  14.583   1.828  0.00  0.00     0.001 A 
HETATM   19  C   UNK N   1      28.321  13.286   2.294  0.00  0.00     0.000 A 
HETATM   20  C   UNK N   1      28.287  13.037   3.667  0.00  0.00     0.001 A 
HETATM   21  C   UNK N   1      28.475  14.086   4.570  0.00  0.00     0.014 A 
ENDBRANCH   1  16
BRANCH   2  22
HETATM   22  C   UNK N   1      27.222  18.460   4.551  0.00  0.00     0.000 A 
HETATM   23  C   UNK N   1      27.484  19.752   4.068  0.00  0.00     0.014 A 
HETATM   24  C   UNK N   1      26.486  20.493   3.427  0.00  0.00     0.001 A 
HETATM   25  C   UNK N   1      25.207  19.953   3.276  0.00  0.00     0.000 A 
HETATM   26  C   UNK N   1      24.932  18.673   3.760  0.00  0.00     0.001 A 
HETATM   27  C   UNK N   1      25.935  17.934   4.395  0.00  0.00     0.014 A 
ENDBRANCH   2  22
TORSDOF 9
ENDMDL
MODEL 8
REMARK VINA RESULT:      -5.8      4.968     10.112
REMARK  9 active torsions:
REMARK  status: ('A' for Active; 'I' for Inactive)
REMARK    1  A    between atoms: C_13  and  C_11 
REMARK    2  A    between atoms: N_22  and  C_11 
REMARK    3  A    between atoms: C_14  and  C_12 
REMARK    4  A    between atoms: N_22  and  C_12 
REMARK    5  A    between atoms: O_23  and  C_13 
REMARK    6  A    between atoms: O_24  and  C_14 
REMARK    7  A    between atoms: C_17  and  C_15 
REMARK    8  A    between atoms: C_18  and  C_16 
REMARK    9  A    between atoms: N_22  and  C_19 
ROOT
HETATM    1  C   UNK N   1      36.537  11.787  13.740  0.00  0.00     0.080 A 
HETATM    2  C   UNK N   1      36.193  13.103  14.116  0.00  0.00     0.117 A 
HETATM    3  C   UNK N   1      35.775  12.849  12.050  0.00  0.00     0.227 A 
HETATM    4  N   UNK N   1      36.266  11.654  12.424  0.00  0.00    -0.319 N 
ATOM      5  HN  UNK N   1      36.404  10.829  11.842  1.00  0.00     0.169 HD
HETATM    6  O   UNK N   1      35.725  13.698  13.044  0.00  0.00    -0.276 OA
ENDROOT
BRANCH   3   7
HETATM    7  N   UNK N   1      35.413  13.170  10.718  0.00  0.00    -0.343 N 
BRANCH   7   8
HETATM    8  C   UNK N   1      34.434  12.359  10.034  0.00  0.00     0.152 C 
BRANCH   8   9
HETATM    9  C   UNK N   1      33.682  13.174   9.003  0.00  0.00     0.184 C 
BRANCH   9  10
HETATM   10  O   UNK N   1      32.314  12.952   9.155  0.00  0.00    -0.399 OA
HETATM   11  H   UNK N   1      31.649  13.389   8.602  0.00  0.00     0.209 HD
ENDBRANCH   9  10
ENDBRANCH   8   9
ENDBRANCH   7   8
BRANCH   7  12
HETATM   12  C   UNK N   1      36.266  14.048   9.954  0.00  0.00     0.152 C 
BRANCH  12  13
HETATM   13  C   UNK N   1      35.947  15.499  10.246  0.00  0.00     0.184 C 
BRANCH  13  14
HETATM   14  O   UNK N   1      36.910  16.013  11.114  0.00  0.00    -0.399 OA
HETATM   15  H   UNK N   1      37.787  16.254  10.779  0.00  0.00     0.209 HD
ENDBRANCH  13  14
ENDBRANCH  12  13
ENDBRANCH   7  12
ENDBRANCH   3   7
BRANCH   1  16
HETATM   16  C   UNK N   1      37.100  10.643  14.506  0.00  0.00    -0.006 A 
HETATM   17  C   UNK N   1      38.363  10.100  14.246  0.00  0.00     0.014 A 
HETATM   18  C   UNK N   1      38.854   9.031  15.001  0.00  0.00     0.001 A 
HETATM   19  C   UNK N   1      38.081   8.492  16.032  0.00  0.00     0.000 A 
HETATM   20  C   UNK N   1      36.823   9.027  16.310  0.00  0.00     0.001 A 
HETATM   21  C   UNK N   1      36.339  10.098  15.555  0.00  0.00     0.014 A 
ENDBRANCH   1  16
BRANCH   2  22
HETATM   22  C   UNK N   1      36.332  13.860  15.387  0.00  0.00     0.000 A 
HETATM   23  C   UNK N   1      35.505  13.509  16.466  0.00  0.00     0.014 A 
HETATM   24  C   UNK N   1      35.550  14.225  17.665  0.00  0.00     0.001 A 
HETATM   25  C   UNK N   1      36.415  15.313  17.794  0.00  0.00     0.000 A 
HETATM   26  C   UNK N   1      37.236  15.678  16.725  0.00  0.00     0.001 A 
HETATM   27  C   UNK N   1      37.191  14.955  15.530  0.00  0.00     0.014 A 
ENDBRANCH   2  22
TORSDOF 9
ENDMDL
MODEL 9
REMARK VINA RESULT:      -5.8      3.215      5.305
REMARK  9 active torsions:
REMARK  status: ('A' for Active; 'I' for Inactive)
REMARK    1  A    between atoms: C_13  and  C_11 
REMARK    2  A    between atoms: N_22  and  C_11 
REMARK    3  A    between atoms: C_14  and  C_12 
REMARK    4  A    between atoms: N_22  and  C_12 
REMARK    5  A    between atoms: O_23  and  C_13 
REMARK    6  A    between atoms: O_24  and  C_14 
REMARK    7  A    between atoms: C_17  and  C_15 
REMARK    8  A    between atoms: C_18  and  C_16 
REMARK    9  A    between atoms: N_22  and  C_19 
ROOT
HETATM    1  C   UNK N   1      29.293  16.117   5.545  0.00  0.00     0.080 A 
HETATM    2  C   UNK N   1      29.341  17.438   6.038  0.00  0.00     0.117 A 
HETATM    3  C   UNK N   1      30.990  16.353   6.821  0.00  0.00     0.227 A 
HETATM    4  N   UNK N   1      30.347  15.449   6.061  0.00  0.00    -0.319 N 
ATOM      5  HN  UNK N   1      30.598  14.473   5.908  1.00  0.00     0.169 HD
HETATM    6  O   UNK N   1      30.405  17.523   6.803  0.00  0.00    -0.276 OA
ENDROOT
BRANCH   3   7
HETATM    7  N   UNK N   1      32.134  16.054   7.602  0.00  0.00    -0.343 N 
BRANCH   7   8
HETATM    8  C   UNK N   1      33.395  15.806   6.946  0.00  0.00     0.152 C 
BRANCH   8   9
HETATM    9  C   UNK N   1      33.768  16.959   6.038  0.00  0.00     0.184 C 
BRANCH   9  10
HETATM   10  O   UNK N   1      34.440  17.927   6.782  0.00  0.00    -0.399 OA
HETATM   11  H   UNK N   1      35.269  18.334   6.484  0.00  0.00     0.209 HD
ENDBRANCH   9  10
ENDBRANCH   8   9
ENDBRANCH   7   8
BRANCH   7  12
HETATM   12  C   UNK N   1      31.957  15.648   8.976  0.00  0.00     0.152 C 
BRANCH  12  13
HETATM   13  C   UNK N   1      33.269  15.188   9.576  0.00  0.00     0.184 C 
BRANCH  13  14
HETATM   14  O   UNK N   1      33.110  15.027  10.952  0.00  0.00    -0.399 OA
HETATM   15  H   UNK N   1      32.644  15.701  11.470  0.00  0.00     0.209 HD
ENDBRANCH  13  14
ENDBRANCH  12  13
ENDBRANCH   7  12
ENDBRANCH   3   7
BRANCH   1  16
HETATM   16  C   UNK N   1      28.342  15.424   4.635  0.00  0.00    -0.006 A 
HETATM   17  C   UNK N   1      27.356  14.542   5.091  0.00  0.00     0.014 A 
HETATM   18  C   UNK N   1      26.479  13.922   4.197  0.00  0.00     0.001 A 
HETATM   19  C   UNK N   1      26.578  14.182   2.828  0.00  0.00     0.000 A 
HETATM   20  C   UNK N   1      27.550  15.066   2.357  0.00  0.00     0.001 A 
HETATM   21  C   UNK N   1      28.422  15.685   3.256  0.00  0.00     0.014 A 
ENDBRANCH   1  16
BRANCH   2  22
HETATM   22  C   UNK N   1      28.431  18.604   5.897  0.00  0.00     0.000 A 
HETATM   23  C   UNK N   1      28.120  19.053   4.604  0.00  0.00     0.014 A 
HETATM   24  C   UNK N   1      27.317  20.181   4.411  0.00  0.00     0.001 A 
HETATM   25  C   UNK N   1      26.829  20.884   5.514  0.00  0.00     0.000 A 
HETATM   26  C   UNK N   1      27.140  20.453   6.806  0.00  0.00     0.001 A 
HETATM   27  C   UNK N   1      27.938  19.321   6.992  0.00  0.00     0.014 A 
ENDBRANCH   2  22
TORSDOF 9
ENDMDL
