MODEL 1
REMARK VINA RESULT:      -6.7      0.000      0.000
REMARK  4 active torsions:
REMARK  status: ('A' for Active; 'I' for Inactive)
REMARK    1  A    between atoms: C_14  and  C_9 
REMARK    2  A    between atoms: C_15  and  C_9 
REMARK    3  A    between atoms: N_21  and  C_14 
REMARK    4  A    between atoms: N_22  and  C_15 
ROOT
HETATM    1  C   UNK N   1      28.592  15.856   5.392  0.00  0.00     0.025 C 
HETATM    2  C   UNK N   1      28.546  18.270   4.847  0.00  0.00     0.025 C 
HETATM    3  C   UNK N   1      28.140  17.989   9.103  0.00  0.00     0.001 A 
HETATM    4  C   UNK N   1      32.025  16.671   2.924  0.00  0.00     0.001 A 
HETATM    5  C   UNK N   1      29.341  18.131   9.793  0.00  0.00     0.002 A 
HETATM    6  C   UNK N   1      33.196  16.825   3.662  0.00  0.00     0.002 A 
HETATM    7  C   UNK N   1      28.150  17.680   7.744  0.00  0.00     0.010 A 
HETATM    8  C   UNK N   1      30.785  16.785   3.552  0.00  0.00     0.010 A 
HETATM    9  C   UNK N   1      30.553  17.964   9.122  0.00  0.00     0.030 A 
HETATM   10  C   UNK N   1      33.126  17.089   5.029  0.00  0.00     0.030 A 
HETATM   11  C   UNK N   1      29.364  17.516   7.049  0.00  0.00    -0.019 A 
HETATM   12  C   UNK N   1      30.696  17.060   4.930  0.00  0.00    -0.019 A 
HETATM   13  C   UNK N   1      30.584  17.659   7.748  0.00  0.00     0.042 A 
HETATM   14  C   UNK N   1      31.883  17.210   5.679  0.00  0.00     0.042 A 
HETATM   15  C   UNK N   1      29.327  17.179   5.571  0.00  0.00     0.011 A 
HETATM   16  N   UNK N   1      31.837  17.486   7.079  0.00  0.00    -0.346 N 
ENDROOT
BRANCH  16  17
HETATM   17  C   UNK N   1      33.075  17.516   7.833  0.00  0.00     0.131 C 
BRANCH  17  18
HETATM   18  C   UNK N   1      33.350  16.177   8.486  0.00  0.00     0.050 C 
BRANCH  18  19
HETATM   19  C   UNK N   1      34.853  16.018   8.640  0.00  0.00     0.273 C 
BRANCH  19  20
HETATM   20  N   UNK N   1      35.171  15.440   9.937  0.00  0.00     0.080 N 
HETATM   21  C   UNK N   1      33.940  14.886  10.467  0.00  0.00     0.309 C 
HETATM   22  C   UNK N   1      35.564  16.514  10.835  0.00  0.00     0.309 C 
ENDBRANCH  19  20
ENDBRANCH  18  19
ENDBRANCH  17  18
ENDBRANCH  16  17
TORSDOF 4
ENDMDL
MODEL 2
REMARK VINA RESULT:      -6.7      2.178      5.649
REMARK  4 active torsions:
REMARK  status: ('A' for Active; 'I' for Inactive)
REMARK    1  A    between atoms: C_14  and  C_9 
REMARK    2  A    between atoms: C_15  and  C_9 
REMARK    3  A    between atoms: N_21  and  C_14 
REMARK    4  A    between atoms: N_22  and  C_15 
ROOT
HETATM    1  C   UNK N   1      32.905  18.131   7.911  0.00  0.00     0.025 C 
HETATM    2  C   UNK N   1      32.411  15.706   7.970  0.00  0.00     0.025 C 
HETATM    3  C   UNK N   1      29.113  17.655   9.891  0.00  0.00     0.001 A 
HETATM    4  C   UNK N   1      33.364  16.637   3.898  0.00  0.00     0.001 A 
HETATM    5  C   UNK N   1      28.031  17.890   9.046  0.00  0.00     0.002 A 
HETATM    6  C   UNK N   1      32.248  16.880   3.102  0.00  0.00     0.002 A 
HETATM    7  C   UNK N   1      30.370  17.386   9.352  0.00  0.00     0.010 A 
HETATM    8  C   UNK N   1      33.255  16.697   5.287  0.00  0.00     0.010 A 
HETATM    9  C   UNK N   1      28.207  17.859   7.663  0.00  0.00     0.030 A 
HETATM   10  C   UNK N   1      31.025  17.187   3.694  0.00  0.00     0.030 A 
HETATM   11  C   UNK N   1      30.565  17.343   7.958  0.00  0.00    -0.019 A 
HETATM   12  C   UNK N   1      32.025  16.998   5.903  0.00  0.00    -0.019 A 
HETATM   13  C   UNK N   1      29.468  17.583   7.100  0.00  0.00     0.042 A 
HETATM   14  C   UNK N   1      30.895  17.249   5.095  0.00  0.00     0.042 A 
HETATM   15  C   UNK N   1      31.950  17.050   7.417  0.00  0.00     0.011 A 
HETATM   16  N   UNK N   1      29.630  17.561   5.678  0.00  0.00    -0.346 N 
ENDROOT
BRANCH  16  17
HETATM   17  C   UNK N   1      28.526  17.927   4.813  0.00  0.00     0.131 C 
BRANCH  17  18
HETATM   18  C   UNK N   1      28.330  19.429   4.784  0.00  0.00     0.050 C 
BRANCH  18  19
HETATM   19  C   UNK N   1      27.216  19.749   3.802  0.00  0.00     0.273 C 
BRANCH  19  20
HETATM   20  N   UNK N   1      26.112  20.407   4.484  0.00  0.00     0.080 N 
HETATM   21  C   UNK N   1      26.643  20.951   5.719  0.00  0.00     0.309 C 
HETATM   22  C   UNK N   1      25.137  19.396   4.861  0.00  0.00     0.309 C 
ENDBRANCH  19  20
ENDBRANCH  18  19
ENDBRANCH  17  18
ENDBRANCH  16  17
TORSDOF 4
ENDMDL
MODEL 3
REMARK VINA RESULT:      -6.6      2.153      6.995
REMARK  4 active torsions:
REMARK  status: ('A' for Active; 'I' for Inactive)
REMARK    1  A    between atoms: C_14  and  C_9 
REMARK    2  A    between atoms: C_15  and  C_9 
REMARK    3  A    between atoms: N_21  and  C_14 
REMARK    4  A    between atoms: N_22  and  C_15 
ROOT
HETATM    1  C   UNK N   1      32.376  15.737   8.001  0.00  0.00     0.025 C 
HETATM    2  C   UNK N   1      32.997  18.132   7.911  0.00  0.00     0.025 C 
HETATM    3  C   UNK N   1      33.382  16.635   3.914  0.00  0.00     0.001 A 
HETATM    4  C   UNK N   1      29.209  17.949   9.903  0.00  0.00     0.001 A 
HETATM    5  C   UNK N   1      32.260  16.860   3.120  0.00  0.00     0.002 A 
HETATM    6  C   UNK N   1      28.121  18.164   9.062  0.00  0.00     0.002 A 
HETATM    7  C   UNK N   1      33.279  16.713   5.302  0.00  0.00     0.010 A 
HETATM    8  C   UNK N   1      30.448  17.603   9.365  0.00  0.00     0.010 A 
HETATM    9  C   UNK N   1      31.035  17.161   3.715  0.00  0.00     0.030 A 
HETATM   10  C   UNK N   1      28.271  18.029   7.683  0.00  0.00     0.030 A 
HETATM   11  C   UNK N   1      32.051  17.024   5.919  0.00  0.00    -0.019 A 
HETATM   12  C   UNK N   1      30.620  17.470   7.974  0.00  0.00    -0.019 A 
HETATM   13  C   UNK N   1      30.912  17.251   5.115  0.00  0.00     0.042 A 
HETATM   14  C   UNK N   1      29.515  17.683   7.122  0.00  0.00     0.042 A 
HETATM   15  C   UNK N   1      31.986  17.096   7.432  0.00  0.00     0.011 A 
HETATM   16  N   UNK N   1      29.646  17.556   5.706  0.00  0.00    -0.346 N 
ENDROOT
BRANCH  16  17
HETATM   17  C   UNK N   1      28.462  17.667   4.876  0.00  0.00     0.131 C 
BRANCH  17  18
HETATM   18  C   UNK N   1      28.172  19.112   4.527  0.00  0.00     0.050 C 
BRANCH  18  19
HETATM   19  C   UNK N   1      26.874  19.164   3.739  0.00  0.00     0.273 C 
BRANCH  19  20
HETATM   20  N   UNK N   1      26.182  20.420   3.986  0.00  0.00     0.080 N 
HETATM   21  C   UNK N   1      26.213  20.646   5.418  0.00  0.00     0.309 C 
HETATM   22  C   UNK N   1      24.783  20.252   3.623  0.00  0.00     0.309 C 
ENDBRANCH  19  20
ENDBRANCH  18  19
ENDBRANCH  17  18
ENDBRANCH  16  17
TORSDOF 4
ENDMDL
MODEL 4
REMARK VINA RESULT:      -6.6      0.561      4.087
REMARK  4 active torsions:
REMARK  status: ('A' for Active; 'I' for Inactive)
REMARK    1  A    between atoms: C_14  and  C_9 
REMARK    2  A    between atoms: C_15  and  C_9 
REMARK    3  A    between atoms: N_21  and  C_14 
REMARK    4  A    between atoms: N_22  and  C_15 
ROOT
HETATM    1  C   UNK N   1      28.504  18.314   4.894  0.00  0.00     0.025 C 
HETATM    2  C   UNK N   1      28.491  15.895   5.417  0.00  0.00     0.025 C 
HETATM    3  C   UNK N   1      31.864  16.557   2.858  0.00  0.00     0.001 A 
HETATM    4  C   UNK N   1      28.230  17.935   9.175  0.00  0.00     0.001 A 
HETATM    5  C   UNK N   1      33.062  16.735   3.544  0.00  0.00     0.002 A 
HETATM    6  C   UNK N   1      29.457  18.101   9.811  0.00  0.00     0.002 A 
HETATM    7  C   UNK N   1      30.650  16.709   3.527  0.00  0.00     0.010 A 
HETATM    8  C   UNK N   1      28.184  17.645   7.812  0.00  0.00     0.010 A 
HETATM    9  C   UNK N   1      33.047  17.066   4.899  0.00  0.00     0.030 A 
HETATM   10  C   UNK N   1      30.639  17.981   9.082  0.00  0.00     0.030 A 
HETATM   11  C   UNK N   1      30.616  17.036   4.897  0.00  0.00    -0.019 A 
HETATM   12  C   UNK N   1      29.369  17.512   7.062  0.00  0.00    -0.019 A 
HETATM   13  C   UNK N   1      31.832  17.217   5.594  0.00  0.00     0.042 A 
HETATM   14  C   UNK N   1      30.613  17.686   7.706  0.00  0.00     0.042 A 
HETATM   15  C   UNK N   1      29.273  17.193   5.583  0.00  0.00     0.011 A 
HETATM   16  N   UNK N   1      31.837  17.562   6.982  0.00  0.00    -0.346 N 
ENDROOT
BRANCH  16  17
HETATM   17  C   UNK N   1      33.086  17.864   7.653  0.00  0.00     0.131 C 
BRANCH  17  18
HETATM   18  C   UNK N   1      33.761  16.601   8.147  0.00  0.00     0.050 C 
BRANCH  18  19
HETATM   19  C   UNK N   1      34.496  16.922   9.437  0.00  0.00     0.273 C 
BRANCH  19  20
HETATM   20  N   UNK N   1      34.770  15.703  10.182  0.00  0.00     0.080 N 
HETATM   21  C   UNK N   1      35.657  16.062  11.271  0.00  0.00     0.309 C 
HETATM   22  C   UNK N   1      35.516  14.798   9.321  0.00  0.00     0.309 C 
ENDBRANCH  19  20
ENDBRANCH  18  19
ENDBRANCH  17  18
ENDBRANCH  16  17
TORSDOF 4
ENDMDL
MODEL 5
REMARK VINA RESULT:      -6.5      7.394     12.668
REMARK  4 active torsions:
REMARK  status: ('A' for Active; 'I' for Inactive)
REMARK    1  A    between atoms: C_14  and  C_9 
REMARK    2  A    between atoms: C_15  and  C_9 
REMARK    3  A    between atoms: N_21  and  C_14 
REMARK    4  A    between atoms: N_22  and  C_15 
ROOT
HETATM    1  C   UNK N   1      34.321   8.943  18.439  0.00  0.00     0.025 C 
HETATM    2  C   UNK N   1      36.786   9.157  18.512  0.00  0.00     0.025 C 
HETATM    3  C   UNK N   1      35.847   7.324  14.754  0.00  0.00     0.001 A 
HETATM    4  C   UNK N   1      35.218  13.033  19.448  0.00  0.00     0.001 A 
HETATM    5  C   UNK N   1      35.764   8.224  13.696  0.00  0.00     0.002 A 
HETATM    6  C   UNK N   1      35.141  13.888  18.352  0.00  0.00     0.002 A 
HETATM    7  C   UNK N   1      35.767   7.785  16.068  0.00  0.00     0.010 A 
HETATM    8  C   UNK N   1      35.339  11.657  19.252  0.00  0.00     0.010 A 
HETATM    9  C   UNK N   1      35.601   9.586  13.950  0.00  0.00     0.030 A 
HETATM   10  C   UNK N   1      35.182  13.367  17.060  0.00  0.00     0.030 A 
HETATM   11  C   UNK N   1      35.609   9.158  16.343  0.00  0.00    -0.019 A 
HETATM   12  C   UNK N   1      35.389  11.114  17.954  0.00  0.00    -0.019 A 
HETATM   13  C   UNK N   1      35.525  10.072  15.269  0.00  0.00     0.042 A 
HETATM   14  C   UNK N   1      35.307  11.981  16.843  0.00  0.00     0.042 A 
HETATM   15  C   UNK N   1      35.525   9.613  17.787  0.00  0.00     0.011 A 
HETATM   16  N   UNK N   1      35.352  11.472  15.510  0.00  0.00    -0.346 N 
ENDROOT
BRANCH  16  17
HETATM   17  C   UNK N   1      35.145  12.382  14.400  0.00  0.00     0.131 C 
BRANCH  17  18
HETATM   18  C   UNK N   1      36.458  12.971  13.924  0.00  0.00     0.050 C 
BRANCH  18  19
HETATM   19  C   UNK N   1      36.198  14.384  13.431  0.00  0.00     0.273 C 
BRANCH  19  20
HETATM   20  N   UNK N   1      35.764  14.364  12.043  0.00  0.00     0.080 N 
HETATM   21  C   UNK N   1      36.804  13.695  11.284  0.00  0.00     0.309 C 
HETATM   22  C   UNK N   1      35.714  15.735  11.558  0.00  0.00     0.309 C 
ENDBRANCH  19  20
ENDBRANCH  18  19
ENDBRANCH  17  18
ENDBRANCH  16  17
TORSDOF 4
ENDMDL
MODEL 6
REMARK VINA RESULT:      -6.2     10.627     13.564
REMARK  4 active torsions:
REMARK  status: ('A' for Active; 'I' for Inactive)
REMARK    1  A    between atoms: C_14  and  C_9 
REMARK    2  A    between atoms: C_15  and  C_9 
REMARK    3  A    between atoms: N_21  and  C_14 
REMARK    4  A    between atoms: N_22  and  C_15 
ROOT
HETATM    1  C   UNK N   1      34.209  11.536  14.631  0.00  0.00     0.025 C 
HETATM    2  C   UNK N   1      36.674  11.740  14.723  0.00  0.00     0.025 C 
HETATM    3  C   UNK N   1      35.170  13.733  18.206  0.00  0.00     0.001 A 
HETATM    4  C   UNK N   1      35.837   7.583  14.112  0.00  0.00     0.001 A 
HETATM    5  C   UNK N   1      35.158  12.935  19.347  0.00  0.00     0.002 A 
HETATM    6  C   UNK N   1      35.820   6.835  15.286  0.00  0.00     0.002 A 
HETATM    7  C   UNK N   1      35.265  13.142  16.946  0.00  0.00     0.010 A 
HETATM    8  C   UNK N   1      35.715   8.971  14.169  0.00  0.00     0.010 A 
HETATM    9  C   UNK N   1      35.240  11.548  19.229  0.00  0.00     0.030 A 
HETATM   10  C   UNK N   1      35.679   7.475  16.516  0.00  0.00     0.030 A 
HETATM   11  C   UNK N   1      35.356  11.744  16.808  0.00  0.00    -0.019 A 
HETATM   12  C   UNK N   1      35.580   9.635  15.403  0.00  0.00    -0.019 A 
HETATM   13  C   UNK N   1      35.343  10.934  17.966  0.00  0.00     0.042 A 
HETATM   14  C   UNK N   1      35.558   8.876  16.593  0.00  0.00     0.042 A 
HETATM   15  C   UNK N   1      35.455  11.146  15.419  0.00  0.00     0.011 A 
HETATM   16  N   UNK N   1      35.420   9.509  17.864  0.00  0.00    -0.346 N 
ENDROOT
BRANCH  16  17
HETATM   17  C   UNK N   1      35.284   8.685  19.051  0.00  0.00     0.131 C 
BRANCH  17  18
HETATM   18  C   UNK N   1      33.825   8.452  19.389  0.00  0.00     0.050 C 
BRANCH  18  19
HETATM   19  C   UNK N   1      33.708   8.248  20.890  0.00  0.00     0.273 C 
BRANCH  19  20
HETATM   20  N   UNK N   1      32.374   8.606  21.347  0.00  0.00     0.080 N 
HETATM   21  C   UNK N   1      31.526   8.668  20.173  0.00  0.00     0.309 C 
HETATM   22  C   UNK N   1      32.423   9.952  21.896  0.00  0.00     0.309 C 
ENDBRANCH  19  20
ENDBRANCH  18  19
ENDBRANCH  17  18
ENDBRANCH  16  17
TORSDOF 4
ENDMDL
MODEL 7
REMARK VINA RESULT:      -6.1      2.221      6.816
REMARK  4 active torsions:
REMARK  status: ('A' for Active; 'I' for Inactive)
REMARK    1  A    between atoms: C_14  and  C_9 
REMARK    2  A    between atoms: C_15  and  C_9 
REMARK    3  A    between atoms: N_21  and  C_14 
REMARK    4  A    between atoms: N_22  and  C_15 
ROOT
HETATM    1  C   UNK N   1      32.236  15.641   7.929  0.00  0.00     0.025 C 
HETATM    2  C   UNK N   1      33.017  17.986   7.779  0.00  0.00     0.025 C 
HETATM    3  C   UNK N   1      33.463  16.315   3.859  0.00  0.00     0.001 A 
HETATM    4  C   UNK N   1      29.147  18.125   9.613  0.00  0.00     0.001 A 
HETATM    5  C   UNK N   1      32.391  16.580   3.010  0.00  0.00     0.002 A 
HETATM    6  C   UNK N   1      28.110  18.376   8.719  0.00  0.00     0.002 A 
HETATM    7  C   UNK N   1      33.309  16.453   5.238  0.00  0.00     0.010 A 
HETATM    8  C   UNK N   1      30.382  17.679   9.142  0.00  0.00     0.010 A 
HETATM    9  C   UNK N   1      31.166  16.983   3.541  0.00  0.00     0.030 A 
HETATM   10  C   UNK N   1      28.307  18.179   7.354  0.00  0.00     0.030 A 
HETATM   11  C   UNK N   1      32.081  16.865   5.790  0.00  0.00    -0.019 A 
HETATM   12  C   UNK N   1      30.600  17.482   7.765  0.00  0.00    -0.019 A 
HETATM   13  C   UNK N   1      30.993  17.134   4.930  0.00  0.00     0.042 A 
HETATM   14  C   UNK N   1      29.548  17.732   6.859  0.00  0.00     0.042 A 
HETATM   15  C   UNK N   1      31.959  17.000   7.295  0.00  0.00     0.011 A 
HETATM   16  N   UNK N   1      29.726  17.543   5.456  0.00  0.00    -0.346 N 
ENDROOT
BRANCH  16  17
HETATM   17  C   UNK N   1      28.587  17.697   4.572  0.00  0.00     0.131 C 
BRANCH  17  18
HETATM   18  C   UNK N   1      27.808  16.403   4.452  0.00  0.00     0.050 C 
BRANCH  18  19
HETATM   19  C   UNK N   1      27.735  16.022   2.984  0.00  0.00     0.273 C 
BRANCH  19  20
HETATM   20  N   UNK N   1      26.830  14.898   2.796  0.00  0.00     0.080 N 
HETATM   21  C   UNK N   1      27.594  13.840   2.165  0.00  0.00     0.309 C 
HETATM   22  C   UNK N   1      25.801  15.291   1.846  0.00  0.00     0.309 C 
ENDBRANCH  19  20
ENDBRANCH  18  19
ENDBRANCH  17  18
ENDBRANCH  16  17
TORSDOF 4
ENDMDL
MODEL 8
REMARK VINA RESULT:      -5.9     10.741     14.068
REMARK  4 active torsions:
REMARK  status: ('A' for Active; 'I' for Inactive)
REMARK    1  A    between atoms: C_14  and  C_9 
REMARK    2  A    between atoms: C_15  and  C_9 
REMARK    3  A    between atoms: N_21  and  C_14 
REMARK    4  A    between atoms: N_22  and  C_15 
ROOT
HETATM    1  C   UNK N   1      36.916  11.577  14.890  0.00  0.00     0.025 C 
HETATM    2  C   UNK N   1      34.453  11.492  14.650  0.00  0.00     0.025 C 
HETATM    3  C   UNK N   1      35.821   7.435  14.481  0.00  0.00     0.001 A 
HETATM    4  C   UNK N   1      35.238  13.867  18.128  0.00  0.00     0.001 A 
HETATM    5  C   UNK N   1      35.760   6.771  15.704  0.00  0.00     0.002 A 
HETATM    6  C   UNK N   1      35.181  13.152  19.321  0.00  0.00     0.002 A 
HETATM    7  C   UNK N   1      35.778   8.828  14.443  0.00  0.00     0.010 A 
HETATM    8  C   UNK N   1      35.384  13.192  16.917  0.00  0.00     0.010 A 
HETATM    9  C   UNK N   1      35.657   7.500  16.888  0.00  0.00     0.030 A 
HETATM   10  C   UNK N   1      35.274  11.761  19.303  0.00  0.00     0.030 A 
HETATM   11  C   UNK N   1      35.666   9.580  15.629  0.00  0.00    -0.019 A 
HETATM   12  C   UNK N   1      35.471  11.787  16.879  0.00  0.00    -0.019 A 
HETATM   13  C   UNK N   1      35.605   8.907  16.870  0.00  0.00     0.042 A 
HETATM   14  C   UNK N   1      35.418  11.062  18.089  0.00  0.00     0.042 A 
HETATM   15  C   UNK N   1      35.625  11.093  15.540  0.00  0.00     0.011 A 
HETATM   16  N   UNK N   1      35.505   9.638  18.096  0.00  0.00    -0.346 N 
ENDROOT
BRANCH  16  17
HETATM   17  C   UNK N   1      35.566   8.941  19.367  0.00  0.00     0.131 C 
BRANCH  17  18
HETATM   18  C   UNK N   1      34.179   8.720  19.936  0.00  0.00     0.050 C 
BRANCH  18  19
HETATM   19  C   UNK N   1      34.260   8.822  21.449  0.00  0.00     0.273 C 
BRANCH  19  20
HETATM   20  N   UNK N   1      32.976   9.228  21.999  0.00  0.00     0.080 N 
HETATM   21  C   UNK N   1      31.965   8.868  21.023  0.00  0.00     0.309 C 
HETATM   22  C   UNK N   1      32.957  10.679  22.099  0.00  0.00     0.309 C 
ENDBRANCH  19  20
ENDBRANCH  18  19
ENDBRANCH  17  18
ENDBRANCH  16  17
TORSDOF 4
ENDMDL
MODEL 9
REMARK VINA RESULT:      -5.8      4.323      9.105
REMARK  4 active torsions:
REMARK  status: ('A' for Active; 'I' for Inactive)
REMARK    1  A    between atoms: C_14  and  C_9 
REMARK    2  A    between atoms: C_15  and  C_9 
REMARK    3  A    between atoms: N_21  and  C_14 
REMARK    4  A    between atoms: N_22  and  C_15 
ROOT
HETATM    1  C   UNK N   1      35.522   9.739  14.394  0.00  0.00     0.025 C 
HETATM    2  C   UNK N   1      33.355  10.878  14.758  0.00  0.00     0.025 C 
HETATM    3  C   UNK N   1      36.357  13.443  16.420  0.00  0.00     0.001 A 
HETATM    4  C   UNK N   1      33.487   9.849  10.601  0.00  0.00     0.001 A 
HETATM    5  C   UNK N   1      36.780  14.448  15.553  0.00  0.00     0.002 A 
HETATM    6  C   UNK N   1      33.932  10.882   9.780  0.00  0.00     0.002 A 
HETATM    7  C   UNK N   1      35.688  12.328  15.918  0.00  0.00     0.010 A 
HETATM    8  C   UNK N   1      33.742   9.889  11.971  0.00  0.00     0.010 A 
HETATM    9  C   UNK N   1      36.534  14.336  14.184  0.00  0.00     0.030 A 
HETATM   10  C   UNK N   1      34.635  11.953  10.330  0.00  0.00     0.030 A 
HETATM   11  C   UNK N   1      35.425  12.202  14.540  0.00  0.00    -0.019 A 
HETATM   12  C   UNK N   1      34.444  10.966  12.545  0.00  0.00    -0.019 A 
HETATM   13  C   UNK N   1      35.854  13.220  13.660  0.00  0.00     0.042 A 
HETATM   14  C   UNK N   1      34.899  12.011  11.712  0.00  0.00     0.042 A 
HETATM   15  C   UNK N   1      34.696  10.970  14.040  0.00  0.00     0.011 A 
HETATM   16  N   UNK N   1      35.616  13.120  12.252  0.00  0.00    -0.346 N 
ENDROOT
BRANCH  16  17
HETATM   17  C   UNK N   1      36.168  14.111  11.348  0.00  0.00     0.131 C 
BRANCH  17  18
HETATM   18  C   UNK N   1      35.225  15.286  11.184  0.00  0.00     0.050 C 
BRANCH  18  19
HETATM   19  C   UNK N   1      35.236  15.708   9.725  0.00  0.00     0.273 C 
BRANCH  19  20
HETATM   20  N   UNK N   1      34.069  16.523   9.425  0.00  0.00     0.080 N 
HETATM   21  C   UNK N   1      33.174  15.705   8.628  0.00  0.00     0.309 C 
HETATM   22  C   UNK N   1      34.486  17.628   8.576  0.00  0.00     0.309 C 
ENDBRANCH  19  20
ENDBRANCH  18  19
ENDBRANCH  17  18
ENDBRANCH  16  17
TORSDOF 4
ENDMDL
