MODEL 1
REMARK VINA RESULT:      -7.7      0.000      0.000
REMARK  3 active torsions:
REMARK  status: ('A' for Active; 'I' for Inactive)
REMARK    1  A    between atoms: C_7  and  C_1 
REMARK    2  A    between atoms: C_11  and  N_2 
REMARK    3  A    between atoms: C_10  and  C_4 
ROOT
HETATM    1  C   UNK N   1      30.141  23.489  -4.473  0.00  0.00     0.000 A 
HETATM    2  N   UNK N   1      28.164  23.010  -1.533  0.00  0.00    -0.191 NA
HETATM    3  C   UNK N   1      29.050  22.962  -2.277  0.00  0.00     0.100 C 
HETATM    4  C   UNK N   1      30.163  22.891  -3.186  0.00  0.00     0.055 A 
HETATM    5  C   UNK N   1      31.332  23.501  -5.227  0.00  0.00     0.014 A 
HETATM    6  C   UNK N   1      31.346  22.302  -2.718  0.00  0.00     0.023 A 
HETATM    7  C   UNK N   1      32.494  22.911  -4.758  0.00  0.00     0.001 A 
HETATM    8  C   UNK N   1      32.500  22.300  -3.507  0.00  0.00     0.002 A 
ENDROOT
BRANCH   1   9
HETATM    9  C   UNK N   1      28.965  24.183  -5.067  0.00  0.00     0.045 C 
HETATM   10  C   UNK N   1      28.443  25.439  -4.690  0.00  0.00     0.263 C 
HETATM   11  N   UNK N   1      27.402  26.004  -5.413  0.00  0.00    -0.288 N 
HETATM   12  O   UNK N   1      28.883  26.019  -3.715  0.00  0.00    -0.267 OA
HETATM   13  C   UNK N   1      26.738  25.266  -6.354  0.00  0.00     0.114 C 
HETATM   14  C   UNK N   1      27.169  23.976  -6.657  0.00  0.00     0.008 C 
HETATM   15  C   UNK N   1      28.303  23.493  -6.050  0.00  0.00     0.033 C 
BRANCH  11  16
HETATM   16  C   UNK N   1      27.118  27.417  -5.312  0.00  0.00     0.042 A 
HETATM   17  C   UNK N   1      26.254  27.856  -4.292  0.00  0.00     0.030 A 
HETATM   18  C   UNK N   1      26.201  29.193  -3.921  0.00  0.00     0.002 A 
HETATM   19  C   UNK N   1      27.008  30.122  -4.575  0.00  0.00     0.000 A 
HETATM   20  C   UNK N   1      27.843  29.715  -5.620  0.00  0.00     0.002 A 
HETATM   21  C   UNK N   1      27.918  28.365  -5.971  0.00  0.00     0.030 A 
ENDBRANCH  11  16
BRANCH  14  22
HETATM   22  C   UNK N   1      26.291  22.977  -7.255  0.00  0.00     0.043 A 
HETATM   23  N   UNK N   1      25.158  22.597  -6.608  0.00  0.00    -0.365 N 
HETATM   24  C   UNK N   1      24.537  21.428  -6.918  0.00  0.00     0.088 A 
ATOM     25  HN  UNK N   1      24.769  23.196  -5.881  1.00  0.00     0.165 HD
HETATM   26  C   UNK N   1      25.076  20.575  -7.887  0.00  0.00     0.017 A 
HETATM   27  C   UNK N   1      26.214  20.960  -8.586  0.00  0.00     0.004 A 
HETATM   28  C   UNK N   1      26.822  22.160  -8.271  0.00  0.00     0.030 A 
ENDBRANCH  14  22
ENDBRANCH   1   9
TORSDOF 3
ENDMDL
MODEL 2
REMARK VINA RESULT:      -7.7     15.298     17.899
REMARK  3 active torsions:
REMARK  status: ('A' for Active; 'I' for Inactive)
REMARK    1  A    between atoms: C_7  and  C_1 
REMARK    2  A    between atoms: C_11  and  N_2 
REMARK    3  A    between atoms: C_10  and  C_4 
ROOT
HETATM    1  C   UNK N   1      21.300  15.337   4.978  0.00  0.00     0.000 A 
HETATM    2  N   UNK N   1      24.652  15.825   6.120  0.00  0.00    -0.191 NA
HETATM    3  C   UNK N   1      23.749  15.645   5.417  0.00  0.00     0.100 C 
HETATM    4  C   UNK N   1      22.642  15.422   4.526  0.00  0.00     0.055 A 
HETATM    5  C   UNK N   1      20.271  15.273   4.016  0.00  0.00     0.014 A 
HETATM    6  C   UNK N   1      22.910  15.403   3.150  0.00  0.00     0.023 A 
HETATM    7  C   UNK N   1      20.547  15.250   2.659  0.00  0.00     0.001 A 
HETATM    8  C   UNK N   1      21.868  15.304   2.224  0.00  0.00     0.002 A 
ENDROOT
BRANCH   1   9
HETATM    9  C   UNK N   1      20.879  15.389   6.406  0.00  0.00     0.045 C 
HETATM   10  C   UNK N   1      20.448  16.526   7.120  0.00  0.00     0.263 C 
HETATM   11  N   UNK N   1      19.985  16.394   8.423  0.00  0.00    -0.288 N 
HETATM   12  O   UNK N   1      20.504  17.630   6.611  0.00  0.00    -0.267 OA
HETATM   13  C   UNK N   1      20.139  15.211   9.091  0.00  0.00     0.114 C 
HETATM   14  C   UNK N   1      20.674  14.105   8.432  0.00  0.00     0.008 C 
HETATM   15  C   UNK N   1      20.974  14.207   7.096  0.00  0.00     0.033 C 
BRANCH  11  16
HETATM   16  C   UNK N   1      19.185  17.434   9.028  0.00  0.00     0.042 A 
HETATM   17  C   UNK N   1      17.856  17.136   9.384  0.00  0.00     0.030 A 
HETATM   18  C   UNK N   1      17.147  17.950  10.259  0.00  0.00     0.002 A 
HETATM   19  C   UNK N   1      17.754  19.087  10.786  0.00  0.00     0.000 A 
HETATM   20  C   UNK N   1      19.058  19.426  10.413  0.00  0.00     0.002 A 
HETATM   21  C   UNK N   1      19.782  18.590   9.558  0.00  0.00     0.030 A 
ENDBRANCH  11  16
BRANCH  14  22
HETATM   22  C   UNK N   1      21.302  12.998   9.144  0.00  0.00     0.043 A 
HETATM   23  N   UNK N   1      21.176  12.902  10.493  0.00  0.00    -0.365 N 
HETATM   24  C   UNK N   1      22.038  12.144  11.222  0.00  0.00     0.088 A 
ATOM     25  HN  UNK N   1      20.424  13.404  10.965  1.00  0.00     0.165 HD
HETATM   26  C   UNK N   1      23.098  11.478  10.596  0.00  0.00     0.017 A 
HETATM   27  C   UNK N   1      23.225  11.533   9.214  0.00  0.00     0.004 A 
HETATM   28  C   UNK N   1      22.328  12.293   8.486  0.00  0.00     0.030 A 
ENDBRANCH  14  22
ENDBRANCH   1   9
TORSDOF 3
ENDMDL
MODEL 3
REMARK VINA RESULT:      -7.5     13.462     16.465
REMARK  3 active torsions:
REMARK  status: ('A' for Active; 'I' for Inactive)
REMARK    1  A    between atoms: C_7  and  C_1 
REMARK    2  A    between atoms: C_11  and  N_2 
REMARK    3  A    between atoms: C_10  and  C_4 
ROOT
HETATM    1  C   UNK N   1      33.824  15.723   9.191  0.00  0.00     0.000 A 
HETATM    2  N   UNK N   1      34.926  18.977   8.203  0.00  0.00    -0.191 NA
HETATM    3  C   UNK N   1      34.785  18.010   8.825  0.00  0.00     0.100 C 
HETATM    4  C   UNK N   1      34.625  16.816   9.612  0.00  0.00     0.055 A 
HETATM    5  C   UNK N   1      33.853  14.537   9.954  0.00  0.00     0.014 A 
HETATM    6  C   UNK N   1      35.388  16.704  10.782  0.00  0.00     0.023 A 
HETATM    7  C   UNK N   1      34.607  14.438  11.112  0.00  0.00     0.001 A 
HETATM    8  C   UNK N   1      35.367  15.525  11.535  0.00  0.00     0.002 A 
ENDROOT
BRANCH   1   9
HETATM    9  C   UNK N   1      33.003  15.699   7.949  0.00  0.00     0.045 C 
HETATM   10  C   UNK N   1      33.451  15.404   6.644  0.00  0.00     0.263 C 
HETATM   11  N   UNK N   1      32.539  15.317   5.600  0.00  0.00    -0.288 N 
HETATM   12  O   UNK N   1      34.637  15.250   6.421  0.00  0.00    -0.267 OA
HETATM   13  C   UNK N   1      31.246  15.722   5.781  0.00  0.00     0.114 C 
HETATM   14  C   UNK N   1      30.815  16.129   7.042  0.00  0.00     0.008 C 
HETATM   15  C   UNK N   1      31.686  16.051   8.101  0.00  0.00     0.033 C 
BRANCH  11  16
HETATM   16  C   UNK N   1      32.891  14.645   4.371  0.00  0.00     0.042 A 
HETATM   17  C   UNK N   1      33.484  15.398   3.340  0.00  0.00     0.030 A 
HETATM   18  C   UNK N   1      34.147  14.778   2.288  0.00  0.00     0.002 A 
HETATM   19  C   UNK N   1      34.221  13.388   2.243  0.00  0.00     0.000 A 
HETATM   20  C   UNK N   1      33.602  12.619   3.234  0.00  0.00     0.002 A 
HETATM   21  C   UNK N   1      32.962  13.243   4.308  0.00  0.00     0.030 A 
ENDBRANCH  11  16
BRANCH  14  22
HETATM   22  C   UNK N   1      29.656  16.995   7.232  0.00  0.00     0.043 A 
HETATM   23  N   UNK N   1      29.034  17.540   6.154  0.00  0.00    -0.365 N 
HETATM   24  C   UNK N   1      28.230  18.628   6.290  0.00  0.00     0.088 A 
ATOM     25  HN  UNK N   1      29.172  17.127   5.232  1.00  0.00     0.165 HD
HETATM   26  C   UNK N   1      28.058  19.230   7.540  0.00  0.00     0.017 A 
HETATM   27  C   UNK N   1      28.656  18.669   8.662  0.00  0.00     0.004 A 
HETATM   28  C   UNK N   1      29.456  17.552   8.510  0.00  0.00     0.030 A 
ENDBRANCH  14  22
ENDBRANCH   1   9
TORSDOF 3
ENDMDL
MODEL 4
REMARK VINA RESULT:      -7.5      1.750      6.635
REMARK  3 active torsions:
REMARK  status: ('A' for Active; 'I' for Inactive)
REMARK    1  A    between atoms: C_7  and  C_1 
REMARK    2  A    between atoms: C_11  and  N_2 
REMARK    3  A    between atoms: C_10  and  C_4 
ROOT
HETATM    1  C   UNK N   1      26.829  26.551  -4.989  0.00  0.00     0.000 A 
HETATM    2  N   UNK N   1      28.256  28.021  -7.918  0.00  0.00    -0.191 NA
HETATM    3  C   UNK N   1      27.715  27.911  -6.900  0.00  0.00     0.100 C 
HETATM    4  C   UNK N   1      27.041  27.797  -5.634  0.00  0.00     0.055 A 
HETATM    5  C   UNK N   1      26.300  26.554  -3.682  0.00  0.00     0.014 A 
HETATM    6  C   UNK N   1      26.690  28.984  -4.977  0.00  0.00     0.023 A 
HETATM    7  C   UNK N   1      25.952  27.733  -3.043  0.00  0.00     0.001 A 
HETATM    8  C   UNK N   1      26.136  28.950  -3.694  0.00  0.00     0.002 A 
ENDROOT
BRANCH   1   9
HETATM    9  C   UNK N   1      27.196  25.225  -5.559  0.00  0.00     0.045 C 
HETATM   10  C   UNK N   1      26.504  24.515  -6.563  0.00  0.00     0.263 C 
HETATM   11  N   UNK N   1      27.032  23.334  -7.068  0.00  0.00    -0.288 N 
HETATM   12  O   UNK N   1      25.431  24.917  -6.972  0.00  0.00    -0.267 OA
HETATM   13  C   UNK N   1      28.103  22.743  -6.457  0.00  0.00     0.114 C 
HETATM   14  C   UNK N   1      28.728  23.377  -5.384  0.00  0.00     0.008 C 
HETATM   15  C   UNK N   1      28.296  24.624  -5.004  0.00  0.00     0.033 C 
BRANCH  11  16
HETATM   16  C   UNK N   1      26.577  22.806  -8.333  0.00  0.00     0.042 A 
HETATM   17  C   UNK N   1      27.188  23.271  -9.512  0.00  0.00     0.030 A 
HETATM   18  C   UNK N   1      27.051  22.583 -10.711  0.00  0.00     0.002 A 
HETATM   19  C   UNK N   1      26.289  21.418 -10.755  0.00  0.00     0.000 A 
HETATM   20  C   UNK N   1      25.638  20.961  -9.605  0.00  0.00     0.002 A 
HETATM   21  C   UNK N   1      25.801  21.636  -8.392  0.00  0.00     0.030 A 
ENDBRANCH  11  16
BRANCH  14  22
HETATM   22  C   UNK N   1      29.526  22.651  -4.402  0.00  0.00     0.043 A 
HETATM   23  N   UNK N   1      29.914  23.268  -3.256  0.00  0.00    -0.365 N 
HETATM   24  C   UNK N   1      30.951  22.785  -2.521  0.00  0.00     0.088 A 
ATOM     25  HN  UNK N   1      29.422  24.105  -2.943  1.00  0.00     0.165 HD
HETATM   26  C   UNK N   1      31.662  21.660  -2.954  0.00  0.00     0.017 A 
HETATM   27  C   UNK N   1      31.260  20.993  -4.104  0.00  0.00     0.004 A 
HETATM   28  C   UNK N   1      30.192  21.486  -4.829  0.00  0.00     0.030 A 
ENDBRANCH  14  22
ENDBRANCH   1   9
TORSDOF 3
ENDMDL
MODEL 5
REMARK VINA RESULT:      -7.5     12.374     15.842
REMARK  3 active torsions:
REMARK  status: ('A' for Active; 'I' for Inactive)
REMARK    1  A    between atoms: C_7  and  C_1 
REMARK    2  A    between atoms: C_11  and  N_2 
REMARK    3  A    between atoms: C_10  and  C_4 
ROOT
HETATM    1  C   UNK N   1      21.281  16.486   2.875  0.00  0.00     0.000 A 
HETATM    2  N   UNK N   1      20.832  19.769   4.218  0.00  0.00    -0.191 NA
HETATM    3  C   UNK N   1      20.806  18.872   3.486  0.00  0.00     0.100 C 
HETATM    4  C   UNK N   1      20.762  17.770   2.562  0.00  0.00     0.055 A 
HETATM    5  C   UNK N   1      21.053  15.431   1.968  0.00  0.00     0.014 A 
HETATM    6  C   UNK N   1      20.076  17.962   1.355  0.00  0.00     0.023 A 
HETATM    7  C   UNK N   1      20.378  15.633   0.776  0.00  0.00     0.001 A 
HETATM    8  C   UNK N   1      19.897  16.901   0.462  0.00  0.00     0.002 A 
ENDROOT
BRANCH   1   9
HETATM    9  C   UNK N   1      21.990  16.141   4.139  0.00  0.00     0.045 C 
HETATM   10  C   UNK N   1      21.407  15.678   5.337  0.00  0.00     0.263 C 
HETATM   11  N   UNK N   1      22.215  15.295   6.400  0.00  0.00    -0.288 N 
HETATM   12  O   UNK N   1      20.197  15.636   5.456  0.00  0.00    -0.267 OA
HETATM   13  C   UNK N   1      23.556  15.562   6.375  0.00  0.00     0.114 C 
HETATM   14  C   UNK N   1      24.131  16.130   5.239  0.00  0.00     0.008 C 
HETATM   15  C   UNK N   1      23.346  16.349   4.134  0.00  0.00     0.033 C 
BRANCH  11  16
HETATM   16  C   UNK N   1      21.692  14.465   7.459  0.00  0.00     0.042 A 
HETATM   17  C   UNK N   1      22.067  13.109   7.496  0.00  0.00     0.030 A 
HETATM   18  C   UNK N   1      21.890  12.345   8.642  0.00  0.00     0.002 A 
HETATM   19  C   UNK N   1      21.322  12.924   9.775  0.00  0.00     0.000 A 
HETATM   20  C   UNK N   1      20.903  14.257   9.748  0.00  0.00     0.002 A 
HETATM   21  C   UNK N   1      21.110  15.034   8.604  0.00  0.00     0.030 A 
ENDBRANCH  11  16
BRANCH  14  22
HETATM   22  C   UNK N   1      25.390  16.865   5.284  0.00  0.00     0.043 A 
HETATM   23  N   UNK N   1      25.380  18.223   5.321  0.00  0.00    -0.365 N 
HETATM   24  C   UNK N   1      26.483  18.939   4.975  0.00  0.00     0.088 A 
ATOM     25  HN  UNK N   1      24.534  18.712   5.614  1.00  0.00     0.165 HD
HETATM   26  C   UNK N   1      27.640  18.287   4.535  0.00  0.00     0.017 A 
HETATM   27  C   UNK N   1      27.685  16.898   4.522  0.00  0.00     0.004 A 
HETATM   28  C   UNK N   1      26.561  16.186   4.896  0.00  0.00     0.030 A 
ENDBRANCH  14  22
ENDBRANCH   1   9
TORSDOF 3
ENDMDL
MODEL 6
REMARK VINA RESULT:      -7.5     12.932     15.892
REMARK  3 active torsions:
REMARK  status: ('A' for Active; 'I' for Inactive)
REMARK    1  A    between atoms: C_7  and  C_1 
REMARK    2  A    between atoms: C_11  and  N_2 
REMARK    3  A    between atoms: C_10  and  C_4 
ROOT
HETATM    1  C   UNK N   1      22.024  14.241   7.676  0.00  0.00     0.000 A 
HETATM    2  N   UNK N   1      20.263  17.215   8.588  0.00  0.00    -0.191 NA
HETATM    3  C   UNK N   1      20.684  16.137   8.624  0.00  0.00     0.100 C 
HETATM    4  C   UNK N   1      21.198  14.795   8.689  0.00  0.00     0.055 A 
HETATM    5  C   UNK N   1      22.606  12.977   7.902  0.00  0.00     0.014 A 
HETATM    6  C   UNK N   1      20.955  14.063   9.859  0.00  0.00     0.023 A 
HETATM    7  C   UNK N   1      22.355  12.259   9.060  0.00  0.00     0.001 A 
HETATM    8  C   UNK N   1      21.520  12.796  10.036  0.00  0.00     0.002 A 
ENDROOT
BRANCH   1   9
HETATM    9  C   UNK N   1      22.394  14.931   6.409  0.00  0.00     0.045 C 
HETATM   10  C   UNK N   1      21.667  14.926   5.200  0.00  0.00     0.263 C 
HETATM   11  N   UNK N   1      22.088  15.708   4.132  0.00  0.00    -0.288 N 
HETATM   12  O   UNK N   1      20.684  14.218   5.076  0.00  0.00    -0.267 OA
HETATM   13  C   UNK N   1      23.313  16.316   4.168  0.00  0.00     0.114 C 
HETATM   14  C   UNK N   1      24.098  16.232   5.316  0.00  0.00     0.008 C 
HETATM   15  C   UNK N   1      23.594  15.594   6.422  0.00  0.00     0.033 C 
BRANCH  11  16
HETATM   16  C   UNK N   1      21.183  16.032   3.055  0.00  0.00     0.042 A 
HETATM   17  C   UNK N   1      20.645  17.332   2.999  0.00  0.00     0.030 A 
HETATM   18  C   UNK N   1      20.054  17.815   1.839  0.00  0.00     0.002 A 
HETATM   19  C   UNK N   1      19.981  17.000   0.712  0.00  0.00     0.000 A 
HETATM   20  C   UNK N   1      20.470  15.691   0.758  0.00  0.00     0.002 A 
HETATM   21  C   UNK N   1      21.092  15.215   1.916  0.00  0.00     0.030 A 
ENDBRANCH  11  16
BRANCH  14  22
HETATM   22  C   UNK N   1      25.545  16.418   5.290  0.00  0.00     0.043 A 
HETATM   23  N   UNK N   1      26.248  16.420   6.453  0.00  0.00    -0.365 N 
HETATM   24  C   UNK N   1      27.492  16.965   6.514  0.00  0.00     0.088 A 
ATOM     25  HN  UNK N   1      25.837  16.006   7.289  1.00  0.00     0.165 HD
HETATM   26  C   UNK N   1      28.056  17.570   5.386  0.00  0.00     0.017 A 
HETATM   27  C   UNK N   1      27.370  17.548   4.178  0.00  0.00     0.004 A 
HETATM   28  C   UNK N   1      26.115  16.973   4.128  0.00  0.00     0.030 A 
ENDBRANCH  14  22
ENDBRANCH   1   9
TORSDOF 3
ENDMDL
MODEL 7
REMARK VINA RESULT:      -7.4     20.022     24.065
REMARK  3 active torsions:
REMARK  status: ('A' for Active; 'I' for Inactive)
REMARK    1  A    between atoms: C_7  and  C_1 
REMARK    2  A    between atoms: C_11  and  N_2 
REMARK    3  A    between atoms: C_10  and  C_4 
ROOT
HETATM    1  C   UNK N   1      34.062   9.683  11.926  0.00  0.00     0.000 A 
HETATM    2  N   UNK N   1      36.776   7.958  13.486  0.00  0.00    -0.191 NA
HETATM    3  C   UNK N   1      35.843   8.170  12.834  0.00  0.00     0.100 C 
HETATM    4  C   UNK N   1      34.685   8.412  12.015  0.00  0.00     0.055 A 
HETATM    5  C   UNK N   1      33.031   9.861  10.981  0.00  0.00     0.014 A 
HETATM    6  C   UNK N   1      34.241   7.366  11.194  0.00  0.00     0.023 A 
HETATM    7  C   UNK N   1      32.596   8.819  10.178  0.00  0.00     0.001 A 
HETATM    8  C   UNK N   1      33.193   7.566  10.291  0.00  0.00     0.002 A 
ENDROOT
BRANCH   1   9
HETATM    9  C   UNK N   1      34.466  10.885  12.709  0.00  0.00     0.045 C 
HETATM   10  C   UNK N   1      34.164  11.155  14.060  0.00  0.00     0.263 C 
HETATM   11  N   UNK N   1      34.705  12.273  14.682  0.00  0.00    -0.288 N 
HETATM   12  O   UNK N   1      33.409  10.428  14.679  0.00  0.00    -0.267 OA
HETATM   13  C   UNK N   1      35.352  13.224  13.944  0.00  0.00     0.114 C 
HETATM   14  C   UNK N   1      35.557  13.027  12.580  0.00  0.00     0.008 C 
HETATM   15  C   UNK N   1      35.162  11.840  12.013  0.00  0.00     0.033 C 
BRANCH  11  16
HETATM   16  C   UNK N   1      34.746  12.364  16.123  0.00  0.00     0.042 A 
HETATM   17  C   UNK N   1      35.135  11.228  16.857  0.00  0.00     0.030 A 
HETATM   18  C   UNK N   1      35.522  11.329  18.187  0.00  0.00     0.002 A 
HETATM   19  C   UNK N   1      35.515  12.574  18.813  0.00  0.00     0.000 A 
HETATM   20  C   UNK N   1      35.091  13.709  18.117  0.00  0.00     0.002 A 
HETATM   21  C   UNK N   1      34.733  13.612  16.770  0.00  0.00     0.030 A 
ENDBRANCH  11  16
BRANCH  14  22
HETATM   22  C   UNK N   1      35.788  14.130  11.655  0.00  0.00     0.043 A 
HETATM   23  N   UNK N   1      35.715  15.412  12.098  0.00  0.00    -0.365 N 
HETATM   24  C   UNK N   1      35.535  16.441  11.228  0.00  0.00     0.088 A 
ATOM     25  HN  UNK N   1      35.796  15.605  13.096  1.00  0.00     0.165 HD
HETATM   26  C   UNK N   1      35.385  16.193   9.859  0.00  0.00     0.017 A 
HETATM   27  C   UNK N   1      35.492  14.894   9.380  0.00  0.00     0.004 A 
HETATM   28  C   UNK N   1      35.694  13.861  10.276  0.00  0.00     0.030 A 
ENDBRANCH  14  22
ENDBRANCH   1   9
TORSDOF 3
ENDMDL
MODEL 8
REMARK VINA RESULT:      -7.2     14.454     17.686
REMARK  3 active torsions:
REMARK  status: ('A' for Active; 'I' for Inactive)
REMARK    1  A    between atoms: C_7  and  C_1 
REMARK    2  A    between atoms: C_11  and  N_2 
REMARK    3  A    between atoms: C_10  and  C_4 
ROOT
HETATM    1  C   UNK N   1      34.510  14.263  10.100  0.00  0.00     0.000 A 
HETATM    2  N   UNK N   1      35.677  17.632  10.353  0.00  0.00    -0.191 NA
HETATM    3  C   UNK N   1      35.503  16.513  10.592  0.00  0.00     0.100 C 
HETATM    4  C   UNK N   1      35.300  15.123  10.905  0.00  0.00     0.055 A 
HETATM    5  C   UNK N   1      34.497  12.885  10.401  0.00  0.00     0.014 A 
HETATM    6  C   UNK N   1      36.012  14.592  11.991  0.00  0.00     0.023 A 
HETATM    7  C   UNK N   1      35.200  12.372  11.478  0.00  0.00     0.001 A 
HETATM    8  C   UNK N   1      35.950  13.227  12.282  0.00  0.00     0.002 A 
ENDROOT
BRANCH   1   9
HETATM    9  C   UNK N   1      33.742  14.692   8.897  0.00  0.00     0.045 C 
HETATM   10  C   UNK N   1      34.152  14.590   7.551  0.00  0.00     0.263 C 
HETATM   11  N   UNK N   1      33.277  14.937   6.530  0.00  0.00    -0.288 N 
HETATM   12  O   UNK N   1      35.280  14.224   7.278  0.00  0.00    -0.267 OA
HETATM   13  C   UNK N   1      32.102  15.575   6.820  0.00  0.00     0.114 C 
HETATM   14  C   UNK N   1      31.736  15.790   8.147  0.00  0.00     0.008 C 
HETATM   15  C   UNK N   1      32.535  15.292   9.147  0.00  0.00     0.033 C 
BRANCH  11  16
HETATM   16  C   UNK N   1      33.505  14.482   5.179  0.00  0.00     0.042 A 
HETATM   17  C   UNK N   1      33.054  13.199   4.818  0.00  0.00     0.030 A 
HETATM   18  C   UNK N   1      32.930  12.829   3.485  0.00  0.00     0.002 A 
HETATM   19  C   UNK N   1      33.267  13.737   2.484  0.00  0.00     0.000 A 
HETATM   20  C   UNK N   1      33.758  15.003   2.820  0.00  0.00     0.002 A 
HETATM   21  C   UNK N   1      33.852  15.385   4.160  0.00  0.00     0.030 A 
ENDBRANCH  11  16
BRANCH  14  22
HETATM   22  C   UNK N   1      30.797  16.834   8.542  0.00  0.00     0.043 A 
HETATM   23  N   UNK N   1      30.307  16.861   9.808  0.00  0.00    -0.365 N 
HETATM   24  C   UNK N   1      29.170  17.547  10.102  0.00  0.00     0.088 A 
ATOM     25  HN  UNK N   1      30.799  16.361  10.549  1.00  0.00     0.165 HD
HETATM   26  C   UNK N   1      28.462  18.208   9.093  0.00  0.00     0.017 A 
HETATM   27  C   UNK N   1      28.963  18.223   7.797  0.00  0.00     0.004 A 
HETATM   28  C   UNK N   1      30.130  17.537   7.519  0.00  0.00     0.030 A 
ENDBRANCH  14  22
ENDBRANCH   1   9
TORSDOF 3
ENDMDL
MODEL 9
REMARK VINA RESULT:      -7.2     17.135     21.111
REMARK  3 active torsions:
REMARK  status: ('A' for Active; 'I' for Inactive)
REMARK    1  A    between atoms: C_7  and  C_1 
REMARK    2  A    between atoms: C_11  and  N_2 
REMARK    3  A    between atoms: C_10  and  C_4 
ROOT
HETATM    1  C   UNK N   1      35.994  13.422  13.181  0.00  0.00     0.000 A 
HETATM    2  N   UNK N   1      34.057  10.590  12.175  0.00  0.00    -0.191 NA
HETATM    3  C   UNK N   1      34.653  11.330  12.837  0.00  0.00     0.100 C 
HETATM    4  C   UNK N   1      35.389  12.238  13.677  0.00  0.00     0.055 A 
HETATM    5  C   UNK N   1      36.558  14.325  14.105  0.00  0.00     0.014 A 
HETATM    6  C   UNK N   1      35.399  11.982  15.055  0.00  0.00     0.023 A 
HETATM    7  C   UNK N   1      36.568  14.060  15.464  0.00  0.00     0.001 A 
HETATM    8  C   UNK N   1      35.999  12.882  15.941  0.00  0.00     0.002 A 
ENDROOT
BRANCH   1   9
HETATM    9  C   UNK N   1      36.014  13.830  11.749  0.00  0.00     0.045 C 
HETATM   10  C   UNK N   1      34.988  14.496  11.044  0.00  0.00     0.263 C 
HETATM   11  N   UNK N   1      35.198  14.906   9.734  0.00  0.00    -0.288 N 
HETATM   12  O   UNK N   1      33.908  14.690  11.569  0.00  0.00    -0.267 OA
HETATM   13  C   UNK N   1      36.307  14.487   9.052  0.00  0.00     0.114 C 
HETATM   14  C   UNK N   1      37.277  13.726   9.702  0.00  0.00     0.008 C 
HETATM   15  C   UNK N   1      37.134  13.470  11.044  0.00  0.00     0.033 C 
BRANCH  11  16
HETATM   16  C   UNK N   1      34.352  15.910   9.133  0.00  0.00     0.042 A 
HETATM   17  C   UNK N   1      34.808  17.241   9.104  0.00  0.00     0.030 A 
HETATM   18  C   UNK N   1      34.226  18.182   8.264  0.00  0.00     0.002 A 
HETATM   19  C   UNK N   1      33.166  17.808   7.441  0.00  0.00     0.000 A 
HETATM   20  C   UNK N   1      32.669  16.502   7.484  0.00  0.00     0.002 A 
HETATM   21  C   UNK N   1      33.275  15.549   8.307  0.00  0.00     0.030 A 
ENDBRANCH  11  16
BRANCH  14  22
HETATM   22  C   UNK N   1      38.207  12.862   8.983  0.00  0.00     0.043 A 
HETATM   23  N   UNK N   1      38.542  11.651   9.499  0.00  0.00    -0.365 N 
HETATM   24  C   UNK N   1      39.664  11.004   9.085  0.00  0.00     0.088 A 
ATOM     25  HN  UNK N   1      37.944  11.222  10.205  1.00  0.00     0.165 HD
HETATM   26  C   UNK N   1      40.516  11.593   8.146  0.00  0.00     0.017 A 
HETATM   27  C   UNK N   1      40.174  12.815   7.579  0.00  0.00     0.004 A 
HETATM   28  C   UNK N   1      39.021  13.451   7.996  0.00  0.00     0.030 A 
ENDBRANCH  14  22
ENDBRANCH   1   9
TORSDOF 3
ENDMDL
