MODEL 1
REMARK VINA RESULT:      -7.2      0.000      0.000
REMARK  4 active torsions:
REMARK  status: ('A' for Active; 'I' for Inactive)
REMARK    1  A    between atoms: C_6  and  C_12 
REMARK    2  A    between atoms: C_18  and  N_16 
REMARK    3  A    between atoms: C_18  and  C_19 
REMARK    4  A    between atoms: C_18  and  C_22 
ROOT
HETATM    1  C   UNK N   1      33.158  17.768   7.520  0.00  0.00     0.151 C 
HETATM    2  C   UNK N   1      34.338  18.496   8.000  0.00  0.00     0.061 C 
HETATM    3  N   UNK N   1      35.274  19.058   8.384  0.00  0.00    -0.197 NA
ENDROOT
BRANCH   1   4
HETATM    4  C   UNK N   1      32.349  17.151   8.666  0.00  0.00     0.124 C 
BRANCH   4   5
HETATM    5  N   UNK N   1      32.925  15.839   8.991  0.00  0.00    -0.297 N 
HETATM    6  N   UNK N   1      32.689  14.713   8.331  0.00  0.00    -0.309 N 
HETATM    7  C   UNK N   1      33.391  13.722   8.906  0.00  0.00     0.122 A 
ATOM      8  HN  UNK N   1      32.076  14.616   7.522  1.00  0.00     0.186 HD
HETATM    9  C   UNK N   1      34.103  14.264   9.959  0.00  0.00     0.025 A 
HETATM   10  C   UNK N   1      33.786  15.604   9.999  0.00  0.00     0.125 A 
BRANCH   9  11
HETATM   11  C   UNK N   1      35.069  13.570  10.826  0.00  0.00     0.060 A 
HETATM   12  C   UNK N   1      36.441  13.603  10.585  0.00  0.00     0.037 A 
HETATM   13  C   UNK N   1      37.289  12.969  11.426  0.00  0.00     0.118 A 
HETATM   14  C   UNK N   1      37.199  14.179   9.590  0.00  0.00     0.034 A 
HETATM   15  N   UNK N   1      38.562  13.098  11.033  0.00  0.00    -0.352 N 
HETATM   16  N   UNK N   1      36.857  12.296  12.519  0.00  0.00    -0.338 N 
HETATM   17  C   UNK N   1      38.519  13.843   9.900  0.00  0.00     0.090 A 
HETATM   18  H   UNK N   1      39.362  12.731  11.473  0.00  0.00     0.166 HD
HETATM   19  C   UNK N   1      35.514  12.255  12.767  0.00  0.00     0.182 A 
ATOM     20  HN  UNK N   1      37.518  11.831  13.141  1.00  0.00     0.168 HD
HETATM   21  N   UNK N   1      34.633  12.882  11.925  0.00  0.00    -0.351 N 
ATOM     22  HN  UNK N   1      33.632  12.835  12.121  1.00  0.00     0.166 HD
ENDBRANCH   9  11
ENDBRANCH   4   5
BRANCH   4  23
HETATM   23  C   UNK N   1      30.871  17.044   8.224  0.00  0.00     0.011 C 
HETATM   24  C   UNK N   1      29.926  18.077   8.791  0.00  0.00     0.007 C 
HETATM   25  C   UNK N   1      28.684  17.891   7.951  0.00  0.00     0.000 C 
HETATM   26  C   UNK N   1      29.196  17.512   6.569  0.00  0.00     0.000 C 
HETATM   27  C   UNK N   1      30.671  17.177   6.731  0.00  0.00     0.007 C 
ENDBRANCH   4  23
ENDBRANCH   1   4
TORSDOF 4
ENDMDL
MODEL 2
REMARK VINA RESULT:      -7.1      1.719      3.299
REMARK  4 active torsions:
REMARK  status: ('A' for Active; 'I' for Inactive)
REMARK    1  A    between atoms: C_6  and  C_12 
REMARK    2  A    between atoms: C_18  and  N_16 
REMARK    3  A    between atoms: C_18  and  C_19 
REMARK    4  A    between atoms: C_18  and  C_22 
ROOT
HETATM    1  C   UNK N   1      31.540  17.758   8.468  0.00  0.00     0.151 C 
HETATM    2  C   UNK N   1      30.271  17.534   9.167  0.00  0.00     0.061 C 
HETATM    3  N   UNK N   1      29.277  17.349   9.731  0.00  0.00    -0.197 NA
ENDROOT
BRANCH   1   4
HETATM    4  C   UNK N   1      32.254  16.447   8.121  0.00  0.00     0.124 C 
BRANCH   4   5
HETATM    5  N   UNK N   1      33.502  16.376   8.895  0.00  0.00    -0.297 N 
HETATM    6  N   UNK N   1      34.045  17.381   9.566  0.00  0.00    -0.309 N 
HETATM    7  C   UNK N   1      35.172  16.947  10.155  0.00  0.00     0.122 A 
ATOM      8  HN  UNK N   1      33.671  18.328   9.625  1.00  0.00     0.186 HD
HETATM    9  C   UNK N   1      35.322  15.608   9.844  0.00  0.00     0.025 A 
HETATM   10  C   UNK N   1      34.257  15.271   9.038  0.00  0.00     0.125 A 
BRANCH   9  11
HETATM   11  C   UNK N   1      36.369  14.697  10.333  0.00  0.00     0.060 A 
HETATM   12  C   UNK N   1      36.298  14.088  11.584  0.00  0.00     0.037 A 
HETATM   13  C   UNK N   1      37.275  13.239  11.977  0.00  0.00     0.118 A 
HETATM   14  C   UNK N   1      35.381  14.166  12.609  0.00  0.00     0.034 A 
HETATM   15  N   UNK N   1      37.046  12.759  13.206  0.00  0.00    -0.352 N 
HETATM   16  N   UNK N   1      38.336  12.942  11.192  0.00  0.00    -0.338 N 
HETATM   17  C   UNK N   1      35.880  13.325  13.607  0.00  0.00     0.090 A 
HETATM   18  H   UNK N   1      37.605  12.127  13.713  0.00  0.00     0.166 HD
HETATM   19  C   UNK N   1      38.419  13.533   9.962  0.00  0.00     0.182 A 
ATOM     20  HN  UNK N   1      39.057  12.293  11.509  1.00  0.00     0.168 HD
HETATM   21  N   UNK N   1      37.447  14.405   9.544  0.00  0.00    -0.351 N 
ATOM     22  HN  UNK N   1      37.529  14.843   8.626  1.00  0.00     0.166 HD
ENDBRANCH   9  11
ENDBRANCH   4   5
BRANCH   4  23
HETATM   23  C   UNK N   1      32.512  16.413   6.597  0.00  0.00     0.011 C 
HETATM   24  C   UNK N   1      31.305  16.594   5.709  0.00  0.00     0.007 C 
HETATM   25  C   UNK N   1      31.921  16.817   4.347  0.00  0.00     0.000 C 
HETATM   26  C   UNK N   1      33.209  17.581   4.618  0.00  0.00     0.000 C 
HETATM   27  C   UNK N   1      33.458  17.491   6.117  0.00  0.00     0.007 C 
ENDBRANCH   4  23
ENDBRANCH   1   4
TORSDOF 4
ENDMDL
MODEL 3
REMARK VINA RESULT:      -6.9     12.495     15.448
REMARK  4 active torsions:
REMARK  status: ('A' for Active; 'I' for Inactive)
REMARK    1  A    between atoms: C_6  and  C_12 
REMARK    2  A    between atoms: C_18  and  N_16 
REMARK    3  A    between atoms: C_18  and  C_19 
REMARK    4  A    between atoms: C_18  and  C_22 
ROOT
HETATM    1  C   UNK N   1      19.411  16.068   7.995  0.00  0.00     0.151 C 
HETATM    2  C   UNK N   1      18.720  16.987   8.905  0.00  0.00     0.061 C 
HETATM    3  N   UNK N   1      18.180  17.724   9.616  0.00  0.00    -0.197 NA
ENDROOT
BRANCH   1   4
HETATM    4  C   UNK N   1      20.936  16.185   8.097  0.00  0.00     0.124 C 
BRANCH   4   5
HETATM    5  N   UNK N   1      21.443  16.766   6.846  0.00  0.00    -0.297 N 
HETATM    6  N   UNK N   1      22.699  16.703   6.426  0.00  0.00    -0.309 N 
HETATM    7  C   UNK N   1      22.790  17.336   5.244  0.00  0.00     0.122 A 
ATOM      8  HN  UNK N   1      23.468  16.250   6.918  1.00  0.00     0.186 HD
HETATM    9  C   UNK N   1      21.529  17.798   4.914  0.00  0.00     0.025 A 
HETATM   10  C   UNK N   1      20.695  17.433   5.947  0.00  0.00     0.125 A 
BRANCH   9  11
HETATM   11  C   UNK N   1      21.133  18.481   3.673  0.00  0.00     0.060 A 
HETATM   12  C   UNK N   1      20.733  17.782   2.536  0.00  0.00     0.037 A 
HETATM   13  C   UNK N   1      20.355  18.458   1.427  0.00  0.00     0.118 A 
HETATM   14  C   UNK N   1      20.634  16.438   2.254  0.00  0.00     0.034 A 
HETATM   15  N   UNK N   1      20.015  17.626   0.434  0.00  0.00    -0.352 N 
HETATM   16  N   UNK N   1      20.340  19.811   1.372  0.00  0.00    -0.338 N 
HETATM   17  C   UNK N   1      20.184  16.376   0.933  0.00  0.00     0.090 A 
HETATM   18  H   UNK N   1      19.707  17.869  -0.468  0.00  0.00     0.166 HD
HETATM   19  C   UNK N   1      20.730  20.509   2.481  0.00  0.00     0.182 A 
ATOM     20  HN  UNK N   1      20.044  20.297   0.526  1.00  0.00     0.168 HD
HETATM   21  N   UNK N   1      21.127  19.848   3.614  0.00  0.00    -0.351 N 
ATOM     22  HN  UNK N   1      21.423  20.385   4.430  1.00  0.00     0.166 HD
ENDBRANCH   9  11
ENDBRANCH   4   5
BRANCH   4  23
HETATM   23  C   UNK N   1      21.522  14.780   8.365  0.00  0.00     0.011 C 
HETATM   24  C   UNK N   1      21.085  14.104   9.643  0.00  0.00     0.007 C 
HETATM   25  C   UNK N   1      21.568  12.685   9.454  0.00  0.00     0.000 C 
HETATM   26  C   UNK N   1      21.422  12.415   7.963  0.00  0.00     0.000 C 
HETATM   27  C   UNK N   1      21.175  13.763   7.302  0.00  0.00     0.007 C 
ENDBRANCH   4  23
ENDBRANCH   1   4
TORSDOF 4
ENDMDL
MODEL 4
REMARK VINA RESULT:      -6.9      1.566      2.629
REMARK  4 active torsions:
REMARK  status: ('A' for Active; 'I' for Inactive)
REMARK    1  A    between atoms: C_6  and  C_12 
REMARK    2  A    between atoms: C_18  and  N_16 
REMARK    3  A    between atoms: C_18  and  C_19 
REMARK    4  A    between atoms: C_18  and  C_22 
ROOT
HETATM    1  C   UNK N   1      31.474  18.113   8.423  0.00  0.00     0.151 C 
HETATM    2  C   UNK N   1      30.175  18.187   9.101  0.00  0.00     0.061 C 
HETATM    3  N   UNK N   1      29.156  18.238   9.648  0.00  0.00    -0.197 NA
ENDROOT
BRANCH   1   4
HETATM    4  C   UNK N   1      31.948  16.669   8.228  0.00  0.00     0.124 C 
BRANCH   4   5
HETATM    5  N   UNK N   1      33.123  16.444   9.081  0.00  0.00    -0.297 N 
HETATM    6  N   UNK N   1      33.973  17.380   9.478  0.00  0.00    -0.309 N 
HETATM    7  C   UNK N   1      34.914  16.810  10.249  0.00  0.00     0.122 A 
ATOM      8  HN  UNK N   1      33.922  18.370   9.237  1.00  0.00     0.186 HD
HETATM    9  C   UNK N   1      34.623  15.462  10.344  0.00  0.00     0.025 A 
HETATM   10  C   UNK N   1      33.490  15.252   9.590  0.00  0.00     0.125 A 
BRANCH   9  11
HETATM   11  C   UNK N   1      35.334  14.457  11.149  0.00  0.00     0.060 A 
HETATM   12  C   UNK N   1      36.631  14.047  10.847  0.00  0.00     0.037 A 
HETATM   13  C   UNK N   1      37.250  13.137  11.633  0.00  0.00     0.118 A 
HETATM   14  C   UNK N   1      37.503  14.381   9.835  0.00  0.00     0.034 A 
HETATM   15  N   UNK N   1      38.482  12.857  11.187  0.00  0.00    -0.352 N 
HETATM   16  N   UNK N   1      36.659  12.600  12.726  0.00  0.00    -0.338 N 
HETATM   17  C   UNK N   1      38.648  13.618  10.076  0.00  0.00     0.090 A 
HETATM   18  H   UNK N   1      39.130  12.230  11.581  0.00  0.00     0.166 HD
HETATM   19  C   UNK N   1      35.386  12.993  13.033  0.00  0.00     0.182 A 
ATOM     20  HN  UNK N   1      37.150  11.920  13.306  1.00  0.00     0.168 HD
HETATM   21  N   UNK N   1      34.733  13.907  12.247  0.00  0.00    -0.351 N 
ATOM     22  HN  UNK N   1      33.780  14.183  12.487  1.00  0.00     0.166 HD
ENDBRANCH   9  11
ENDBRANCH   4   5
BRANCH   4  23
HETATM   23  C   UNK N   1      32.266  16.451   6.731  0.00  0.00     0.011 C 
HETATM   24  C   UNK N   1      31.090  16.483   5.785  0.00  0.00     0.007 C 
HETATM   25  C   UNK N   1      31.752  16.552   4.429  0.00  0.00     0.000 C 
HETATM   26  C   UNK N   1      33.011  17.380   4.647  0.00  0.00     0.000 C 
HETATM   27  C   UNK N   1      33.203  17.487   6.152  0.00  0.00     0.007 C 
ENDBRANCH   4  23
ENDBRANCH   1   4
TORSDOF 4
ENDMDL
MODEL 5
REMARK VINA RESULT:      -6.6     12.252     15.013
REMARK  4 active torsions:
REMARK  status: ('A' for Active; 'I' for Inactive)
REMARK    1  A    between atoms: C_6  and  C_12 
REMARK    2  A    between atoms: C_18  and  N_16 
REMARK    3  A    between atoms: C_18  and  C_19 
REMARK    4  A    between atoms: C_18  and  C_22 
ROOT
HETATM    1  C   UNK N   1      22.505  17.967   5.399  0.00  0.00     0.151 C 
HETATM    2  C   UNK N   1      21.535  18.321   6.440  0.00  0.00     0.061 C 
HETATM    3  N   UNK N   1      20.758  18.597   7.252  0.00  0.00    -0.197 NA
ENDROOT
BRANCH   1   4
HETATM    4  C   UNK N   1      22.356  18.834   4.144  0.00  0.00     0.124 C 
BRANCH   4   5
HETATM    5  N   UNK N   1      21.521  18.112   3.174  0.00  0.00    -0.297 N 
HETATM    6  N   UNK N   1      20.710  18.676   2.291  0.00  0.00    -0.309 N 
HETATM    7  C   UNK N   1      20.118  17.709   1.571  0.00  0.00     0.122 A 
ATOM      8  HN  UNK N   1      20.559  19.678   2.179  1.00  0.00     0.186 HD
HETATM    9  C   UNK N   1      20.598  16.493   2.020  0.00  0.00     0.025 A 
HETATM   10  C   UNK N   1      21.478  16.773   3.041  0.00  0.00     0.125 A 
BRANCH   9  11
HETATM   11  C   UNK N   1      20.290  15.163   1.473  0.00  0.00     0.060 A 
HETATM   12  C   UNK N   1      21.287  14.284   1.053  0.00  0.00     0.037 A 
HETATM   13  C   UNK N   1      20.953  13.062   0.579  0.00  0.00     0.118 A 
HETATM   14  C   UNK N   1      22.659  14.389   0.996  0.00  0.00     0.034 A 
HETATM   15  N   UNK N   1      22.034  12.362   0.215  0.00  0.00    -0.352 N 
HETATM   16  N   UNK N   1      19.668  12.641   0.501  0.00  0.00    -0.338 N 
HETATM   17  C   UNK N   1      23.093  13.172   0.466  0.00  0.00     0.090 A 
HETATM   18  H   UNK N   1      22.057  11.451  -0.157  0.00  0.00     0.166 HD
HETATM   19  C   UNK N   1      18.681  13.493   0.910  0.00  0.00     0.182 A 
ATOM     20  HN  UNK N   1      19.443  11.712   0.146  1.00  0.00     0.168 HD
HETATM   21  N   UNK N   1      18.992  14.741   1.384  0.00  0.00    -0.351 N 
ATOM     22  HN  UNK N   1      18.241  15.367   1.677  1.00  0.00     0.166 HD
ENDBRANCH   9  11
ENDBRANCH   4   5
BRANCH   4  23
HETATM   23  C   UNK N   1      23.765  19.141   3.585  0.00  0.00     0.011 C 
HETATM   24  C   UNK N   1      23.957  20.502   2.961  0.00  0.00     0.007 C 
HETATM   25  C   UNK N   1      25.457  20.593   2.809  0.00  0.00     0.000 C 
HETATM   26  C   UNK N   1      26.020  19.845   4.010  0.00  0.00     0.000 C 
HETATM   27  C   UNK N   1      24.858  19.082   4.628  0.00  0.00     0.007 C 
ENDBRANCH   4  23
ENDBRANCH   1   4
TORSDOF 4
ENDMDL
MODEL 6
REMARK VINA RESULT:      -6.6     15.178     18.879
REMARK  4 active torsions:
REMARK  status: ('A' for Active; 'I' for Inactive)
REMARK    1  A    between atoms: C_6  and  C_12 
REMARK    2  A    between atoms: C_18  and  N_16 
REMARK    3  A    between atoms: C_18  and  C_19 
REMARK    4  A    between atoms: C_18  and  C_22 
ROOT
HETATM    1  C   UNK N   1      25.193  27.752  -4.972  0.00  0.00     0.151 C 
HETATM    2  C   UNK N   1      25.710  27.485  -3.626  0.00  0.00     0.061 C 
HETATM    3  N   UNK N   1      26.130  27.284  -2.566  0.00  0.00    -0.197 NA
ENDROOT
BRANCH   1   4
HETATM    4  C   UNK N   1      26.158  27.289  -6.069  0.00  0.00     0.124 C 
BRANCH   4   5
HETATM    5  N   UNK N   1      26.435  25.859  -5.874  0.00  0.00    -0.297 N 
HETATM    6  N   UNK N   1      25.526  24.895  -5.870  0.00  0.00    -0.309 N 
HETATM    7  C   UNK N   1      26.145  23.719  -5.672  0.00  0.00     0.122 A 
ATOM      8  HN  UNK N   1      24.522  25.025  -5.996  1.00  0.00     0.186 HD
HETATM    9  C   UNK N   1      27.500  23.968  -5.563  0.00  0.00     0.025 A 
HETATM   10  C   UNK N   1      27.659  25.331  -5.685  0.00  0.00     0.125 A 
BRANCH   9  11
HETATM   11  C   UNK N   1      28.575  22.974  -5.418  0.00  0.00     0.060 A 
HETATM   12  C   UNK N   1      29.313  22.845  -4.244  0.00  0.00     0.037 A 
HETATM   13  C   UNK N   1      30.275  21.898  -4.153  0.00  0.00     0.118 A 
HETATM   14  C   UNK N   1      29.292  23.529  -3.049  0.00  0.00     0.034 A 
HETATM   15  N   UNK N   1      30.885  21.928  -2.961  0.00  0.00    -0.352 N 
HETATM   16  N   UNK N   1      30.553  21.048  -5.169  0.00  0.00    -0.338 N 
HETATM   17  C   UNK N   1      30.287  22.932  -2.272  0.00  0.00     0.090 A 
HETATM   18  H   UNK N   1      31.614  21.345  -2.650  0.00  0.00     0.166 HD
HETATM   19  C   UNK N   1      29.836  21.163  -6.326  0.00  0.00     0.182 A 
ATOM     20  HN  UNK N   1      31.279  20.338  -5.073  1.00  0.00     0.168 HD
HETATM   21  N   UNK N   1      28.863  22.121  -6.448  0.00  0.00    -0.351 N 
ATOM     22  HN  UNK N   1      28.343  22.198  -7.323  1.00  0.00     0.166 HD
ENDBRANCH   9  11
ENDBRANCH   4   5
BRANCH   4  23
HETATM   23  C   UNK N   1      27.441  28.147  -5.992  0.00  0.00     0.011 C 
HETATM   24  C   UNK N   1      28.092  28.500  -7.308  0.00  0.00     0.007 C 
HETATM   25  C   UNK N   1      29.094  29.559  -6.913  0.00  0.00     0.000 C 
HETATM   26  C   UNK N   1      28.432  30.323  -5.775  0.00  0.00     0.000 C 
HETATM   27  C   UNK N   1      27.233  29.495  -5.338  0.00  0.00     0.007 C 
ENDBRANCH   4  23
ENDBRANCH   1   4
TORSDOF 4
ENDMDL
MODEL 7
REMARK VINA RESULT:      -6.5      1.358      2.114
REMARK  4 active torsions:
REMARK  status: ('A' for Active; 'I' for Inactive)
REMARK    1  A    between atoms: C_6  and  C_12 
REMARK    2  A    between atoms: C_18  and  N_16 
REMARK    3  A    between atoms: C_18  and  C_19 
REMARK    4  A    between atoms: C_18  and  C_22 
ROOT
HETATM    1  C   UNK N   1      31.762  15.269   7.015  0.00  0.00     0.151 C 
HETATM    2  C   UNK N   1      32.252  15.295   5.632  0.00  0.00     0.061 C 
HETATM    3  N   UNK N   1      32.652  15.318   4.547  0.00  0.00    -0.197 NA
ENDROOT
BRANCH   1   4
HETATM    4  C   UNK N   1      32.012  16.592   7.746  0.00  0.00     0.124 C 
BRANCH   4   5
HETATM    5  N   UNK N   1      33.111  16.396   8.703  0.00  0.00    -0.297 N 
HETATM    6  N   UNK N   1      33.876  17.358   9.198  0.00  0.00    -0.309 N 
HETATM    7  C   UNK N   1      34.766  16.809  10.042  0.00  0.00     0.122 A 
ATOM      8  HN  UNK N   1      33.803  18.350   8.974  1.00  0.00     0.186 HD
HETATM    9  C   UNK N   1      34.528  15.448  10.081  0.00  0.00     0.025 A 
HETATM   10  C   UNK N   1      33.481  15.209   9.218  0.00  0.00     0.125 A 
BRANCH   9  11
HETATM   11  C   UNK N   1      35.205  14.454  10.928  0.00  0.00     0.060 A 
HETATM   12  C   UNK N   1      36.533  14.087  10.724  0.00  0.00     0.037 A 
HETATM   13  C   UNK N   1      37.117  13.185  11.546  0.00  0.00     0.118 A 
HETATM   14  C   UNK N   1      37.471  14.459   9.786  0.00  0.00     0.034 A 
HETATM   15  N   UNK N   1      38.388  12.947  11.194  0.00  0.00    -0.352 N 
HETATM   16  N   UNK N   1      36.459  12.618  12.584  0.00  0.00    -0.338 N 
HETATM   17  C   UNK N   1      38.616  13.727  10.108  0.00  0.00     0.090 A 
HETATM   18  H   UNK N   1      39.022  12.336  11.631  0.00  0.00     0.166 HD
HETATM   19  C   UNK N   1      35.156  12.969  12.795  0.00  0.00     0.182 A 
ATOM     20  HN  UNK N   1      36.925  11.945  13.194  1.00  0.00     0.168 HD
HETATM   21  N   UNK N   1      34.537  13.873  11.971  0.00  0.00    -0.351 N 
ATOM     22  HN  UNK N   1      33.561  14.118  12.139  1.00  0.00     0.166 HD
ENDBRANCH   9  11
ENDBRANCH   4   5
BRANCH   4  23
HETATM   23  C   UNK N   1      30.703  17.025   8.445  0.00  0.00     0.011 C 
HETATM   24  C   UNK N   1      30.681  18.420   9.022  0.00  0.00     0.007 C 
HETATM   25  C   UNK N   1      29.218  18.629   9.338  0.00  0.00     0.000 C 
HETATM   26  C   UNK N   1      28.469  17.881   8.244  0.00  0.00     0.000 C 
HETATM   27  C   UNK N   1      29.495  17.010   7.536  0.00  0.00     0.007 C 
ENDBRANCH   4  23
ENDBRANCH   1   4
TORSDOF 4
ENDMDL
MODEL 8
REMARK VINA RESULT:      -6.5     14.608     18.118
REMARK  4 active torsions:
REMARK  status: ('A' for Active; 'I' for Inactive)
REMARK    1  A    between atoms: C_6  and  C_12 
REMARK    2  A    between atoms: C_18  and  N_16 
REMARK    3  A    between atoms: C_18  and  C_19 
REMARK    4  A    between atoms: C_18  and  C_22 
ROOT
HETATM    1  C   UNK N   1      25.777  26.385  -5.841  0.00  0.00     0.151 C 
HETATM    2  C   UNK N   1      25.587  25.284  -6.791  0.00  0.00     0.061 C 
HETATM    3  N   UNK N   1      25.444  24.405  -7.531  0.00  0.00    -0.197 NA
ENDROOT
BRANCH   1   4
HETATM    4  C   UNK N   1      27.255  26.620  -5.510  0.00  0.00     0.124 C 
BRANCH   4   5
HETATM    5  N   UNK N   1      27.737  25.492  -4.701  0.00  0.00    -0.297 N 
HETATM    6  N   UNK N   1      27.136  25.008  -3.624  0.00  0.00    -0.309 N 
HETATM    7  C   UNK N   1      27.858  23.978  -3.154  0.00  0.00     0.122 A 
ATOM      8  HN  UNK N   1      26.269  25.360  -3.219  1.00  0.00     0.186 HD
HETATM    9  C   UNK N   1      28.948  23.809  -3.988  0.00  0.00     0.025 A 
HETATM   10  C   UNK N   1      28.855  24.785  -4.955  0.00  0.00     0.125 A 
BRANCH   9  11
HETATM   11  C   UNK N   1      29.970  22.754  -3.908  0.00  0.00     0.060 A 
HETATM   12  C   UNK N   1      30.137  21.806  -4.915  0.00  0.00     0.037 A 
HETATM   13  C   UNK N   1      31.108  20.870  -4.806  0.00  0.00     0.118 A 
HETATM   14  C   UNK N   1      29.475  21.577  -6.101  0.00  0.00     0.034 A 
HETATM   15  N   UNK N   1      31.115  20.041  -5.857  0.00  0.00    -0.352 N 
HETATM   16  N   UNK N   1      31.946  20.817  -3.744  0.00  0.00    -0.338 N 
HETATM   17  C   UNK N   1      30.110  20.467  -6.662  0.00  0.00     0.090 A 
HETATM   18  H   UNK N   1      31.721  19.282  -6.013  0.00  0.00     0.166 HD
HETATM   19  C   UNK N   1      31.793  21.741  -2.749  0.00  0.00     0.182 A 
ATOM     20  HN  UNK N   1      32.675  20.105  -3.688  1.00  0.00     0.168 HD
HETATM   21  N   UNK N   1      30.810  22.693  -2.831  0.00  0.00    -0.351 N 
ATOM     22  HN  UNK N   1      30.705  23.370  -2.075  1.00  0.00     0.166 HD
ENDBRANCH   9  11
ENDBRANCH   4   5
BRANCH   4  23
HETATM   23  C   UNK N   1      27.385  27.968  -4.764  0.00  0.00     0.011 C 
HETATM   24  C   UNK N   1      27.714  29.174  -5.611  0.00  0.00     0.007 C 
HETATM   25  C   UNK N   1      27.467  30.326  -4.665  0.00  0.00     0.000 C 
HETATM   26  C   UNK N   1      26.299  29.879  -3.797  0.00  0.00     0.000 C 
HETATM   27  C   UNK N   1      26.124  28.388  -4.043  0.00  0.00     0.007 C 
ENDBRANCH   4  23
ENDBRANCH   1   4
TORSDOF 4
ENDMDL
MODEL 9
REMARK VINA RESULT:      -6.5      3.125      8.190
REMARK  4 active torsions:
REMARK  status: ('A' for Active; 'I' for Inactive)
REMARK    1  A    between atoms: C_6  and  C_12 
REMARK    2  A    between atoms: C_18  and  N_16 
REMARK    3  A    between atoms: C_18  and  C_19 
REMARK    4  A    between atoms: C_18  and  C_22 
ROOT
HETATM    1  C   UNK N   1      36.722  10.611  14.943  0.00  0.00     0.151 C 
HETATM    2  C   UNK N   1      36.177   9.344  14.445  0.00  0.00     0.061 C 
HETATM    3  N   UNK N   1      35.741   8.351  14.039  0.00  0.00    -0.197 NA
ENDROOT
BRANCH   1   4
HETATM    4  C   UNK N   1      35.629  11.652  15.208  0.00  0.00     0.124 C 
BRANCH   4   5
HETATM    5  N   UNK N   1      35.725  12.700  14.184  0.00  0.00    -0.297 N 
HETATM    6  N   UNK N   1      36.576  13.716  14.204  0.00  0.00    -0.309 N 
HETATM    7  C   UNK N   1      36.380  14.465  13.105  0.00  0.00     0.122 A 
ATOM      8  HN  UNK N   1      37.264  13.901  14.934  1.00  0.00     0.186 HD
HETATM    9  C   UNK N   1      35.373  13.874  12.366  0.00  0.00     0.025 A 
HETATM   10  C   UNK N   1      34.967  12.764  13.072  0.00  0.00     0.125 A 
BRANCH   9  11
HETATM   11  C   UNK N   1      34.875  14.299  11.048  0.00  0.00     0.060 A 
HETATM   12  C   UNK N   1      35.630  14.150   9.886  0.00  0.00     0.037 A 
HETATM   13  C   UNK N   1      35.118  14.535   8.695  0.00  0.00     0.118 A 
HETATM   14  C   UNK N   1      36.898  13.665   9.653  0.00  0.00     0.034 A 
HETATM   15  N   UNK N   1      35.984  14.328   7.695  0.00  0.00    -0.352 N 
HETATM   16  N   UNK N   1      33.876  15.062   8.576  0.00  0.00    -0.338 N 
HETATM   17  C   UNK N   1      37.087  13.793   8.275  0.00  0.00     0.090 A 
HETATM   18  H   UNK N   1      35.850  14.523   6.740  0.00  0.00     0.166 HD
HETATM   19  C   UNK N   1      33.125  15.213   9.708  0.00  0.00     0.182 A 
ATOM     20  HN  UNK N   1      33.510  15.338   7.666  1.00  0.00     0.168 HD
HETATM   21  N   UNK N   1      33.625  14.840  10.929  0.00  0.00    -0.351 N 
ATOM     22  HN  UNK N   1      33.053  14.968  11.765  1.00  0.00     0.166 HD
ENDBRANCH   9  11
ENDBRANCH   4   5
BRANCH   4  23
HETATM   23  C   UNK N   1      35.818  12.214  16.636  0.00  0.00     0.011 C 
HETATM   24  C   UNK N   1      34.863  13.304  17.058  0.00  0.00     0.007 C 
HETATM   25  C   UNK N   1      35.105  13.404  18.546  0.00  0.00     0.000 C 
HETATM   26  C   UNK N   1      35.414  11.981  18.991  0.00  0.00     0.000 C 
HETATM   27  C   UNK N   1      35.658  11.176  17.724  0.00  0.00     0.007 C 
ENDBRANCH   4  23
ENDBRANCH   1   4
TORSDOF 4
ENDMDL
