MODEL 1
REMARK VINA RESULT:      -8.7      0.000      0.000
REMARK  4 active torsions:
REMARK  status: ('A' for Active; 'I' for Inactive)
REMARK    1  A    between atoms: N_2  and  C_22 
REMARK    2  A    between atoms: N_4  and  C_6 
REMARK    3  A    between atoms: C_9  and  C_15 
REMARK    4  A    between atoms: C_25  and  C_28 
REMARK       I    between atoms: C_28  and  N_29 
ROOT
HETATM    1  C   UNK N   1      27.639  18.177   4.376  0.00  0.00     0.045 A 
HETATM    2  C   UNK N   1      27.788  19.458   3.854  0.00  0.00     0.032 A 
HETATM    3  C   UNK N   1      26.361  17.691   4.624  0.00  0.00     0.048 A 
HETATM    4  C   UNK N   1      25.217  18.384   4.341  0.00  0.00     0.070 A 
HETATM    5  C   UNK N   1      25.363  19.679   3.782  0.00  0.00     0.059 A 
HETATM    6  C   UNK N   1      26.648  20.203   3.554  0.00  0.00     0.026 A 
HETATM    7  C   UNK N   1      24.258  20.479   3.360  0.00  0.00     0.100 C 
HETATM    8  N   UNK N   1      23.404  21.171   3.001  0.00  0.00    -0.191 NA
ENDROOT
BRANCH   4   9
HETATM    9  C   UNK N   1      23.912  17.661   4.619  0.00  0.00     0.419 C 
HETATM   10  F   UNK N   1      23.140  18.362   5.525  0.00  0.00    -0.166 F 
HETATM   11  F   UNK N   1      23.214  17.478   3.445  0.00  0.00    -0.166 F 
HETATM   12  F   UNK N   1      24.157  16.401   5.162  0.00  0.00    -0.166 F 
ENDBRANCH   4   9
BRANCH   1  13
HETATM   13  N   UNK N   1      28.746  17.379   4.770  0.00  0.00    -0.256 N 
HETATM   14  C   UNK N   1      29.413  17.531   5.984  0.00  0.00     0.189 C 
HETATM   15  N   UNK N   1      30.627  16.831   5.947  0.00  0.00    -0.305 N 
HETATM   16  S   UNK N   1      28.709  17.797   7.233  0.00  0.00    -0.040 SA
HETATM   17  C   UNK N   1      30.656  15.964   4.768  0.00  0.00     0.114 C 
HETATM   18  C   UNK N   1      29.407  16.446   4.052  0.00  0.00     0.259 C 
HETATM   19  C   UNK N   1      30.529  14.505   5.183  0.00  0.00     0.049 C 
HETATM   20  C   UNK N   1      31.888  16.186   3.908  0.00  0.00     0.049 C 
HETATM   21  O   UNK N   1      29.040  16.050   2.954  0.00  0.00    -0.270 OA
BRANCH  15  22
HETATM   22  C   UNK N   1      31.619  16.922   6.958  0.00  0.00     0.041 A 
HETATM   23  C   UNK N   1      31.543  16.092   8.090  0.00  0.00     0.073 A 
HETATM   24  C   UNK N   1      32.584  16.000   8.981  0.00  0.00     0.134 A 
HETATM   25  C   UNK N   1      33.730  16.776   8.759  0.00  0.00     0.070 A 
HETATM   26  F   UNK N   1      32.497  15.104   9.999  0.00  0.00    -0.205 F 
HETATM   27  C   UNK N   1      33.758  17.689   7.693  0.00  0.00     0.022 A 
HETATM   28  C   UNK N   1      32.709  17.761   6.796  0.00  0.00     0.031 A 
BRANCH  25  29
HETATM   29  C   UNK N   1      34.942  16.631   9.563  0.00  0.00     0.254 C 
HETATM   30  N   UNK N   1      35.482  15.397   9.699  0.00  0.00    -0.361 N 
HETATM   31  C   UNK N   1      36.645  15.147  10.500  0.00  0.00     0.149 C 
HETATM   32  H   UNK N   1      35.059  14.642   9.231  0.00  0.00     0.162 HD
HETATM   33  O   UNK N   1      35.425  17.592  10.146  0.00  0.00    -0.268 OA
ENDBRANCH  25  29
ENDBRANCH  15  22
ENDBRANCH   1  13
TORSDOF 4
ENDMDL
MODEL 2
REMARK VINA RESULT:      -8.5      2.068      2.591
REMARK  4 active torsions:
REMARK  status: ('A' for Active; 'I' for Inactive)
REMARK    1  A    between atoms: N_2  and  C_22 
REMARK    2  A    between atoms: N_4  and  C_6 
REMARK    3  A    between atoms: C_9  and  C_15 
REMARK    4  A    between atoms: C_25  and  C_28 
REMARK       I    between atoms: C_28  and  N_29 
ROOT
HETATM    1  C   UNK N   1      28.341  17.505   4.338  0.00  0.00     0.045 A 
HETATM    2  C   UNK N   1      27.313  16.897   3.624  0.00  0.00     0.032 A 
HETATM    3  C   UNK N   1      28.141  18.776   4.863  0.00  0.00     0.048 A 
HETATM    4  C   UNK N   1      26.963  19.463   4.762  0.00  0.00     0.070 A 
HETATM    5  C   UNK N   1      25.903  18.835   4.060  0.00  0.00     0.059 A 
HETATM    6  C   UNK N   1      26.095  17.564   3.493  0.00  0.00     0.026 A 
HETATM    7  C   UNK N   1      24.596  19.399   3.950  0.00  0.00     0.100 C 
HETATM    8  N   UNK N   1      23.520  19.804   3.827  0.00  0.00    -0.191 NA
ENDROOT
BRANCH   4   9
HETATM    9  C   UNK N   1      26.914  20.810   5.458  0.00  0.00     0.419 C 
HETATM   10  F   UNK N   1      25.965  20.815   6.463  0.00  0.00    -0.166 F 
HETATM   11  F   UNK N   1      28.153  21.120   5.975  0.00  0.00    -0.166 F 
HETATM   12  F   UNK N   1      26.573  21.816   4.554  0.00  0.00    -0.166 F 
ENDBRANCH   4   9
BRANCH   1  13
HETATM   13  N   UNK N   1      29.631  16.925   4.462  0.00  0.00    -0.256 N 
HETATM   14  C   UNK N   1      30.327  16.842   5.667  0.00  0.00     0.189 C 
HETATM   15  N   UNK N   1      31.667  16.516   5.418  0.00  0.00    -0.305 N 
HETATM   16  S   UNK N   1      29.669  16.510   6.925  0.00  0.00    -0.040 SA
HETATM   17  C   UNK N   1      31.819  16.107   4.020  0.00  0.00     0.114 C 
HETATM   18  C   UNK N   1      30.444  16.466   3.486  0.00  0.00     0.259 C 
HETATM   19  C   UNK N   1      32.074  14.609   3.933  0.00  0.00     0.049 C 
HETATM   20  C   UNK N   1      32.899  16.891   3.296  0.00  0.00     0.049 C 
HETATM   21  O   UNK N   1      30.106  16.364   2.315  0.00  0.00    -0.270 OA
BRANCH  15  22
HETATM   22  C   UNK N   1      32.677  16.522   6.415  0.00  0.00     0.041 A 
HETATM   23  C   UNK N   1      33.269  17.735   6.804  0.00  0.00     0.073 A 
HETATM   24  C   UNK N   1      34.092  17.811   7.902  0.00  0.00     0.134 A 
HETATM   25  C   UNK N   1      34.357  16.640   8.625  0.00  0.00     0.070 A 
HETATM   26  F   UNK N   1      34.553  19.028   8.292  0.00  0.00    -0.205 F 
HETATM   27  C   UNK N   1      33.857  15.410   8.168  0.00  0.00     0.022 A 
HETATM   28  C   UNK N   1      33.020  15.351   7.070  0.00  0.00     0.031 A 
BRANCH  25  29
HETATM   29  C   UNK N   1      35.092  16.650   9.889  0.00  0.00     0.254 C 
HETATM   30  N   UNK N   1      35.088  15.528  10.646  0.00  0.00    -0.361 N 
HETATM   31  C   UNK N   1      35.744  15.453  11.919  0.00  0.00     0.149 C 
HETATM   32  H   UNK N   1      34.614  14.733  10.311  0.00  0.00     0.162 HD
HETATM   33  O   UNK N   1      35.651  17.666  10.279  0.00  0.00    -0.268 OA
ENDBRANCH  25  29
ENDBRANCH  15  22
ENDBRANCH   1  13
TORSDOF 4
ENDMDL
MODEL 3
REMARK VINA RESULT:      -7.9      3.752      5.090
REMARK  4 active torsions:
REMARK  status: ('A' for Active; 'I' for Inactive)
REMARK    1  A    between atoms: N_2  and  C_22 
REMARK    2  A    between atoms: N_4  and  C_6 
REMARK    3  A    between atoms: C_9  and  C_15 
REMARK    4  A    between atoms: C_25  and  C_28 
REMARK       I    between atoms: C_28  and  N_29 
ROOT
HETATM    1  C   UNK N   1      24.997  15.538   5.839  0.00  0.00     0.045 A 
HETATM    2  C   UNK N   1      23.904  15.320   5.006  0.00  0.00     0.032 A 
HETATM    3  C   UNK N   1      25.056  14.884   7.064  0.00  0.00     0.048 A 
HETATM    4  C   UNK N   1      24.115  13.989   7.493  0.00  0.00     0.070 A 
HETATM    5  C   UNK N   1      23.014  13.742   6.635  0.00  0.00     0.059 A 
HETATM    6  C   UNK N   1      22.918  14.418   5.406  0.00  0.00     0.026 A 
HETATM    7  C   UNK N   1      22.004  12.773   6.917  0.00  0.00     0.100 C 
HETATM    8  N   UNK N   1      21.159  12.004   7.090  0.00  0.00    -0.191 NA
ENDROOT
BRANCH   4   9
HETATM    9  C   UNK N   1      24.387  13.326   8.830  0.00  0.00     0.419 C 
HETATM   10  F   UNK N   1      23.351  13.553   9.716  0.00  0.00    -0.166 F 
HETATM   11  F   UNK N   1      24.572  11.972   8.656  0.00  0.00    -0.166 F 
HETATM   12  F   UNK N   1      25.550  13.839   9.404  0.00  0.00    -0.166 F 
ENDBRANCH   4   9
BRANCH   1  13
HETATM   13  N   UNK N   1      26.009  16.487   5.538  0.00  0.00    -0.256 N 
HETATM   14  C   UNK N   1      27.372  16.195   5.559  0.00  0.00     0.189 C 
HETATM   15  N   UNK N   1      28.111  17.386   5.530  0.00  0.00    -0.305 N 
HETATM   16  S   UNK N   1      27.907  14.938   5.051  0.00  0.00    -0.040 SA
HETATM   17  C   UNK N   1      27.223  18.506   5.213  0.00  0.00     0.114 C 
HETATM   18  C   UNK N   1      25.876  17.809   5.295  0.00  0.00     0.259 C 
HETATM   19  C   UNK N   1      27.498  19.015   3.805  0.00  0.00     0.049 C 
HETATM   20  C   UNK N   1      27.310  19.629   6.231  0.00  0.00     0.049 C 
HETATM   21  O   UNK N   1      24.796  18.369   5.167  0.00  0.00    -0.270 OA
BRANCH  15  22
HETATM   22  C   UNK N   1      29.517  17.443   5.711  0.00  0.00     0.041 A 
HETATM   23  C   UNK N   1      30.063  17.318   7.000  0.00  0.00     0.073 A 
HETATM   24  C   UNK N   1      31.413  17.159   7.194  0.00  0.00     0.134 A 
HETATM   25  C   UNK N   1      32.256  17.150   6.074  0.00  0.00     0.070 A 
HETATM   26  F   UNK N   1      31.872  16.938   8.453  0.00  0.00    -0.205 F 
HETATM   27  C   UNK N   1      31.723  17.390   4.798  0.00  0.00     0.022 A 
HETATM   28  C   UNK N   1      30.361  17.535   4.616  0.00  0.00     0.031 A 
BRANCH  25  29
HETATM   29  C   UNK N   1      33.681  16.835   6.169  0.00  0.00     0.254 C 
HETATM   30  N   UNK N   1      34.071  15.552   5.986  0.00  0.00    -0.361 N 
HETATM   31  C   UNK N   1      35.439  15.137   6.099  0.00  0.00     0.149 C 
HETATM   32  H   UNK N   1      33.389  14.877   5.767  0.00  0.00     0.162 HD
HETATM   33  O   UNK N   1      34.495  17.700   6.463  0.00  0.00    -0.268 OA
ENDBRANCH  25  29
ENDBRANCH  15  22
ENDBRANCH   1  13
TORSDOF 4
ENDMDL
MODEL 4
REMARK VINA RESULT:      -7.9      6.892      7.759
REMARK  4 active torsions:
REMARK  status: ('A' for Active; 'I' for Inactive)
REMARK    1  A    between atoms: N_2  and  C_22 
REMARK    2  A    between atoms: N_4  and  C_6 
REMARK    3  A    between atoms: C_9  and  C_15 
REMARK    4  A    between atoms: C_25  and  C_28 
REMARK       I    between atoms: C_28  and  N_29 
ROOT
HETATM    1  C   UNK N   1      22.802  16.660   4.052  0.00  0.00     0.045 A 
HETATM    2  C   UNK N   1      23.499  17.798   4.444  0.00  0.00     0.032 A 
HETATM    3  C   UNK N   1      21.669  16.800   3.260  0.00  0.00     0.048 A 
HETATM    4  C   UNK N   1      21.211  18.002   2.795  0.00  0.00     0.070 A 
HETATM    5  C   UNK N   1      21.936  19.161   3.168  0.00  0.00     0.059 A 
HETATM    6  C   UNK N   1      23.065  19.045   3.996  0.00  0.00     0.026 A 
HETATM    7  C   UNK N   1      21.621  20.469   2.688  0.00  0.00     0.100 C 
HETATM    8  N   UNK N   1      21.415  21.550   2.332  0.00  0.00    -0.191 NA
ENDROOT
BRANCH   4   9
HETATM    9  C   UNK N   1      19.996  17.947   1.888  0.00  0.00     0.419 C 
HETATM   10  F   UNK N   1      20.278  18.488   0.648  0.00  0.00    -0.166 F 
HETATM   11  F   UNK N   1      19.568  16.645   1.750  0.00  0.00    -0.166 F 
HETATM   12  F   UNK N   1      18.943  18.680   2.435  0.00  0.00    -0.166 F 
ENDBRANCH   4   9
BRANCH   1  13
HETATM   13  N   UNK N   1      23.137  15.361   4.516  0.00  0.00    -0.256 N 
HETATM   14  C   UNK N   1      23.064  14.976   5.854  0.00  0.00     0.189 C 
HETATM   15  N   UNK N   1      23.745  13.765   6.036  0.00  0.00    -0.305 N 
HETATM   16  S   UNK N   1      21.970  15.390   6.725  0.00  0.00    -0.040 SA
HETATM   17  C   UNK N   1      24.061  13.180   4.731  0.00  0.00     0.114 C 
HETATM   18  C   UNK N   1      23.667  14.331   3.822  0.00  0.00     0.259 C 
HETATM   19  C   UNK N   1      23.195  11.954   4.479  0.00  0.00     0.049 C 
HETATM   20  C   UNK N   1      25.535  12.854   4.578  0.00  0.00     0.049 C 
HETATM   21  O   UNK N   1      23.816  14.338   2.607  0.00  0.00    -0.270 OA
BRANCH  15  22
HETATM   22  C   UNK N   1      24.002  13.190   7.308  0.00  0.00     0.041 A 
HETATM   23  C   UNK N   1      24.985  13.749   8.142  0.00  0.00     0.073 A 
HETATM   24  C   UNK N   1      25.119  13.358   9.452  0.00  0.00     0.134 A 
HETATM   25  C   UNK N   1      24.268  12.359   9.946  0.00  0.00     0.070 A 
HETATM   26  F   UNK N   1      26.016  14.005  10.241  0.00  0.00    -0.205 F 
HETATM   27  C   UNK N   1      23.365  11.723   9.080  0.00  0.00     0.022 A 
HETATM   28  C   UNK N   1      23.231  12.136   7.768  0.00  0.00     0.031 A 
BRANCH  25  29
HETATM   29  C   UNK N   1      24.234  11.988  11.359  0.00  0.00     0.254 C 
HETATM   30  N   UNK N   1      23.094  12.206  12.056  0.00  0.00    -0.361 N 
HETATM   31  C   UNK N   1      22.976  11.914  13.455  0.00  0.00     0.149 C 
HETATM   32  H   UNK N   1      22.316  12.580  11.584  0.00  0.00     0.162 HD
HETATM   33  O   UNK N   1      25.230  11.543  11.914  0.00  0.00    -0.268 OA
ENDBRANCH  25  29
ENDBRANCH  15  22
ENDBRANCH   1  13
TORSDOF 4
ENDMDL
MODEL 5
REMARK VINA RESULT:      -7.8      3.352      5.088
REMARK  4 active torsions:
REMARK  status: ('A' for Active; 'I' for Inactive)
REMARK    1  A    between atoms: N_2  and  C_22 
REMARK    2  A    between atoms: N_4  and  C_6 
REMARK    3  A    between atoms: C_9  and  C_15 
REMARK    4  A    between atoms: C_25  and  C_28 
REMARK       I    between atoms: C_28  and  N_29 
ROOT
HETATM    1  C   UNK N   1      23.299  17.080   4.820  0.00  0.00     0.045 A 
HETATM    2  C   UNK N   1      22.848  16.350   3.725  0.00  0.00     0.032 A 
HETATM    3  C   UNK N   1      22.458  17.249   5.913  0.00  0.00     0.048 A 
HETATM    4  C   UNK N   1      21.211  16.697   6.005  0.00  0.00     0.070 A 
HETATM    5  C   UNK N   1      20.759  15.928   4.903  0.00  0.00     0.059 A 
HETATM    6  C   UNK N   1      21.581  15.772   3.773  0.00  0.00     0.026 A 
HETATM    7  C   UNK N   1      19.515  15.226   4.896  0.00  0.00     0.100 C 
HETATM    8  N   UNK N   1      18.523  14.637   4.833  0.00  0.00    -0.191 NA
ENDROOT
BRANCH   4   9
HETATM    9  C   UNK N   1      20.468  16.937   7.306  0.00  0.00     0.419 C 
HETATM   10  F   UNK N   1      19.134  16.601   7.185  0.00  0.00    -0.166 F 
HETATM   11  F   UNK N   1      21.049  16.210   8.322  0.00  0.00    -0.166 F 
HETATM   12  F   UNK N   1      20.530  18.284   7.664  0.00  0.00    -0.166 F 
ENDBRANCH   4   9
BRANCH   1  13
HETATM   13  N   UNK N   1      24.549  17.755   4.826  0.00  0.00    -0.256 N 
HETATM   14  C   UNK N   1      25.733  17.184   5.290  0.00  0.00     0.189 C 
HETATM   15  N   UNK N   1      26.704  18.180   5.459  0.00  0.00    -0.305 N 
HETATM   16  S   UNK N   1      26.084  15.795   5.022  0.00  0.00    -0.040 SA
HETATM   17  C   UNK N   1      26.243  19.423   4.838  0.00  0.00     0.114 C 
HETATM   18  C   UNK N   1      24.810  19.042   4.510  0.00  0.00     0.259 C 
HETATM   19  C   UNK N   1      27.043  19.711   3.576  0.00  0.00     0.049 C 
HETATM   20  C   UNK N   1      26.279  20.603   5.794  0.00  0.00     0.049 C 
HETATM   21  O   UNK N   1      23.983  19.802   4.025  0.00  0.00    -0.270 OA
BRANCH  15  22
HETATM   22  C   UNK N   1      27.961  17.955   6.077  0.00  0.00     0.041 A 
HETATM   23  C   UNK N   1      28.057  17.927   7.478  0.00  0.00     0.073 A 
HETATM   24  C   UNK N   1      29.204  17.509   8.110  0.00  0.00     0.134 A 
HETATM   25  C   UNK N   1      30.302  17.130   7.326  0.00  0.00     0.070 A 
HETATM   26  F   UNK N   1      29.204  17.403   9.464  0.00  0.00    -0.205 F 
HETATM   27  C   UNK N   1      30.243  17.268   5.930  0.00  0.00     0.022 A 
HETATM   28  C   UNK N   1      29.079  17.677   5.308  0.00  0.00     0.031 A 
BRANCH  25  29
HETATM   29  C   UNK N   1      31.504  16.530   7.901  0.00  0.00     0.254 C 
HETATM   30  N   UNK N   1      32.362  17.327   8.580  0.00  0.00    -0.361 N 
HETATM   31  C   UNK N   1      33.586  16.839   9.145  0.00  0.00     0.149 C 
HETATM   32  H   UNK N   1      32.137  18.279   8.689  0.00  0.00     0.162 HD
HETATM   33  O   UNK N   1      31.757  15.345   7.726  0.00  0.00    -0.268 OA
ENDBRANCH  25  29
ENDBRANCH  15  22
ENDBRANCH   1  13
TORSDOF 4
ENDMDL
MODEL 6
REMARK VINA RESULT:      -7.7      4.311     11.043
REMARK  4 active torsions:
REMARK  status: ('A' for Active; 'I' for Inactive)
REMARK    1  A    between atoms: N_2  and  C_22 
REMARK    2  A    between atoms: N_4  and  C_6 
REMARK    3  A    between atoms: C_9  and  C_15 
REMARK    4  A    between atoms: C_25  and  C_28 
REMARK       I    between atoms: C_28  and  N_29 
ROOT
HETATM    1  C   UNK N   1      35.606  13.248  12.138  0.00  0.00     0.045 A 
HETATM    2  C   UNK N   1      36.264  14.047  13.068  0.00  0.00     0.032 A 
HETATM    3  C   UNK N   1      34.875  12.154  12.582  0.00  0.00     0.048 A 
HETATM    4  C   UNK N   1      34.718  11.830  13.901  0.00  0.00     0.070 A 
HETATM    5  C   UNK N   1      35.363  12.659  14.854  0.00  0.00     0.059 A 
HETATM    6  C   UNK N   1      36.135  13.751  14.424  0.00  0.00     0.026 A 
HETATM    7  C   UNK N   1      35.218  12.488  16.265  0.00  0.00     0.100 C 
HETATM    8  N   UNK N   1      35.138  12.400  17.415  0.00  0.00    -0.191 NA
ENDROOT
BRANCH   4   9
HETATM    9  C   UNK N   1      33.827  10.638  14.195  0.00  0.00     0.419 C 
HETATM   10  F   UNK N   1      32.790  10.989  15.038  0.00  0.00    -0.166 F 
HETATM   11  F   UNK N   1      33.327  10.122  13.019  0.00  0.00    -0.166 F 
HETATM   12  F   UNK N   1      34.553   9.626  14.823  0.00  0.00    -0.166 F 
ENDBRANCH   4   9
BRANCH   1  13
HETATM   13  N   UNK N   1      35.738  13.441  10.737  0.00  0.00    -0.256 N 
HETATM   14  C   UNK N   1      34.964  14.339  10.004  0.00  0.00     0.189 C 
HETATM   15  N   UNK N   1      35.104  14.077   8.635  0.00  0.00    -0.305 N 
HETATM   16  S   UNK N   1      34.617  15.661  10.510  0.00  0.00    -0.040 SA
HETATM   17  C   UNK N   1      36.214  13.145   8.426  0.00  0.00     0.114 C 
HETATM   18  C   UNK N   1      36.512  12.759   9.864  0.00  0.00     0.259 C 
HETATM   19  C   UNK N   1      37.394  13.864   7.789  0.00  0.00     0.049 C 
HETATM   20  C   UNK N   1      35.810  11.926   7.615  0.00  0.00     0.049 C 
HETATM   21  O   UNK N   1      37.343  11.928  10.202  0.00  0.00    -0.270 OA
BRANCH  15  22
HETATM   22  C   UNK N   1      34.319  14.700   7.630  0.00  0.00     0.041 A 
HETATM   23  C   UNK N   1      33.104  14.119   7.230  0.00  0.00     0.073 A 
HETATM   24  C   UNK N   1      32.221  14.791   6.420  0.00  0.00     0.134 A 
HETATM   25  C   UNK N   1      32.564  16.073   5.970  0.00  0.00     0.070 A 
HETATM   26  F   UNK N   1      31.017  14.222   6.151  0.00  0.00    -0.205 F 
HETATM   27  C   UNK N   1      33.826  16.605   6.277  0.00  0.00     0.022 A 
HETATM   28  C   UNK N   1      34.699  15.924   7.104  0.00  0.00     0.031 A 
BRANCH  25  29
HETATM   29  C   UNK N   1      31.627  16.921   5.236  0.00  0.00     0.254 C 
HETATM   30  N   UNK N   1      30.421  17.183   5.792  0.00  0.00    -0.361 N 
HETATM   31  C   UNK N   1      29.421  17.969   5.132  0.00  0.00     0.149 C 
HETATM   32  H   UNK N   1      30.223  16.817   6.684  0.00  0.00     0.162 HD
HETATM   33  O   UNK N   1      31.905  17.340   4.120  0.00  0.00    -0.268 OA
ENDBRANCH  25  29
ENDBRANCH  15  22
ENDBRANCH   1  13
TORSDOF 4
ENDMDL
MODEL 7
REMARK VINA RESULT:      -7.7      5.417     12.128
REMARK  4 active torsions:
REMARK  status: ('A' for Active; 'I' for Inactive)
REMARK    1  A    between atoms: N_2  and  C_22 
REMARK    2  A    between atoms: N_4  and  C_6 
REMARK    3  A    between atoms: C_9  and  C_15 
REMARK    4  A    between atoms: C_25  and  C_28 
REMARK       I    between atoms: C_28  and  N_29 
ROOT
HETATM    1  C   UNK N   1      35.766  13.261  13.947  0.00  0.00     0.045 A 
HETATM    2  C   UNK N   1      34.896  12.458  14.678  0.00  0.00     0.032 A 
HETATM    3  C   UNK N   1      36.438  14.293  14.590  0.00  0.00     0.048 A 
HETATM    4  C   UNK N   1      36.333  14.548  15.930  0.00  0.00     0.070 A 
HETATM    5  C   UNK N   1      35.470  13.714  16.684  0.00  0.00     0.059 A 
HETATM    6  C   UNK N   1      34.756  12.685  16.046  0.00  0.00     0.026 A 
HETATM    7  C   UNK N   1      35.328  13.813  18.102  0.00  0.00     0.100 C 
HETATM    8  N   UNK N   1      35.173  13.844  19.247  0.00  0.00    -0.191 NA
ENDROOT
BRANCH   4   9
HETATM    9  C   UNK N   1      37.196  15.676  16.464  0.00  0.00     0.419 C 
HETATM   10  F   UNK N   1      38.054  15.221  17.447  0.00  0.00    -0.166 F 
HETATM   11  F   UNK N   1      37.914  16.248  15.437  0.00  0.00    -0.166 F 
HETATM   12  F   UNK N   1      36.403  16.674  17.029  0.00  0.00    -0.166 F 
ENDBRANCH   4   9
BRANCH   1  13
HETATM   13  N   UNK N   1      35.918  13.139  12.540  0.00  0.00    -0.256 N 
HETATM   14  C   UNK N   1      35.492  14.107  11.631  0.00  0.00     0.189 C 
HETATM   15  N   UNK N   1      35.492  13.572  10.336  0.00  0.00    -0.305 N 
HETATM   16  S   UNK N   1      35.653  15.534  11.880  0.00  0.00    -0.040 SA
HETATM   17  C   UNK N   1      36.190  12.285  10.338  0.00  0.00     0.114 C 
HETATM   18  C   UNK N   1      36.373  12.083  11.832  0.00  0.00     0.259 C 
HETATM   19  C   UNK N   1      37.531  12.412   9.628  0.00  0.00     0.049 C 
HETATM   20  C   UNK N   1      35.356  11.165   9.742  0.00  0.00     0.049 C 
HETATM   21  O   UNK N   1      36.864  11.086  12.343  0.00  0.00    -0.270 OA
BRANCH  15  22
HETATM   22  C   UNK N   1      34.951  14.242   9.208  0.00  0.00     0.041 A 
HETATM   23  C   UNK N   1      33.607  14.653   9.215  0.00  0.00     0.073 A 
HETATM   24  C   UNK N   1      33.106  15.481   8.240  0.00  0.00     0.134 A 
HETATM   25  C   UNK N   1      33.959  15.896   7.208  0.00  0.00     0.070 A 
HETATM   26  F   UNK N   1      31.829  15.929   8.355  0.00  0.00    -0.205 F 
HETATM   27  C   UNK N   1      35.267  15.393   7.140  0.00  0.00     0.022 A 
HETATM   28  C   UNK N   1      35.762  14.572   8.135  0.00  0.00     0.031 A 
BRANCH  25  29
HETATM   29  C   UNK N   1      33.560  16.895   6.217  0.00  0.00     0.254 C 
HETATM   30  N   UNK N   1      32.519  16.612   5.400  0.00  0.00    -0.361 N 
HETATM   31  C   UNK N   1      32.079  17.509   4.371  0.00  0.00     0.149 C 
HETATM   32  H   UNK N   1      32.046  15.757   5.516  0.00  0.00     0.162 HD
HETATM   33  O   UNK N   1      34.188  17.937   6.093  0.00  0.00    -0.268 OA
ENDBRANCH  25  29
ENDBRANCH  15  22
ENDBRANCH   1  13
TORSDOF 4
ENDMDL
MODEL 8
REMARK VINA RESULT:      -7.6      3.082      9.740
REMARK  4 active torsions:
REMARK  status: ('A' for Active; 'I' for Inactive)
REMARK    1  A    between atoms: N_2  and  C_22 
REMARK    2  A    between atoms: N_4  and  C_6 
REMARK    3  A    between atoms: C_9  and  C_15 
REMARK    4  A    between atoms: C_25  and  C_28 
REMARK       I    between atoms: C_28  and  N_29 
ROOT
HETATM    1  C   UNK N   1      34.115  15.786   8.944  0.00  0.00     0.045 A 
HETATM    2  C   UNK N   1      34.671  16.772   9.751  0.00  0.00     0.032 A 
HETATM    3  C   UNK N   1      34.250  14.453   9.313  0.00  0.00     0.048 A 
HETATM    4  C   UNK N   1      34.866  14.042  10.463  0.00  0.00     0.070 A 
HETATM    5  C   UNK N   1      35.409  15.047  11.303  0.00  0.00     0.059 A 
HETATM    6  C   UNK N   1      35.312  16.399  10.931  0.00  0.00     0.026 A 
HETATM    7  C   UNK N   1      36.004  14.769  12.571  0.00  0.00     0.100 C 
HETATM    8  N   UNK N   1      36.496  14.606  13.604  0.00  0.00    -0.191 NA
ENDROOT
BRANCH   4   9
HETATM    9  C   UNK N   1      34.855  12.549  10.729  0.00  0.00     0.419 C 
HETATM   10  F   UNK N   1      34.010  11.894   9.854  0.00  0.00    -0.166 F 
HETATM   11  F   UNK N   1      36.132  12.041  10.622  0.00  0.00    -0.166 F 
HETATM   12  F   UNK N   1      34.406  12.285  12.022  0.00  0.00    -0.166 F 
ENDBRANCH   4   9
BRANCH   1  13
HETATM   13  N   UNK N   1      33.503  16.075   7.695  0.00  0.00    -0.256 N 
HETATM   14  C   UNK N   1      32.135  16.289   7.536  0.00  0.00     0.189 C 
HETATM   15  N   UNK N   1      31.803  16.237   6.176  0.00  0.00    -0.305 N 
HETATM   16  S   UNK N   1      31.349  17.052   8.498  0.00  0.00    -0.040 SA
HETATM   17  C   UNK N   1      33.027  16.251   5.372  0.00  0.00     0.114 C 
HETATM   18  C   UNK N   1      34.066  16.091   6.467  0.00  0.00     0.259 C 
HETATM   19  C   UNK N   1      33.174  17.588   4.660  0.00  0.00     0.049 C 
HETATM   20  C   UNK N   1      33.097  15.095   4.391  0.00  0.00     0.049 C 
HETATM   21  O   UNK N   1      35.269  15.981   6.272  0.00  0.00    -0.270 OA
BRANCH  15  22
HETATM   22  C   UNK N   1      30.469  16.245   5.691  0.00  0.00     0.041 A 
HETATM   23  C   UNK N   1      29.895  17.447   5.241  0.00  0.00     0.073 A 
HETATM   24  C   UNK N   1      28.694  17.462   4.575  0.00  0.00     0.134 A 
HETATM   25  C   UNK N   1      28.024  16.247   4.370  0.00  0.00     0.070 A 
HETATM   26  F   UNK N   1      28.239  18.639   4.072  0.00  0.00    -0.205 F 
HETATM   27  C   UNK N   1      28.542  15.064   4.920  0.00  0.00     0.022 A 
HETATM   28  C   UNK N   1      29.759  15.062   5.575  0.00  0.00     0.031 A 
BRANCH  25  29
HETATM   29  C   UNK N   1      26.823  16.146   3.543  0.00  0.00     0.254 C 
HETATM   30  N   UNK N   1      26.862  15.357   2.444  0.00  0.00    -0.361 N 
HETATM   31  C   UNK N   1      25.750  15.225   1.549  0.00  0.00     0.149 C 
HETATM   32  H   UNK N   1      27.687  14.855   2.251  0.00  0.00     0.162 HD
HETATM   33  O   UNK N   1      25.825  16.802   3.807  0.00  0.00    -0.268 OA
ENDBRANCH  25  29
ENDBRANCH  15  22
ENDBRANCH   1  13
TORSDOF 4
ENDMDL
MODEL 9
REMARK VINA RESULT:      -7.6      3.328      5.069
REMARK  4 active torsions:
REMARK  status: ('A' for Active; 'I' for Inactive)
REMARK    1  A    between atoms: N_2  and  C_22 
REMARK    2  A    between atoms: N_4  and  C_6 
REMARK    3  A    between atoms: C_9  and  C_15 
REMARK    4  A    between atoms: C_25  and  C_28 
REMARK       I    between atoms: C_28  and  N_29 
ROOT
HETATM    1  C   UNK N   1      23.286  17.053   4.862  0.00  0.00     0.045 A 
HETATM    2  C   UNK N   1      22.531  16.888   6.018  0.00  0.00     0.032 A 
HETATM    3  C   UNK N   1      22.856  16.459   3.682  0.00  0.00     0.048 A 
HETATM    4  C   UNK N   1      21.695  15.746   3.570  0.00  0.00     0.070 A 
HETATM    5  C   UNK N   1      20.907  15.599   4.740  0.00  0.00     0.059 A 
HETATM    6  C   UNK N   1      21.340  16.164   5.951  0.00  0.00     0.026 A 
HETATM    7  C   UNK N   1      19.634  14.953   4.749  0.00  0.00     0.100 C 
HETATM    8  N   UNK N   1      18.599  14.443   4.819  0.00  0.00    -0.191 NA
ENDROOT
BRANCH   4   9
HETATM    9  C   UNK N   1      21.360  15.229   2.183  0.00  0.00     0.419 C 
HETATM   10  F   UNK N   1      20.326  15.953   1.620  0.00  0.00    -0.166 F 
HETATM   11  F   UNK N   1      22.474  15.289   1.375  0.00  0.00    -0.166 F 
HETATM   12  F   UNK N   1      20.954  13.896   2.242  0.00  0.00    -0.166 F 
ENDBRANCH   4   9
BRANCH   1  13
HETATM   13  N   UNK N   1      24.541  17.718   4.858  0.00  0.00    -0.256 N 
HETATM   14  C   UNK N   1      25.722  17.141   5.320  0.00  0.00     0.189 C 
HETATM   15  N   UNK N   1      26.702  18.130   5.477  0.00  0.00    -0.305 N 
HETATM   16  S   UNK N   1      26.061  15.747   5.061  0.00  0.00    -0.040 SA
HETATM   17  C   UNK N   1      26.248  19.373   4.850  0.00  0.00     0.114 C 
HETATM   18  C   UNK N   1      24.811  19.000   4.530  0.00  0.00     0.259 C 
HETATM   19  C   UNK N   1      27.045  19.645   3.582  0.00  0.00     0.049 C 
HETATM   20  C   UNK N   1      26.298  20.559   5.796  0.00  0.00     0.049 C 
HETATM   21  O   UNK N   1      23.988  19.763   4.044  0.00  0.00    -0.270 OA
BRANCH  15  22
HETATM   22  C   UNK N   1      27.960  17.901   6.092  0.00  0.00     0.041 A 
HETATM   23  C   UNK N   1      28.058  17.858   7.493  0.00  0.00     0.073 A 
HETATM   24  C   UNK N   1      29.205  17.435   8.119  0.00  0.00     0.134 A 
HETATM   25  C   UNK N   1      30.303  17.065   7.330  0.00  0.00     0.070 A 
HETATM   26  F   UNK N   1      29.207  17.315   9.472  0.00  0.00    -0.205 F 
HETATM   27  C   UNK N   1      30.243  17.217   5.936  0.00  0.00     0.022 A 
HETATM   28  C   UNK N   1      29.077  17.631   5.319  0.00  0.00     0.031 A 
BRANCH  25  29
HETATM   29  C   UNK N   1      31.506  16.459   7.898  0.00  0.00     0.254 C 
HETATM   30  N   UNK N   1      32.366  17.251   8.580  0.00  0.00    -0.361 N 
HETATM   31  C   UNK N   1      33.592  16.758   9.138  0.00  0.00     0.149 C 
HETATM   32  H   UNK N   1      32.142  18.202   8.696  0.00  0.00     0.162 HD
HETATM   33  O   UNK N   1      31.757  15.276   7.714  0.00  0.00    -0.268 OA
ENDBRANCH  25  29
ENDBRANCH  15  22
ENDBRANCH   1  13
TORSDOF 4
ENDMDL
