MODEL 1
REMARK VINA RESULT:      -7.9      0.000      0.000
REMARK  6 active torsions:
REMARK  status: ('A' for Active; 'I' for Inactive)
REMARK    1  A    between atoms: N_4  and  C_18 
REMARK    2  A    between atoms: N_5  and  C_13 
REMARK    3  A    between atoms: N_8  and  C_30 
REMARK    4  A    between atoms: C_18  and  C_29 
REMARK    5  A    between atoms: C_29  and  C_31 
REMARK    6  A    between atoms: C_30  and  C_31 
ROOT
HETATM    1  N   UNK N   1      32.205  16.351   7.863  0.00  0.00    -0.363 N 
HETATM    2  N   UNK N   1      34.519  15.682   9.240  0.00  0.00     0.091 N 
HETATM    3  C   UNK N   1      32.327  14.996   8.337  0.00  0.00     0.154 C 
HETATM    4  C   UNK N   1      33.418  17.002   7.462  0.00  0.00     0.154 C 
HETATM    5  C   UNK N   1      33.254  15.010   9.546  0.00  0.00     0.292 C 
HETATM    6  C   UNK N   1      34.292  17.037   8.707  0.00  0.00     0.292 C 
ENDROOT
BRANCH   2   7
HETATM    7  C   UNK N   1      35.187  15.848  10.523  0.00  0.00     0.272 C 
BRANCH   7   8
HETATM    8  C   UNK N   1      36.483  15.059  10.577  0.00  0.00     0.032 C 
BRANCH   8   9
HETATM    9  C   UNK N   1      36.210  13.576  10.729  0.00  0.00     0.022 C 
BRANCH   9  10
HETATM   10  C   UNK N   1      37.063  13.011  11.851  0.00  0.00     0.135 C 
BRANCH  10  11
HETATM   11  N   UNK N   1      36.185  12.727  12.956  0.00  0.00    -0.288 N 
HETATM   12  C   UNK N   1      35.997  13.548  13.994  0.00  0.00     0.231 C 
HETATM   13  O   UNK N   1      36.625  14.587  14.143  0.00  0.00    -0.273 OA
HETATM   14  C   UNK N   1      35.012  13.003  14.984  0.00  0.00     0.091 C 
HETATM   15  C   UNK N   1      34.405  11.806  14.163  0.00  0.00     0.091 C 
HETATM   16  C   UNK N   1      35.853  12.553  16.185  0.00  0.00     0.015 C 
HETATM   17  C   UNK N   1      35.380  11.663  13.046  0.00  0.00     0.231 C 
HETATM   18  C   UNK N   1      34.038  10.556  14.969  0.00  0.00     0.015 C 
HETATM   19  O   UNK N   1      35.334  10.781  12.200  0.00  0.00    -0.273 OA
HETATM   20  C   UNK N   1      35.050  10.236  16.054  0.00  0.00     0.001 C 
HETATM   21  C   UNK N   1      35.177  11.442  16.969  0.00  0.00     0.001 C 
ENDBRANCH  10  11
ENDBRANCH   9  10
ENDBRANCH   8   9
ENDBRANCH   7   8
ENDBRANCH   2   7
BRANCH   1  22
HETATM   22  C   UNK N   1      31.068  17.154   8.167  0.00  0.00     0.121 A 
HETATM   23  N   UNK N   1      30.801  17.544   9.455  0.00  0.00    -0.311 N 
HETATM   24  S   UNK N   1      29.375  18.368   9.360  0.00  0.00    -0.013 SA
ATOM     25  HN  UNK N   1      31.361  17.365  10.288  1.00  0.00     0.176 HD
HETATM   26  C   UNK N   1      29.026  18.260   7.766  0.00  0.00     0.035 A 
HETATM   27  C   UNK N   1      30.074  17.546   7.199  0.00  0.00     0.027 A 
HETATM   28  C   UNK N   1      27.933  18.708   7.036  0.00  0.00     0.021 A 
HETATM   29  C   UNK N   1      30.045  17.250   5.833  0.00  0.00     0.017 A 
HETATM   30  C   UNK N   1      28.955  17.689   5.065  0.00  0.00     0.001 A 
HETATM   31  C   UNK N   1      27.904  18.415   5.663  0.00  0.00     0.001 A 
ENDBRANCH   1  22
TORSDOF 6
ENDMDL
MODEL 2
REMARK VINA RESULT:      -7.8      9.550     13.792
REMARK  6 active torsions:
REMARK  status: ('A' for Active; 'I' for Inactive)
REMARK    1  A    between atoms: N_4  and  C_18 
REMARK    2  A    between atoms: N_5  and  C_13 
REMARK    3  A    between atoms: N_8  and  C_30 
REMARK    4  A    between atoms: C_18  and  C_29 
REMARK    5  A    between atoms: C_29  and  C_31 
REMARK    6  A    between atoms: C_30  and  C_31 
ROOT
HETATM    1  N   UNK N   1      21.159  14.007   7.760  0.00  0.00    -0.363 N 
HETATM    2  N   UNK N   1      19.873  15.944   6.247  0.00  0.00     0.091 N 
HETATM    3  C   UNK N   1      20.679  13.621   6.458  0.00  0.00     0.154 C 
HETATM    4  C   UNK N   1      20.383  14.982   8.467  0.00  0.00     0.154 C 
HETATM    5  C   UNK N   1      20.629  14.874   5.592  0.00  0.00     0.292 C 
HETATM    6  C   UNK N   1      20.400  16.228   7.594  0.00  0.00     0.292 C 
ENDROOT
BRANCH   2   7
HETATM    7  C   UNK N   1      20.119  17.135   5.447  0.00  0.00     0.272 C 
BRANCH   7   8
HETATM    8  C   UNK N   1      20.444  16.777   4.008  0.00  0.00     0.032 C 
BRANCH   8   9
HETATM    9  C   UNK N   1      21.673  17.522   3.528  0.00  0.00     0.022 C 
BRANCH   9  10
HETATM   10  C   UNK N   1      22.280  18.304   4.680  0.00  0.00     0.135 C 
BRANCH  10  11
HETATM   11  N   UNK N   1      23.683  18.459   4.401  0.00  0.00    -0.288 N 
HETATM   12  C   UNK N   1      24.609  17.535   4.680  0.00  0.00     0.231 C 
HETATM   13  O   UNK N   1      24.356  16.500   5.281  0.00  0.00    -0.273 OA
HETATM   14  C   UNK N   1      25.985  17.959   4.262  0.00  0.00     0.091 C 
HETATM   15  C   UNK N   1      25.648  19.218   3.381  0.00  0.00     0.091 C 
HETATM   16  C   UNK N   1      26.715  18.304   5.565  0.00  0.00     0.015 C 
HETATM   17  C   UNK N   1      24.231  19.492   3.752  0.00  0.00     0.231 C 
HETATM   18  C   UNK N   1      26.651  20.374   3.449  0.00  0.00     0.015 C 
HETATM   19  O   UNK N   1      23.588  20.452   3.352  0.00  0.00    -0.273 OA
HETATM   20  C   UNK N   1      27.188  20.606   4.850  0.00  0.00     0.001 C 
HETATM   21  C   UNK N   1      27.824  19.318   5.344  0.00  0.00     0.001 C 
ENDBRANCH  10  11
ENDBRANCH   9  10
ENDBRANCH   8   9
ENDBRANCH   7   8
ENDBRANCH   2   7
BRANCH   1  22
HETATM   22  C   UNK N   1      22.512  13.794   8.155  0.00  0.00     0.121 A 
HETATM   23  N   UNK N   1      23.551  14.086   7.308  0.00  0.00    -0.311 N 
HETATM   24  S   UNK N   1      24.906  13.615   8.122  0.00  0.00    -0.013 SA
ATOM     25  HN  UNK N   1      23.498  14.503   6.378  1.00  0.00     0.176 HD
HETATM   26  C   UNK N   1      24.278  13.025   9.512  0.00  0.00     0.035 A 
HETATM   27  C   UNK N   1      22.903  13.191   9.404  0.00  0.00     0.027 A 
HETATM   28  C   UNK N   1      24.885  12.429  10.610  0.00  0.00     0.021 A 
HETATM   29  C   UNK N   1      22.073  12.739  10.434  0.00  0.00     0.017 A 
HETATM   30  C   UNK N   1      22.654  12.132  11.560  0.00  0.00     0.001 A 
HETATM   31  C   UNK N   1      24.053  11.978  11.647  0.00  0.00     0.001 A 
ENDBRANCH   1  22
TORSDOF 6
ENDMDL
MODEL 3
REMARK VINA RESULT:      -7.7      2.352      4.419
REMARK  6 active torsions:
REMARK  status: ('A' for Active; 'I' for Inactive)
REMARK    1  A    between atoms: N_4  and  C_18 
REMARK    2  A    between atoms: N_5  and  C_13 
REMARK    3  A    between atoms: N_8  and  C_30 
REMARK    4  A    between atoms: C_18  and  C_29 
REMARK    5  A    between atoms: C_29  and  C_31 
REMARK    6  A    between atoms: C_30  and  C_31 
ROOT
HETATM    1  N   UNK N   1      35.333  15.557   9.810  0.00  0.00    -0.363 N 
HETATM    2  N   UNK N   1      36.688  14.131  11.767  0.00  0.00     0.091 N 
HETATM    3  C   UNK N   1      36.151  14.453   9.379  0.00  0.00     0.154 C 
HETATM    4  C   UNK N   1      35.793  16.288  10.954  0.00  0.00     0.154 C 
HETATM    5  C   UNK N   1      36.247  13.467  10.538  0.00  0.00     0.292 C 
HETATM    6  C   UNK N   1      35.827  15.281  12.095  0.00  0.00     0.292 C 
ENDROOT
BRANCH   2   7
HETATM    7  C   UNK N   1      36.491  13.151  12.826  0.00  0.00     0.272 C 
BRANCH   7   8
HETATM    8  C   UNK N   1      35.502  13.650  13.864  0.00  0.00     0.032 C 
BRANCH   8   9
HETATM    9  C   UNK N   1      35.919  13.226  15.258  0.00  0.00     0.022 C 
BRANCH   9  10
HETATM   10  C   UNK N   1      34.686  13.010  16.117  0.00  0.00     0.135 C 
BRANCH  10  11
HETATM   11  N   UNK N   1      35.011  12.001  17.089  0.00  0.00    -0.288 N 
HETATM   12  C   UNK N   1      35.093  10.695  16.814  0.00  0.00     0.231 C 
HETATM   13  O   UNK N   1      34.813  10.226  15.720  0.00  0.00    -0.273 OA
HETATM   14  C   UNK N   1      35.469   9.879  18.015  0.00  0.00     0.091 C 
HETATM   15  C   UNK N   1      35.903  11.014  19.015  0.00  0.00     0.091 C 
HETATM   16  C   UNK N   1      34.182   9.159  18.434  0.00  0.00     0.015 C 
HETATM   17  C   UNK N   1      35.361  12.237  18.358  0.00  0.00     0.231 C 
HETATM   18  C   UNK N   1      35.569  10.775  20.490  0.00  0.00     0.015 C 
HETATM   19  O   UNK N   1      35.404  13.357  18.847  0.00  0.00    -0.273 OA
HETATM   20  C   UNK N   1      34.208  10.131  20.688  0.00  0.00     0.001 C 
HETATM   21  C   UNK N   1      34.172   8.825  19.915  0.00  0.00     0.001 C 
ENDBRANCH  10  11
ENDBRANCH   9  10
ENDBRANCH   8   9
ENDBRANCH   7   8
ENDBRANCH   2   7
BRANCH   1  22
HETATM   22  C   UNK N   1      33.963  15.668   9.435  0.00  0.00     0.121 A 
HETATM   23  N   UNK N   1      32.973  15.091  10.189  0.00  0.00    -0.311 N 
HETATM   24  S   UNK N   1      31.580  15.389   9.358  0.00  0.00    -0.013 SA
ATOM     25  HN  UNK N   1      33.076  14.587  11.070  1.00  0.00     0.176 HD
HETATM   26  C   UNK N   1      32.131  16.205   8.052  0.00  0.00     0.035 A 
HETATM   27  C   UNK N   1      33.507  16.300   8.222  0.00  0.00     0.027 A 
HETATM   28  C   UNK N   1      31.470  16.705   6.939  0.00  0.00     0.021 A 
HETATM   29  C   UNK N   1      34.280  16.919   7.235  0.00  0.00     0.017 A 
HETATM   30  C   UNK N   1      33.643  17.436   6.096  0.00  0.00     0.001 A 
HETATM   31  C   UNK N   1      32.244  17.330   5.948  0.00  0.00     0.001 A 
ENDBRANCH   1  22
TORSDOF 6
ENDMDL
MODEL 4
REMARK VINA RESULT:      -7.6      3.884     10.061
REMARK  6 active torsions:
REMARK  status: ('A' for Active; 'I' for Inactive)
REMARK    1  A    between atoms: N_4  and  C_18 
REMARK    2  A    between atoms: N_5  and  C_13 
REMARK    3  A    between atoms: N_8  and  C_30 
REMARK    4  A    between atoms: C_18  and  C_29 
REMARK    5  A    between atoms: C_29  and  C_31 
REMARK    6  A    between atoms: C_30  and  C_31 
ROOT
HETATM    1  N   UNK N   1      36.793   9.870  14.901  0.00  0.00    -0.363 N 
HETATM    2  N   UNK N   1      35.961  11.432  12.764  0.00  0.00     0.091 N 
HETATM    3  C   UNK N   1      37.794  10.648  14.219  0.00  0.00     0.154 C 
HETATM    4  C   UNK N   1      35.717   9.365  14.100  0.00  0.00     0.154 C 
HETATM    5  C   UNK N   1      37.099  11.848  13.588  0.00  0.00     0.292 C 
HETATM    6  C   UNK N   1      35.022  10.593  13.530  0.00  0.00     0.292 C 
ENDROOT
BRANCH   2   7
HETATM    7  C   UNK N   1      35.250  12.661  12.441  0.00  0.00     0.272 C 
BRANCH   7   8
HETATM    8  C   UNK N   1      35.935  13.872  13.046  0.00  0.00     0.032 C 
BRANCH   8   9
HETATM    9  C   UNK N   1      35.644  15.121  12.238  0.00  0.00     0.022 C 
BRANCH   9  10
HETATM   10  C   UNK N   1      36.042  14.897  10.790  0.00  0.00     0.135 C 
BRANCH  10  11
HETATM   11  N   UNK N   1      35.014  15.479   9.968  0.00  0.00    -0.288 N 
HETATM   12  C   UNK N   1      34.007  14.785   9.425  0.00  0.00     0.231 C 
HETATM   13  O   UNK N   1      33.916  13.569   9.507  0.00  0.00    -0.273 OA
HETATM   14  C   UNK N   1      33.076  15.654   8.634  0.00  0.00     0.091 C 
HETATM   15  C   UNK N   1      33.564  17.083   9.074  0.00  0.00     0.091 C 
HETATM   16  C   UNK N   1      33.374  15.334   7.164  0.00  0.00     0.015 C 
HETATM   17  C   UNK N   1      34.875  16.785   9.716  0.00  0.00     0.231 C 
HETATM   18  C   UNK N   1      33.516  18.171   7.996  0.00  0.00     0.015 C 
HETATM   19  O   UNK N   1      35.647  17.636  10.135  0.00  0.00    -0.273 OA
HETATM   20  C   UNK N   1      33.935  17.663   6.628  0.00  0.00     0.001 C 
HETATM   21  C   UNK N   1      33.038  16.497   6.249  0.00  0.00     0.001 C 
ENDBRANCH  10  11
ENDBRANCH   9  10
ENDBRANCH   8   9
ENDBRANCH   7   8
ENDBRANCH   2   7
BRANCH   1  22
HETATM   22  C   UNK N   1      36.615   9.946  16.312  0.00  0.00     0.121 A 
HETATM   23  N   UNK N   1      36.867   8.864  17.118  0.00  0.00    -0.311 N 
HETATM   24  S   UNK N   1      36.455   9.361  18.635  0.00  0.00    -0.013 SA
ATOM     25  HN  UNK N   1      37.230   7.952  16.839  1.00  0.00     0.176 HD
HETATM   26  C   UNK N   1      35.939  10.890  18.364  0.00  0.00     0.035 A 
HETATM   27  C   UNK N   1      36.087  11.099  16.999  0.00  0.00     0.027 A 
HETATM   28  C   UNK N   1      35.412  11.844  19.223  0.00  0.00     0.021 A 
HETATM   29  C   UNK N   1      35.688  12.318  16.443  0.00  0.00     0.017 A 
HETATM   30  C   UNK N   1      35.151  13.306  17.284  0.00  0.00     0.001 A 
HETATM   31  C   UNK N   1      35.014  13.070  18.668  0.00  0.00     0.001 A 
ENDBRANCH   1  22
TORSDOF 6
ENDMDL
MODEL 5
REMARK VINA RESULT:      -7.6      9.596     12.118
REMARK  6 active torsions:
REMARK  status: ('A' for Active; 'I' for Inactive)
REMARK    1  A    between atoms: N_4  and  C_18 
REMARK    2  A    between atoms: N_5  and  C_13 
REMARK    3  A    between atoms: N_8  and  C_30 
REMARK    4  A    between atoms: C_18  and  C_29 
REMARK    5  A    between atoms: C_29  and  C_31 
REMARK    6  A    between atoms: C_30  and  C_31 
ROOT
HETATM    1  N   UNK N   1      22.778  17.695   4.282  0.00  0.00    -0.363 N 
HETATM    2  N   UNK N   1      20.389  16.916   5.456  0.00  0.00     0.091 N 
HETATM    3  C   UNK N   1      21.943  18.730   4.835  0.00  0.00     0.154 C 
HETATM    4  C   UNK N   1      22.108  16.564   3.713  0.00  0.00     0.154 C 
HETATM    5  C   UNK N   1      21.098  18.103   5.938  0.00  0.00     0.292 C 
HETATM    6  C   UNK N   1      21.318  15.942   4.855  0.00  0.00     0.292 C 
ENDROOT
BRANCH   2   7
HETATM    7  C   UNK N   1      19.840  16.284   6.648  0.00  0.00     0.272 C 
BRANCH   7   8
HETATM    8  C   UNK N   1      20.414  16.898   7.912  0.00  0.00     0.032 C 
BRANCH   8   9
HETATM    9  C   UNK N   1      20.638  15.841   8.975  0.00  0.00     0.022 C 
BRANCH   9  10
HETATM   10  C   UNK N   1      20.200  14.485   8.448  0.00  0.00     0.135 C 
BRANCH  10  11
HETATM   11  N   UNK N   1      21.144  13.512   8.932  0.00  0.00    -0.288 N 
HETATM   12  C   UNK N   1      20.953  12.762  10.022  0.00  0.00     0.231 C 
HETATM   13  O   UNK N   1      19.989  12.896  10.763  0.00  0.00    -0.273 OA
HETATM   14  C   UNK N   1      22.092  11.821  10.276  0.00  0.00     0.091 C 
HETATM   15  C   UNK N   1      22.881  11.944   8.921  0.00  0.00     0.091 C 
HETATM   16  C   UNK N   1      22.845  12.412  11.475  0.00  0.00     0.015 C 
HETATM   17  C   UNK N   1      22.279  13.165   8.315  0.00  0.00     0.231 C 
HETATM   18  C   UNK N   1      24.407  11.863   9.021  0.00  0.00     0.015 C 
HETATM   19  O   UNK N   1      22.661  13.678   7.273  0.00  0.00    -0.273 OA
HETATM   20  C   UNK N   1      24.957  12.590  10.235  0.00  0.00     0.001 C 
HETATM   21  C   UNK N   1      24.309  12.011  11.481  0.00  0.00     0.001 C 
ENDBRANCH  10  11
ENDBRANCH   9  10
ENDBRANCH   8   9
ENDBRANCH   7   8
ENDBRANCH   2   7
BRANCH   1  22
HETATM   22  C   UNK N   1      24.150  17.564   4.645  0.00  0.00     0.121 A 
HETATM   23  N   UNK N   1      24.567  16.563   5.486  0.00  0.00    -0.311 N 
HETATM   24  S   UNK N   1      26.180  16.834   5.698  0.00  0.00    -0.013 SA
ATOM     25  HN  UNK N   1      24.003  15.815   5.891  1.00  0.00     0.176 HD
HETATM   26  C   UNK N   1      26.420  18.180   4.800  0.00  0.00     0.035 A 
HETATM   27  C   UNK N   1      25.183  18.489   4.250  0.00  0.00     0.027 A 
HETATM   28  C   UNK N   1      27.555  18.952   4.593  0.00  0.00     0.021 A 
HETATM   29  C   UNK N   1      25.051  19.629   3.451  0.00  0.00     0.017 A 
HETATM   30  C   UNK N   1      26.180  20.432   3.220  0.00  0.00     0.001 A 
HETATM   31  C   UNK N   1      27.426  20.095   3.788  0.00  0.00     0.001 A 
ENDBRANCH   1  22
TORSDOF 6
ENDMDL
MODEL 6
REMARK VINA RESULT:      -7.6      3.464      9.891
REMARK  6 active torsions:
REMARK  status: ('A' for Active; 'I' for Inactive)
REMARK    1  A    between atoms: N_4  and  C_18 
REMARK    2  A    between atoms: N_5  and  C_13 
REMARK    3  A    between atoms: N_8  and  C_30 
REMARK    4  A    between atoms: C_18  and  C_29 
REMARK    5  A    between atoms: C_29  and  C_31 
REMARK    6  A    between atoms: C_30  and  C_31 
ROOT
HETATM    1  N   UNK N   1      36.329  12.198  12.847  0.00  0.00    -0.363 N 
HETATM    2  N   UNK N   1      36.563  12.500  10.100  0.00  0.00     0.091 N 
HETATM    3  C   UNK N   1      37.539  11.723  12.229  0.00  0.00     0.154 C 
HETATM    4  C   UNK N   1      35.128  12.093  12.072  0.00  0.00     0.154 C 
HETATM    5  C   UNK N   1      37.755  12.526  10.952  0.00  0.00     0.292 C 
HETATM    6  C   UNK N   1      35.367  12.946  10.834  0.00  0.00     0.292 C 
ENDROOT
BRANCH   2   7
HETATM    7  C   UNK N   1      36.809  13.494   9.064  0.00  0.00     0.272 C 
BRANCH   7   8
HETATM    8  C   UNK N   1      35.735  13.451   7.992  0.00  0.00     0.032 C 
BRANCH   8   9
HETATM    9  C   UNK N   1      35.558  14.812   7.348  0.00  0.00     0.022 C 
BRANCH   9  10
HETATM   10  C   UNK N   1      34.448  15.571   8.053  0.00  0.00     0.135 C 
BRANCH  10  11
HETATM   11  N   UNK N   1      33.457  15.902   7.063  0.00  0.00    -0.288 N 
HETATM   12  C   UNK N   1      32.346  15.191   6.847  0.00  0.00     0.231 C 
HETATM   13  O   UNK N   1      32.109  14.136   7.419  0.00  0.00    -0.273 OA
HETATM   14  C   UNK N   1      31.489  15.781   5.768  0.00  0.00     0.091 C 
HETATM   15  C   UNK N   1      32.173  17.186   5.588  0.00  0.00     0.091 C 
HETATM   16  C   UNK N   1      31.667  14.856   4.558  0.00  0.00     0.015 C 
HETATM   17  C   UNK N   1      33.468  17.000   6.299  0.00  0.00     0.231 C 
HETATM   18  C   UNK N   1      32.204  17.740   4.160  0.00  0.00     0.015 C 
HETATM   19  O   UNK N   1      34.361  17.836   6.336  0.00  0.00    -0.273 OA
HETATM   20  C   UNK N   1      32.483  16.671   3.119  0.00  0.00     0.001 C 
HETATM   21  C   UNK N   1      31.431  15.584   3.247  0.00  0.00     0.001 C 
ENDBRANCH  10  11
ENDBRANCH   9  10
ENDBRANCH   8   9
ENDBRANCH   7   8
ENDBRANCH   2   7
BRANCH   1  22
HETATM   22  C   UNK N   1      36.353  13.101  13.949  0.00  0.00     0.121 A 
HETATM   23  N   UNK N   1      36.914  14.348  13.831  0.00  0.00    -0.311 N 
HETATM   24  S   UNK N   1      36.802  15.007  15.338  0.00  0.00    -0.013 SA
ATOM     25  HN  UNK N   1      37.312  14.774  12.993  1.00  0.00     0.176 HD
HETATM   26  C   UNK N   1      36.094  13.801  16.185  0.00  0.00     0.035 A 
HETATM   27  C   UNK N   1      35.887  12.773  15.273  0.00  0.00     0.027 A 
HETATM   28  C   UNK N   1      35.762  13.698  17.529  0.00  0.00     0.021 A 
HETATM   29  C   UNK N   1      35.325  11.570  15.709  0.00  0.00     0.017 A 
HETATM   30  C   UNK N   1      34.976  11.432  17.063  0.00  0.00     0.001 A 
HETATM   31  C   UNK N   1      35.193  12.492  17.968  0.00  0.00     0.001 A 
ENDBRANCH   1  22
TORSDOF 6
ENDMDL
MODEL 7
REMARK VINA RESULT:      -7.5      7.216     10.777
REMARK  6 active torsions:
REMARK  status: ('A' for Active; 'I' for Inactive)
REMARK    1  A    between atoms: N_4  and  C_18 
REMARK    2  A    between atoms: N_5  and  C_13 
REMARK    3  A    between atoms: N_8  and  C_30 
REMARK    4  A    between atoms: C_18  and  C_29 
REMARK    5  A    between atoms: C_29  and  C_31 
REMARK    6  A    between atoms: C_30  and  C_31 
ROOT
HETATM    1  N   UNK N   1      22.494  14.051   7.155  0.00  0.00    -0.363 N 
HETATM    2  N   UNK N   1      23.315  15.304   4.819  0.00  0.00     0.091 N 
HETATM    3  C   UNK N   1      22.458  13.279   5.940  0.00  0.00     0.154 C 
HETATM    4  C   UNK N   1      22.222  15.453   7.033  0.00  0.00     0.154 C 
HETATM    5  C   UNK N   1      23.497  13.861   4.989  0.00  0.00     0.292 C 
HETATM    6  C   UNK N   1      23.307  16.001   6.118  0.00  0.00     0.292 C 
ENDROOT
BRANCH   2   7
HETATM    7  C   UNK N   1      24.501  15.762   4.110  0.00  0.00     0.272 C 
BRANCH   7   8
HETATM    8  C   UNK N   1      25.556  14.673   4.037  0.00  0.00     0.032 C 
BRANCH   8   9
HETATM    9  C   UNK N   1      26.949  15.269   3.982  0.00  0.00     0.022 C 
BRANCH   9  10
HETATM   10  C   UNK N   1      27.778  14.739   5.139  0.00  0.00     0.135 C 
BRANCH  10  11
HETATM   11  N   UNK N   1      28.169  15.869   5.940  0.00  0.00    -0.288 N 
HETATM   12  C   UNK N   1      29.215  16.655   5.665  0.00  0.00     0.231 C 
HETATM   13  O   UNK N   1      29.992  16.433   4.748  0.00  0.00    -0.273 OA
HETATM   14  C   UNK N   1      29.372  17.766   6.659  0.00  0.00     0.091 C 
HETATM   15  C   UNK N   1      28.003  17.667   7.428  0.00  0.00     0.091 C 
HETATM   16  C   UNK N   1      30.582  17.373   7.517  0.00  0.00     0.015 C 
HETATM   17  C   UNK N   1      27.496  16.334   6.998  0.00  0.00     0.231 C 
HETATM   18  C   UNK N   1      28.050  17.975   8.927  0.00  0.00     0.015 C 
HETATM   19  O   UNK N   1      26.477  15.812   7.428  0.00  0.00    -0.273 OA
HETATM   20  C   UNK N   1      29.290  17.420   9.604  0.00  0.00     0.001 C 
HETATM   21  C   UNK N   1      30.516  17.982   8.906  0.00  0.00     0.001 C 
ENDBRANCH  10  11
ENDBRANCH   9  10
ENDBRANCH   8   9
ENDBRANCH   7   8
ENDBRANCH   2   7
BRANCH   1  22
HETATM   22  C   UNK N   1      23.170  13.587   8.320  0.00  0.00     0.121 A 
HETATM   23  N   UNK N   1      24.538  13.481   8.351  0.00  0.00    -0.311 N 
HETATM   24  S   UNK N   1      24.879  12.836   9.829  0.00  0.00    -0.013 SA
ATOM     25  HN  UNK N   1      25.199  13.745   7.620  1.00  0.00     0.176 HD
HETATM   26  C   UNK N   1      23.386  12.643  10.469  0.00  0.00     0.035 A 
HETATM   27  C   UNK N   1      22.502  13.114   9.507  0.00  0.00     0.027 A 
HETATM   28  C   UNK N   1      22.972  12.102  11.678  0.00  0.00     0.021 A 
HETATM   29  C   UNK N   1      21.127  13.045   9.745  0.00  0.00     0.017 A 
HETATM   30  C   UNK N   1      20.672  12.504  10.959  0.00  0.00     0.001 A 
HETATM   31  C   UNK N   1      21.591  12.035  11.921  0.00  0.00     0.001 A 
ENDBRANCH   1  22
TORSDOF 6
ENDMDL
MODEL 8
REMARK VINA RESULT:      -7.5      1.591      2.764
REMARK  6 active torsions:
REMARK  status: ('A' for Active; 'I' for Inactive)
REMARK    1  A    between atoms: N_4  and  C_18 
REMARK    2  A    between atoms: N_5  and  C_13 
REMARK    3  A    between atoms: N_8  and  C_30 
REMARK    4  A    between atoms: C_18  and  C_29 
REMARK    5  A    between atoms: C_29  and  C_31 
REMARK    6  A    between atoms: C_30  and  C_31 
ROOT
HETATM    1  N   UNK N   1      32.106  16.522   5.658  0.00  0.00    -0.363 N 
HETATM    2  N   UNK N   1      34.226  16.215   7.421  0.00  0.00     0.091 N 
HETATM    3  C   UNK N   1      32.418  15.185   6.094  0.00  0.00     0.154 C 
HETATM    4  C   UNK N   1      33.210  17.425   5.519  0.00  0.00     0.154 C 
HETATM    5  C   UNK N   1      33.093  15.287   7.457  0.00  0.00     0.292 C 
HETATM    6  C   UNK N   1      33.823  17.536   6.907  0.00  0.00     0.292 C 
ENDROOT
BRANCH   2   7
HETATM    7  C   UNK N   1      34.608  16.410   8.812  0.00  0.00     0.272 C 
BRANCH   7   8
HETATM    8  C   UNK N   1      34.142  15.256   9.681  0.00  0.00     0.032 C 
BRANCH   8   9
HETATM    9  C   UNK N   1      34.680  15.387  11.092  0.00  0.00     0.022 C 
BRANCH   9  10
HETATM   10  C   UNK N   1      36.062  14.763  11.171  0.00  0.00     0.135 C 
BRANCH  10  11
HETATM   11  N   UNK N   1      36.012  13.737  12.179  0.00  0.00    -0.288 N 
HETATM   12  C   UNK N   1      35.776  12.446  11.923  0.00  0.00     0.231 C 
HETATM   13  O   UNK N   1      35.494  12.029  10.808  0.00  0.00    -0.273 OA
HETATM   14  C   UNK N   1      35.802  11.602  13.162  0.00  0.00     0.091 C 
HETATM   15  C   UNK N   1      36.417  12.618  14.194  0.00  0.00     0.091 C 
HETATM   16  C   UNK N   1      34.336  11.256  13.446  0.00  0.00     0.015 C 
HETATM   17  C   UNK N   1      36.283  13.917  13.477  0.00  0.00     0.231 C 
HETATM   18  C   UNK N   1      35.884  12.524  15.628  0.00  0.00     0.015 C 
HETATM   19  O   UNK N   1      36.568  15.003  13.959  0.00  0.00    -0.273 OA
HETATM   20  C   UNK N   1      34.390  12.264  15.685  0.00  0.00     0.001 C 
HETATM   21  C   UNK N   1      34.091  10.986  14.920  0.00  0.00     0.001 C 
ENDBRANCH  10  11
ENDBRANCH   9  10
ENDBRANCH   8   9
ENDBRANCH   7   8
ENDBRANCH   2   7
BRANCH   1  22
HETATM   22  C   UNK N   1      30.793  17.062   5.773  0.00  0.00     0.121 A 
HETATM   23  N   UNK N   1      30.034  17.323   4.659  0.00  0.00    -0.311 N 
HETATM   24  S   UNK N   1      28.650  18.005   5.241  0.00  0.00    -0.013 SA
ATOM     25  HN  UNK N   1      30.274  17.136   3.685  1.00  0.00     0.176 HD
HETATM   26  C   UNK N   1      28.932  18.026   6.852  0.00  0.00     0.035 A 
HETATM   27  C   UNK N   1      30.187  17.456   7.021  0.00  0.00     0.027 A 
HETATM   28  C   UNK N   1      28.175  18.517   7.907  0.00  0.00     0.021 A 
HETATM   29  C   UNK N   1      30.735  17.367   8.303  0.00  0.00     0.017 A 
HETATM   30  C   UNK N   1      29.996  17.853   9.394  0.00  0.00     0.001 A 
HETATM   31  C   UNK N   1      28.722  18.425   9.197  0.00  0.00     0.001 A 
ENDBRANCH   1  22
TORSDOF 6
ENDMDL
MODEL 9
REMARK VINA RESULT:      -7.5      3.211     10.072
REMARK  6 active torsions:
REMARK  status: ('A' for Active; 'I' for Inactive)
REMARK    1  A    between atoms: N_4  and  C_18 
REMARK    2  A    between atoms: N_5  and  C_13 
REMARK    3  A    between atoms: N_8  and  C_30 
REMARK    4  A    between atoms: C_18  and  C_29 
REMARK    5  A    between atoms: C_29  and  C_31 
REMARK    6  A    between atoms: C_30  and  C_31 
ROOT
HETATM    1  N   UNK N   1      35.589  11.244  14.967  0.00  0.00    -0.363 N 
HETATM    2  N   UNK N   1      36.127  11.823  12.308  0.00  0.00     0.091 N 
HETATM    3  C   UNK N   1      36.878  10.861  14.453  0.00  0.00     0.154 C 
HETATM    4  C   UNK N   1      34.489  11.189  14.049  0.00  0.00     0.154 C 
HETATM    5  C   UNK N   1      37.211  11.792  13.293  0.00  0.00     0.292 C 
HETATM    6  C   UNK N   1      34.839  12.166  12.936  0.00  0.00     0.292 C 
ENDROOT
BRANCH   2   7
HETATM    7  C   UNK N   1      36.455  12.920  11.409  0.00  0.00     0.272 C 
BRANCH   7   8
HETATM    8  C   UNK N   1      35.232  13.764  11.098  0.00  0.00     0.032 C 
BRANCH   8   9
HETATM    9  C   UNK N   1      34.993  13.843   9.604  0.00  0.00     0.022 C 
BRANCH   9  10
HETATM   10  C   UNK N   1      35.876  14.922   9.001  0.00  0.00     0.135 C 
BRANCH  10  11
HETATM   11  N   UNK N   1      35.010  15.871   8.352  0.00  0.00    -0.288 N 
HETATM   12  C   UNK N   1      34.510  16.959   8.948  0.00  0.00     0.231 C 
HETATM   13  O   UNK N   1      34.676  17.203  10.134  0.00  0.00    -0.273 OA
HETATM   14  C   UNK N   1      33.657  17.776   8.025  0.00  0.00     0.091 C 
HETATM   15  C   UNK N   1      34.000  17.109   6.642  0.00  0.00     0.091 C 
HETATM   16  C   UNK N   1      32.214  17.526   8.480  0.00  0.00     0.015 C 
HETATM   17  C   UNK N   1      34.668  15.845   7.059  0.00  0.00     0.231 C 
HETATM   18  C   UNK N   1      32.851  17.023   5.633  0.00  0.00     0.015 C 
HETATM   19  O   UNK N   1      35.032  14.970   6.285  0.00  0.00    -0.273 OA
HETATM   20  C   UNK N   1      31.523  16.676   6.282  0.00  0.00     0.001 C 
HETATM   21  C   UNK N   1      31.219  17.715   7.349  0.00  0.00     0.001 C 
ENDBRANCH  10  11
ENDBRANCH   9  10
ENDBRANCH   8   9
ENDBRANCH   7   8
ENDBRANCH   2   7
BRANCH   1  22
HETATM   22  C   UNK N   1      35.454  12.034  16.145  0.00  0.00     0.121 A 
HETATM   23  N   UNK N   1      35.546  13.402  16.096  0.00  0.00    -0.311 N 
HETATM   24  S   UNK N   1      35.420  13.892  17.665  0.00  0.00    -0.013 SA
ATOM     25  HN  UNK N   1      35.666  13.988  15.268  1.00  0.00     0.176 HD
HETATM   26  C   UNK N   1      35.273  12.468  18.455  0.00  0.00     0.035 A 
HETATM   27  C   UNK N   1      35.303  11.488  17.471  0.00  0.00     0.027 A 
HETATM   28  C   UNK N   1      35.174  12.178  19.809  0.00  0.00     0.021 A 
HETATM   29  C   UNK N   1      35.237  10.141  17.840  0.00  0.00     0.017 A 
HETATM   30  C   UNK N   1      35.136   9.812  19.202  0.00  0.00     0.001 A 
HETATM   31  C   UNK N   1      35.104  10.826  20.182  0.00  0.00     0.001 A 
ENDBRANCH   1  22
TORSDOF 6
ENDMDL
