REMARK  2 active torsions:
REMARK  status: ('A' for Active; 'I' for Inactive)
REMARK    1  A    between atoms: N_1  and  C_2 
REMARK    2  A    between atoms: C_15  and  N_20 
ROOT
HETATM    1  N   UNK N   1      15.473  -9.433  -0.100  0.00  0.00    -0.266 N 
HETATM    2  C   UNK N   1      14.721 -10.573  -0.078  0.00  0.00     0.262 A 
HETATM    3  C   UNK N   1      14.600  -8.379  -0.064  0.00  0.00     0.264 A 
HETATM    4  C   UNK N   1      13.302 -10.241  -0.009  0.00  0.00     0.050 A 
HETATM    5  O   UNK N   1      15.173 -11.708  -0.132  0.00  0.00    -0.267 OA
HETATM    6  C   UNK N   1      13.224  -8.872  -0.004  0.00  0.00     0.074 A 
HETATM    7  O   UNK N   1      14.901  -7.202  -0.123  0.00  0.00    -0.267 OA
HETATM    8  C   UNK N   1      12.163 -11.043   0.024  0.00  0.00     0.018 A 
HETATM    9  C   UNK N   1      11.994  -8.215   0.030  0.00  0.00     0.042 A 
HETATM   10  C   UNK N   1      10.910 -10.404   0.065  0.00  0.00     0.003 A 
HETATM   11  C   UNK N   1      10.824  -8.994   0.066  0.00  0.00     0.030 A 
ENDROOT
BRANCH   1  12
HETATM   12  C   UNK N   1      16.950  -9.434  -0.235  0.00  0.00     0.189 C 
HETATM   13  C   UNK N   1      17.791  -8.176  -0.000  0.00  0.00     0.247 C 
HETATM   14  N   UNK N   1      19.146  -8.277   0.046  0.00  0.00    -0.296 N 
HETATM   15  O   UNK N   1      17.290  -7.080   0.155  0.00  0.00    -0.271 OA
HETATM   16  C   UNK N   1      19.800  -9.466  -0.022  0.00  0.00     0.224 C 
HETATM   17  H   UNK N   1      19.676  -7.452   0.133  0.00  0.00     0.171 HD
HETATM   18  O   UNK N   1      21.019  -9.482  -0.007  0.00  0.00    -0.273 OA
HETATM   19  C   UNK N   1      19.048 -10.768  -0.090  0.00  0.00     0.106 C 
HETATM   20  C   UNK N   1      17.631 -10.612   0.457  0.00  0.00     0.045 C 
ENDBRANCH   1  12
BRANCH   9  21
HETATM   21  N   UNK N   1      11.917  -6.807   0.021  0.00  0.00    -0.398 N 
HETATM   22  H   UNK N   1      12.742  -6.270   0.014  0.00  0.00     0.156 HD
HETATM   23  H   UNK N   1      11.039  -6.362   0.021  0.00  0.00     0.156 HD
ENDBRANCH   9  21
TORSDOF 2
