MODEL 1
REMARK VINA RESULT:      -5.9      0.000      0.000
REMARK  2 active torsions:
REMARK  status: ('A' for Active; 'I' for Inactive)
REMARK    1  A    between atoms: O_19  and  C_9 
REMARK    2  A    between atoms: O_20  and  C_10 
REMARK       I    between atoms: N_18  and  C_11 
ROOT
HETATM    1  C   UNK N   1      33.593  12.840   9.168  0.00  0.00     0.069 C 
HETATM    2  C   UNK N   1      37.582  15.597  16.147  0.00  0.00     0.070 C 
HETATM    3  C   UNK N   1      34.454  15.167   9.439  0.00  0.00     0.081 A 
HETATM    4  C   UNK N   1      36.524  13.444  15.270  0.00  0.00     0.084 A 
HETATM    5  C   UNK N   1      34.280  13.887   9.966  0.00  0.00     0.027 A 
HETATM    6  C   UNK N   1      36.870  14.771  15.138  0.00  0.00     0.027 A 
HETATM    7  C   UNK N   1      35.106  16.127  10.223  0.00  0.00     0.158 A 
HETATM    8  C   UNK N   1      35.891  13.142  14.078  0.00  0.00     0.183 A 
HETATM    9  C   UNK N   1      35.371  14.535  11.963  0.00  0.00     0.708 A 
HETATM   10  N   UNK N   1      34.741  13.598  11.211  0.00  0.00    -0.194 N 
ATOM     11  HN  UNK N   1      34.610  12.659  11.587  1.00  0.00     0.184 HD
HETATM   12  N   UNK N   1      35.543  15.786  11.457  0.00  0.00    -0.169 N 
ATOM     13  HN  UNK N   1      36.017  16.488  12.026  1.00  0.00     0.186 HD
HETATM   14  N   UNK N   1      36.474  15.236  13.947  0.00  0.00    -0.282 N 
ATOM     15  HN  UNK N   1      36.611  16.186  13.605  1.00  0.00     0.188 HD
HETATM   16  N   UNK N   1      35.876  14.259  13.285  0.00  0.00    -0.063 N 
ENDROOT
BRANCH   7  17
HETATM   17  O   UNK N   1      35.316  17.391   9.786  0.00  0.00    -0.340 OA
HETATM   18  C   UNK N   1      34.693  17.925   8.683  0.00  0.00     0.211 C 
ENDBRANCH   7  17
BRANCH   8  19
HETATM   19  O   UNK N   1      35.402  11.897  13.837  0.00  0.00    -0.339 OA
HETATM   20  C   UNK N   1      34.212  11.360  14.246  0.00  0.00     0.211 C 
ENDBRANCH   8  19
TORSDOF 2
ENDMDL
MODEL 2
REMARK VINA RESULT:      -5.5     13.501     15.517
REMARK  2 active torsions:
REMARK  status: ('A' for Active; 'I' for Inactive)
REMARK    1  A    between atoms: O_19  and  C_9 
REMARK    2  A    between atoms: O_20  and  C_10 
REMARK       I    between atoms: N_18  and  C_11 
ROOT
HETATM    1  C   UNK N   1      19.887  11.935  11.884  0.00  0.00     0.069 C 
HETATM    2  C   UNK N   1      21.639  17.902   6.094  0.00  0.00     0.070 C 
HETATM    3  C   UNK N   1      22.091  12.136  10.731  0.00  0.00     0.081 A 
HETATM    4  C   UNK N   1      19.689  17.192   7.581  0.00  0.00     0.084 A 
HETATM    5  C   UNK N   1      20.791  12.606  10.916  0.00  0.00     0.027 A 
HETATM    6  C   UNK N   1      20.975  17.047   7.110  0.00  0.00     0.027 A 
HETATM    7  C   UNK N   1      22.913  12.796   9.808  0.00  0.00     0.158 A 
HETATM    8  C   UNK N   1      19.549  16.167   8.499  0.00  0.00     0.183 A 
HETATM    9  C   UNK N   1      21.153  14.311   9.316  0.00  0.00     0.708 A 
HETATM   10  N   UNK N   1      20.350  13.679  10.208  0.00  0.00    -0.194 N 
ATOM     11  HN  UNK N   1      19.398  14.016  10.351  1.00  0.00     0.184 HD
HETATM   12  N   UNK N   1      22.423  13.858   9.129  0.00  0.00    -0.169 N 
ATOM     13  HN  UNK N   1      23.023  14.336   8.457  1.00  0.00     0.186 HD
HETATM   14  N   UNK N   1      21.570  16.005   7.704  0.00  0.00    -0.282 N 
ATOM     15  HN  UNK N   1      22.523  15.687   7.529  1.00  0.00     0.188 HD
HETATM   16  N   UNK N   1      20.719  15.455   8.554  0.00  0.00    -0.063 N 
ENDROOT
BRANCH   7  17
HETATM   17  O   UNK N   1      24.187  12.405   9.572  0.00  0.00    -0.340 OA
HETATM   18  C   UNK N   1      25.240  13.281   9.456  0.00  0.00     0.211 C 
ENDBRANCH   7  17
BRANCH   8  19
HETATM   19  O   UNK N   1      18.389  15.988   9.184  0.00  0.00    -0.339 OA
HETATM   20  C   UNK N   1      17.319  16.836   9.274  0.00  0.00     0.211 C 
ENDBRANCH   8  19
TORSDOF 2
ENDMDL
MODEL 3
REMARK VINA RESULT:      -5.5      2.655      6.385
REMARK  2 active torsions:
REMARK  status: ('A' for Active; 'I' for Inactive)
REMARK    1  A    between atoms: O_19  and  C_9 
REMARK    2  A    between atoms: O_20  and  C_10 
REMARK       I    between atoms: N_18  and  C_11 
ROOT
HETATM    1  C   UNK N   1      38.069  13.548   9.181  0.00  0.00     0.069 C 
HETATM    2  C   UNK N   1      30.908  18.103   8.747  0.00  0.00     0.070 C 
HETATM    3  C   UNK N   1      36.476  13.803  11.085  0.00  0.00     0.081 A 
HETATM    4  C   UNK N   1      32.863  17.460   7.235  0.00  0.00     0.084 A 
HETATM    5  C   UNK N   1      36.818  14.095   9.765  0.00  0.00     0.027 A 
HETATM    6  C   UNK N   1      32.196  17.430   8.439  0.00  0.00     0.027 A 
HETATM    7  C   UNK N   1      35.288  14.338  11.600  0.00  0.00     0.158 A 
HETATM    8  C   UNK N   1      33.990  16.690   7.455  0.00  0.00     0.183 A 
HETATM    9  C   UNK N   1      34.858  15.397   9.520  0.00  0.00     0.708 A 
HETATM   10  N   UNK N   1      36.005  14.883   9.012  0.00  0.00    -0.194 N 
ATOM     11  HN  UNK N   1      36.264  15.090   8.047  1.00  0.00     0.184 HD
HETATM   12  N   UNK N   1      34.517  15.117  10.807  0.00  0.00    -0.169 N 
ATOM     13  HN  UNK N   1      33.654  15.506  11.185  1.00  0.00     0.186 HD
HETATM   14  N   UNK N   1      32.875  16.690   9.326  0.00  0.00    -0.282 N 
ATOM     15  HN  UNK N   1      32.594  16.511  10.289  1.00  0.00     0.188 HD
HETATM   16  N   UNK N   1      33.971  16.230   8.746  0.00  0.00    -0.063 N 
ENDROOT
BRANCH   7  17
HETATM   17  O   UNK N   1      34.883  14.101  12.869  0.00  0.00    -0.340 OA
HETATM   18  C   UNK N   1      35.383  13.083  13.647  0.00  0.00     0.211 C 
ENDBRANCH   7  17
BRANCH   8  19
HETATM   19  O   UNK N   1      34.907  16.486   6.473  0.00  0.00    -0.339 OA
HETATM   20  C   UNK N   1      34.971  15.455   5.575  0.00  0.00     0.211 C 
ENDBRANCH   8  19
TORSDOF 2
ENDMDL
MODEL 4
REMARK VINA RESULT:      -5.4      8.414     10.935
REMARK  2 active torsions:
REMARK  status: ('A' for Active; 'I' for Inactive)
REMARK    1  A    between atoms: O_19  and  C_9 
REMARK    2  A    between atoms: O_20  and  C_10 
REMARK       I    between atoms: N_18  and  C_11 
ROOT
HETATM    1  C   UNK N   1      25.917  21.610   7.885  0.00  0.00     0.069 C 
HETATM    2  C   UNK N   1      31.097  15.518   5.010  0.00  0.00     0.070 C 
HETATM    3  C   UNK N   1      26.224  21.087   5.464  0.00  0.00     0.081 A 
HETATM    4  C   UNK N   1      30.353  16.501   7.247  0.00  0.00     0.084 A 
HETATM    5  C   UNK N   1      26.544  20.821   6.795  0.00  0.00     0.027 A 
HETATM    6  C   UNK N   1      30.328  16.453   5.870  0.00  0.00     0.027 A 
HETATM    7  C   UNK N   1      26.838  20.320   4.465  0.00  0.00     0.158 A 
HETATM    8  C   UNK N   1      29.478  17.524   7.564  0.00  0.00     0.183 A 
HETATM    9  C   UNK N   1      28.023  19.101   6.121  0.00  0.00     0.708 A 
HETATM   10  N   UNK N   1      27.433  19.837   7.095  0.00  0.00    -0.194 N 
ATOM     11  HN  UNK N   1      27.660  19.649   8.072  1.00  0.00     0.184 HD
HETATM   12  N   UNK N   1      27.716  19.355   4.820  0.00  0.00    -0.169 N 
ATOM     13  HN  UNK N   1      28.162  18.799   4.090  1.00  0.00     0.186 HD
HETATM   14  N   UNK N   1      29.493  17.383   5.391  0.00  0.00    -0.282 N 
ATOM     15  HN  UNK N   1      29.296  17.553   4.405  1.00  0.00     0.188 HD
HETATM   16  N   UNK N   1      28.964  18.047   6.406  0.00  0.00    -0.063 N 
ENDROOT
BRANCH   7  17
HETATM   17  O   UNK N   1      26.580  20.513   3.151  0.00  0.00    -0.340 OA
HETATM   18  C   UNK N   1      25.318  20.452   2.608  0.00  0.00     0.211 C 
ENDBRANCH   7  17
BRANCH   8  19
HETATM   19  O   UNK N   1      29.239  17.871   8.856  0.00  0.00    -0.339 OA
HETATM   20  C   UNK N   1      29.891  18.801   9.619  0.00  0.00     0.211 C 
ENDBRANCH   8  19
TORSDOF 2
ENDMDL
MODEL 5
REMARK VINA RESULT:      -5.3      3.721      7.032
REMARK  2 active torsions:
REMARK  status: ('A' for Active; 'I' for Inactive)
REMARK    1  A    between atoms: O_19  and  C_9 
REMARK    2  A    between atoms: O_20  and  C_10 
REMARK       I    between atoms: N_18  and  C_11 
ROOT
HETATM    1  C   UNK N   1      36.009  13.857   7.346  0.00  0.00     0.069 C 
HETATM    2  C   UNK N   1      29.033  18.234   9.439  0.00  0.00     0.070 C 
HETATM    3  C   UNK N   1      35.263  14.227   9.699  0.00  0.00     0.081 A 
HETATM    4  C   UNK N   1      30.280  17.514   7.330  0.00  0.00     0.084 A 
HETATM    5  C   UNK N   1      35.057  14.424   8.334  0.00  0.00     0.027 A 
HETATM    6  C   UNK N   1      30.131  17.563   8.698  0.00  0.00     0.027 A 
HETATM    7  C   UNK N   1      34.342  14.777  10.599  0.00  0.00     0.158 A 
HETATM    8  C   UNK N   1      31.440  16.784   7.144  0.00  0.00     0.183 A 
HETATM    9  C   UNK N   1      33.095  15.667   8.787  0.00  0.00     0.708 A 
HETATM   10  N   UNK N   1      33.981  15.137   7.907  0.00  0.00    -0.194 N 
ATOM     11  HN  UNK N   1      33.837  15.275   6.907  1.00  0.00     0.184 HD
HETATM   12  N   UNK N   1      33.291  15.480  10.120  0.00  0.00    -0.169 N 
ATOM     13  HN  UNK N   1      32.623  15.880  10.778  1.00  0.00     0.186 HD
HETATM   14  N   UNK N   1      31.133  16.906   9.296  0.00  0.00    -0.282 N 
ATOM     15  HN  UNK N   1      31.254  16.795  10.302  1.00  0.00     0.188 HD
HETATM   16  N   UNK N   1      31.941  16.423   8.367  0.00  0.00    -0.063 N 
ENDROOT
BRANCH   7  17
HETATM   17  O   UNK N   1      34.470  14.629  11.938  0.00  0.00    -0.340 OA
HETATM   18  C   UNK N   1      35.594  14.117  12.541  0.00  0.00     0.211 C 
ENDBRANCH   7  17
BRANCH   8  19
HETATM   19  O   UNK N   1      31.915  16.523   5.898  0.00  0.00    -0.339 OA
HETATM   20  C   UNK N   1      32.110  17.398   4.864  0.00  0.00     0.211 C 
ENDBRANCH   8  19
TORSDOF 2
ENDMDL
MODEL 6
REMARK VINA RESULT:      -5.3      2.495      2.848
REMARK  2 active torsions:
REMARK  status: ('A' for Active; 'I' for Inactive)
REMARK    1  A    between atoms: O_19  and  C_9 
REMARK    2  A    between atoms: O_20  and  C_10 
REMARK       I    between atoms: N_18  and  C_11 
ROOT
HETATM    1  C   UNK N   1      38.945  12.596   9.316  0.00  0.00     0.069 C 
HETATM    2  C   UNK N   1      34.884  13.406  16.737  0.00  0.00     0.070 C 
HETATM    3  C   UNK N   1      37.529  14.564   9.909  0.00  0.00     0.081 A 
HETATM    4  C   UNK N   1      36.425  11.737  15.570  0.00  0.00     0.084 A 
HETATM    5  C   UNK N   1      38.065  13.326  10.263  0.00  0.00     0.027 A 
HETATM    6  C   UNK N   1      35.714  12.916  15.606  0.00  0.00     0.027 A 
HETATM    7  C   UNK N   1      36.704  15.222  10.830  0.00  0.00     0.158 A 
HETATM    8  C   UNK N   1      37.021  11.743  14.321  0.00  0.00     0.183 A 
HETATM    9  C   UNK N   1      36.981  13.431  12.363  0.00  0.00     0.708 A 
HETATM   10  N   UNK N   1      37.781  12.787  11.479  0.00  0.00    -0.194 N 
ATOM     11  HN  UNK N   1      38.179  11.882  11.729  1.00  0.00     0.184 HD
HETATM   12  N   UNK N   1      36.453  14.639  12.025  0.00  0.00    -0.169 N 
ATOM     13  HN  UNK N   1      35.851  15.119  12.693  1.00  0.00     0.186 HD
HETATM   14  N   UNK N   1      35.872  13.587  14.459  0.00  0.00    -0.282 N 
ATOM     15  HN  UNK N   1      35.450  14.488  14.235  1.00  0.00     0.188 HD
HETATM   16  N   UNK N   1      36.665  12.890  13.662  0.00  0.00    -0.063 N 
ENDROOT
BRANCH   7  17
HETATM   17  O   UNK N   1      36.147  16.426  10.565  0.00  0.00    -0.340 OA
HETATM   18  C   UNK N   1      34.931  16.578   9.940  0.00  0.00     0.211 C 
ENDBRANCH   7  17
BRANCH   8  19
HETATM   19  O   UNK N   1      37.819  10.719  13.917  0.00  0.00    -0.339 OA
HETATM   20  C   UNK N   1      38.605   9.903  14.685  0.00  0.00     0.211 C 
ENDBRANCH   8  19
TORSDOF 2
ENDMDL
MODEL 7
REMARK VINA RESULT:      -5.2     18.579     22.098
REMARK  2 active torsions:
REMARK  status: ('A' for Active; 'I' for Inactive)
REMARK    1  A    between atoms: O_19  and  C_9 
REMARK    2  A    between atoms: O_20  and  C_10 
REMARK       I    between atoms: N_18  and  C_11 
ROOT
HETATM    1  C   UNK N   1      28.787  20.859  -7.716  0.00  0.00     0.069 C 
HETATM    2  C   UNK N   1      25.716  27.688  -3.698  0.00  0.00     0.070 C 
HETATM    3  C   UNK N   1      29.780  21.796  -5.626  0.00  0.00     0.081 A 
HETATM    4  C   UNK N   1      25.185  26.282  -5.763  0.00  0.00     0.084 A 
HETATM    5  C   UNK N   1      28.803  21.861  -6.620  0.00  0.00     0.027 A 
HETATM    6  C   UNK N   1      25.944  26.572  -4.651  0.00  0.00     0.027 A 
HETATM    7  C   UNK N   1      29.762  22.760  -4.610  0.00  0.00     0.158 A 
HETATM    8  C   UNK N   1      25.797  25.167  -6.306  0.00  0.00     0.183 A 
HETATM    9  C   UNK N   1      27.857  23.774  -5.599  0.00  0.00     0.708 A 
HETATM   10  N   UNK N   1      27.866  22.844  -6.586  0.00  0.00    -0.194 N 
ATOM     11  HN  UNK N   1      27.155  22.883  -7.317  1.00  0.00     0.184 HD
HETATM   12  N   UNK N   1      28.807  23.718  -4.626  0.00  0.00    -0.169 N 
ATOM     13  HN  UNK N   1      28.797  24.418  -3.885  1.00  0.00     0.186 HD
HETATM   14  N   UNK N   1      26.945  25.690  -4.532  0.00  0.00    -0.282 N 
ATOM     15  HN  UNK N   1      27.648  25.686  -3.793  1.00  0.00     0.188 HD
HETATM   16  N   UNK N   1      26.874  24.825  -5.530  0.00  0.00    -0.063 N 
ENDROOT
BRANCH   7  17
HETATM   17  O   UNK N   1      30.672  22.765  -3.608  0.00  0.00    -0.340 OA
HETATM   18  C   UNK N   1      30.340  22.914  -2.282  0.00  0.00     0.211 C 
ENDBRANCH   7  17
BRANCH   8  19
HETATM   19  O   UNK N   1      25.319  24.581  -7.435  0.00  0.00    -0.339 OA
HETATM   20  C   UNK N   1      25.682  24.819  -8.733  0.00  0.00     0.211 C 
ENDBRANCH   8  19
TORSDOF 2
ENDMDL
MODEL 8
REMARK VINA RESULT:      -5.2      3.006      3.045
REMARK  2 active torsions:
REMARK  status: ('A' for Active; 'I' for Inactive)
REMARK    1  A    between atoms: O_19  and  C_9 
REMARK    2  A    between atoms: O_20  and  C_10 
REMARK       I    between atoms: N_18  and  C_11 
ROOT
HETATM    1  C   UNK N   1      35.968   9.834  10.294  0.00  0.00     0.069 C 
HETATM    2  C   UNK N   1      37.316  15.665  16.326  0.00  0.00     0.070 C 
HETATM    3  C   UNK N   1      37.344  11.887   9.948  0.00  0.00     0.081 A 
HETATM    4  C   UNK N   1      36.084  13.446  16.050  0.00  0.00     0.084 A 
HETATM    5  C   UNK N   1      36.557  11.103  10.791  0.00  0.00     0.027 A 
HETATM    6  C   UNK N   1      36.867  14.471  15.567  0.00  0.00     0.027 A 
HETATM    7  C   UNK N   1      37.882  13.077  10.454  0.00  0.00     0.158 A 
HETATM    8  C   UNK N   1      35.950  12.588  14.973  0.00  0.00     0.183 A 
HETATM    9  C   UNK N   1      36.853  12.655  12.551  0.00  0.00     0.708 A 
HETATM   10  N   UNK N   1      36.329  11.501  12.070  0.00  0.00    -0.194 N 
ATOM     11  HN  UNK N   1      35.754  10.920  12.680  1.00  0.00     0.184 HD
HETATM   12  N   UNK N   1      37.621  13.427  11.734  0.00  0.00    -0.169 N 
ATOM     13  HN  UNK N   1      38.013  14.294  12.100  1.00  0.00     0.186 HD
HETATM   14  N   UNK N   1      37.184  14.245  14.285  0.00  0.00    -0.282 N 
ATOM     15  HN  UNK N   1      37.755  14.854  13.699  1.00  0.00     0.188 HD
HETATM   16  N   UNK N   1      36.636  13.103  13.904  0.00  0.00    -0.063 N 
ENDROOT
BRANCH   7  17
HETATM   17  O   UNK N   1      38.657  13.893   9.702  0.00  0.00    -0.340 OA
HETATM   18  C   UNK N   1      38.932  13.666   8.374  0.00  0.00     0.211 C 
ENDBRANCH   7  17
BRANCH   8  19
HETATM   19  O   UNK N   1      35.230  11.440  15.072  0.00  0.00    -0.339 OA
HETATM   20  C   UNK N   1      33.917  11.231  14.744  0.00  0.00     0.211 C 
ENDBRANCH   8  19
TORSDOF 2
ENDMDL
MODEL 9
REMARK VINA RESULT:      -5.2      6.844      8.863
REMARK  2 active torsions:
REMARK  status: ('A' for Active; 'I' for Inactive)
REMARK    1  A    between atoms: O_19  and  C_9 
REMARK    2  A    between atoms: O_20  and  C_10 
REMARK       I    between atoms: N_18  and  C_11 
ROOT
HETATM    1  C   UNK N   1      33.140  15.174   2.989  0.00  0.00     0.069 C 
HETATM    2  C   UNK N   1      27.985  18.113   9.072  0.00  0.00     0.070 C 
HETATM    3  C   UNK N   1      33.922  16.556   4.915  0.00  0.00     0.081 A 
HETATM    4  C   UNK N   1      27.831  16.703   6.948  0.00  0.00     0.084 A 
HETATM    5  C   UNK N   1      32.875  15.928   4.240  0.00  0.00     0.027 A 
HETATM    6  C   UNK N   1      28.540  17.444   7.868  0.00  0.00     0.027 A 
HETATM    7  C   UNK N   1      33.631  17.258   6.091  0.00  0.00     0.158 A 
HETATM    8  C   UNK N   1      28.787  16.300   6.032  0.00  0.00     0.183 A 
HETATM    9  C   UNK N   1      31.337  16.692   5.868  0.00  0.00     0.708 A 
HETATM   10  N   UNK N   1      31.609  16.009   4.729  0.00  0.00    -0.194 N 
ATOM     11  HN  UNK N   1      30.850  15.546   4.228  1.00  0.00     0.184 HD
HETATM   12  N   UNK N   1      32.353  17.307   6.532  0.00  0.00    -0.169 N 
ATOM     13  HN  UNK N   1      32.145  17.820   7.388  1.00  0.00     0.186 HD
HETATM   14  N   UNK N   1      29.835  17.482   7.530  0.00  0.00    -0.282 N 
ATOM     15  HN  UNK N   1      30.569  17.965   8.048  1.00  0.00     0.188 HD
HETATM   16  N   UNK N   1      30.007  16.791   6.416  0.00  0.00    -0.063 N 
ENDROOT
BRANCH   7  17
HETATM   17  O   UNK N   1      34.590  17.891   6.806  0.00  0.00    -0.340 OA
HETATM   18  C   UNK N   1      34.435  18.264   8.120  0.00  0.00     0.211 C 
ENDBRANCH   7  17
BRANCH   8  19
HETATM   19  O   UNK N   1      28.455  15.535   4.959  0.00  0.00    -0.339 OA
HETATM   20  C   UNK N   1      28.065  15.946   3.713  0.00  0.00     0.211 C 
ENDBRANCH   8  19
TORSDOF 2
ENDMDL
