REMARK  11 active torsions:
REMARK  status: ('A' for Active; 'I' for Inactive)
REMARK    1  A    between atoms: C_9  and  C_8 
REMARK    2  A    between atoms: O_23  and  C_8 
REMARK    3  A    between atoms: O_25  and  C_9 
REMARK    4  A    between atoms: C_11  and  C_10 
REMARK    5  A    between atoms: O_25  and  C_10 
REMARK    6  A    between atoms: O_26  and  C_11 
REMARK    7  A    between atoms: C_18  and  C_13 
REMARK    8  A    between atoms: N_22  and  C_14 
REMARK    9  A    between atoms: C_17  and  C_15 
REMARK   10  A    between atoms: N_22  and  C_16 
REMARK   11  A    between atoms: O_26  and  C_17 
ROOT
HETATM    1  C   UNK N   1       8.092   4.274  -0.263  0.00  0.00     0.001 A 
HETATM    2  C   UNK N   1       9.401   4.645   0.066  0.00  0.00     0.002 A 
HETATM    3  C   UNK N   1       7.100   5.250  -0.392  0.00  0.00     0.020 A 
HETATM    4  C   UNK N   1       9.715   5.991   0.288  0.00  0.00     0.030 A 
HETATM    5  C   UNK N   1       7.412   6.604  -0.196  0.00  0.00     0.066 A 
HETATM    6  C   UNK N   1       8.719   6.966   0.156  0.00  0.00     0.049 A 
ENDROOT
BRANCH   6   7
HETATM    7  N   UNK N   1       8.945   8.327   0.464  0.00  0.00    -0.355 N 
HETATM    8  H   UNK N   1       8.195   8.786   0.906  0.00  0.00     0.166 HD
BRANCH   7   9
HETATM    9  C   UNK N   1      10.078   9.120   0.236  0.00  0.00     0.033 A 
HETATM   10  C   UNK N   1      11.248   8.626  -0.351  0.00  0.00     0.029 A 
HETATM   11  C   UNK N   1      12.276   9.515  -0.685  0.00  0.00     0.003 A 
HETATM   12  C   UNK N   1      12.115  10.893  -0.470  0.00  0.00     0.016 A 
HETATM   13  C   UNK N   1      10.933  11.380   0.107  0.00  0.00     0.050 A 
HETATM   14  C   UNK N   1       9.931  10.484   0.458  0.00  0.00     0.045 A 
BRANCH  13  15
HETATM   15  C   UNK N   1      10.711  12.851   0.301  0.00  0.00     0.417 C 
HETATM   16  F   UNK N   1      10.731  13.481  -0.930  0.00  0.00    -0.166 F 
HETATM   17  F   UNK N   1       9.484  13.095   0.899  0.00  0.00    -0.166 F 
HETATM   18  F   UNK N   1      11.707  13.374   1.102  0.00  0.00    -0.166 F 
ENDBRANCH  13  15
ENDBRANCH   7   9
ENDBRANCH   6   7
BRANCH   5  19
HETATM   19  C   UNK N   1       6.383   7.669  -0.401  0.00  0.00     0.295 C 
HETATM   20  O   UNK N   1       6.724   8.747  -0.876  0.00  0.00    -0.259 OA
BRANCH  19  21
HETATM   21  O   UNK N   1       5.086   7.500  -0.079  0.00  0.00    -0.315 OA
BRANCH  21  22
HETATM   22  C   UNK N   1       4.669   6.586   0.860  0.00  0.00     0.205 C 
BRANCH  22  23
HETATM   23  C   UNK N   1       3.937   5.447   0.180  0.00  0.00     0.194 C 
BRANCH  23  24
HETATM   24  O   UNK N   1       3.185   5.929  -0.896  0.00  0.00    -0.387 OA
BRANCH  24  25
HETATM   25  C   UNK N   1       1.865   5.933  -0.447  0.00  0.00     0.193 C 
BRANCH  25  26
HETATM   26  C   UNK N   1       1.439   7.349  -0.112  0.00  0.00     0.190 C 
BRANCH  26  27
HETATM   27  O   UNK N   1       0.125   7.331   0.349  0.00  0.00    -0.399 OA
HETATM   28  H   UNK N   1      -0.343   8.118   0.670  0.00  0.00     0.209 HD
ENDBRANCH  26  27
ENDBRANCH  25  26
ENDBRANCH  24  25
ENDBRANCH  23  24
ENDBRANCH  22  23
ENDBRANCH  21  22
ENDBRANCH  19  21
ENDBRANCH   5  19
TORSDOF 11
