MODEL 1
REMARK VINA RESULT:      -7.4      0.000      0.000
REMARK  12 active torsions:
REMARK  status: ('A' for Active; 'I' for Inactive)
REMARK    1  A    between atoms: P_1  and  O_4 
REMARK    2  A    between atoms: P_1  and  O_2 
REMARK    3  A    between atoms: P_1  and  N_34 
REMARK    4  A    between atoms: O_2  and  C_28 
REMARK    5  A    between atoms: O_4  and  C_5 
REMARK    6  A    between atoms: C_7  and  C_5 
REMARK    7  A    between atoms: C_8  and  O_35 
REMARK    8  A    between atoms: C_10  and  N_15 
REMARK    9  A    between atoms: C_20  and  C_21 
REMARK   10  A    between atoms: N_34  and  C_20 
REMARK   11  A    between atoms: C_21  and  O_24 
REMARK   12  A    between atoms: O_24  and  C_25 
ROOT
HETATM    1  O   UNK N   1      20.309  14.928   6.002  0.00  0.00    -0.295 OA
ENDROOT
BRANCH   1   2
HETATM    2  P   UNK N   1      21.227  14.017   7.167  0.00  0.00     0.436 P 
HETATM    3  O   UNK N   1      19.870  14.350   7.841  0.00  0.00    -0.234 OA
BRANCH   2   4
HETATM    4  O   UNK N   1      21.619  14.440   8.783  0.00  0.00    -0.256 OA
BRANCH   4   5
HETATM    5  C   UNK N   1      22.130  13.567   9.672  0.00  0.00     0.080 A 
HETATM    6  C   UNK N   1      23.489  13.264   9.599  0.00  0.00     0.037 A 
HETATM    7  C   UNK N   1      24.046  12.314  10.454  0.00  0.00     0.003 A 
HETATM    8  C   UNK N   1      23.243  11.671  11.399  0.00  0.00     0.000 A 
HETATM    9  C   UNK N   1      21.884  11.981  11.493  0.00  0.00     0.003 A 
HETATM   10  C   UNK N   1      21.324  12.923  10.626  0.00  0.00     0.037 A 
ENDBRANCH   4   5
ENDBRANCH   2   4
BRANCH   2  11
HETATM   11  N   UNK N   1      22.230  15.551   6.988  0.00  0.00    -0.314 N 
HETATM   12  H   UNK N   1      22.214  16.264   7.718  0.00  0.00     0.166 HD
BRANCH  11  13
HETATM   13  C   UNK N   1      23.054  15.737   5.781  0.00  0.00     0.183 C 
HETATM   14  C   UNK N   1      24.502  15.343   6.015  0.00  0.00     0.043 C 
BRANCH  13  15
HETATM   15  C   UNK N   1      22.996  17.194   5.409  0.00  0.00     0.281 C 
HETATM   16  O   UNK N   1      22.302  17.953   6.069  0.00  0.00    -0.263 OA
BRANCH  15  17
HETATM   17  O   UNK N   1      23.695  17.691   4.360  0.00  0.00    -0.315 OA
BRANCH  17  18
HETATM   18  C   UNK N   1      24.449  18.838   4.431  0.00  0.00     0.123 C 
HETATM   19  C   UNK N   1      23.923  19.835   3.419  0.00  0.00     0.040 C 
HETATM   20  C   UNK N   1      25.891  18.515   4.102  0.00  0.00     0.040 C 
ENDBRANCH  17  18
ENDBRANCH  15  17
ENDBRANCH  13  15
ENDBRANCH  11  13
ENDBRANCH   2  11
ENDBRANCH   1   2
BRANCH   1  21
HETATM   21  C   UNK N   1      19.692  13.990   5.163  0.00  0.00     0.214 C 
BRANCH  21  22
HETATM   22  C   UNK N   1      20.074  14.187   3.717  0.00  0.00     0.180 C 
HETATM   23  O   UNK N   1      19.042  14.339   2.789  0.00  0.00    -0.353 OA
HETATM   24  C   UNK N   1      19.769  14.845   1.695  0.00  0.00     0.274 C 
HETATM   25  C   UNK N   1      21.047  13.957   1.639  0.00  0.00     0.172 C 
HETATM   26  F   UNK N   1      20.768  12.864   0.832  0.00  0.00    -0.236 F 
HETATM   27  C   UNK N   1      22.306  14.630   1.121  0.00  0.00     0.059 C 
HETATM   28  C   UNK N   1      21.250  13.502   3.080  0.00  0.00     0.193 C 
BRANCH  24  29
HETATM   29  N   UNK N   1      19.993  16.308   1.851  0.00  0.00    -0.279 N 
HETATM   30  C   UNK N   1      20.067  16.856   3.106  0.00  0.00     0.104 A 
HETATM   31  C   UNK N   1      20.232  18.221   3.291  0.00  0.00     0.092 A 
HETATM   32  C   UNK N   1      20.305  19.040   2.176  0.00  0.00     0.250 A 
HETATM   33  O   UNK N   1      20.443  20.241   2.311  0.00  0.00    -0.268 OA
HETATM   34  N   UNK N   1      20.210  18.495   0.923  0.00  0.00    -0.275 N 
HETATM   35  C   UNK N   1      20.051  17.145   0.754  0.00  0.00     0.331 A 
HETATM   36  H   UNK N   1      20.258  19.081   0.133  0.00  0.00     0.173 HD
HETATM   37  O   UNK N   1      19.936  16.694  -0.375  0.00  0.00    -0.246 OA
ENDBRANCH  24  29
BRANCH  28  38
HETATM   38  O   UNK N   1      21.121  12.113   3.190  0.00  0.00    -0.389 OA
HETATM   39  H   UNK N   1      20.807  11.565   2.455  0.00  0.00     0.210 HD
ENDBRANCH  28  38
ENDBRANCH  21  22
ENDBRANCH   1  21
TORSDOF 12
ENDMDL
MODEL 2
REMARK VINA RESULT:      -7.4      2.225      4.068
REMARK  12 active torsions:
REMARK  status: ('A' for Active; 'I' for Inactive)
REMARK    1  A    between atoms: P_1  and  O_4 
REMARK    2  A    between atoms: P_1  and  O_2 
REMARK    3  A    between atoms: P_1  and  N_34 
REMARK    4  A    between atoms: O_2  and  C_28 
REMARK    5  A    between atoms: O_4  and  C_5 
REMARK    6  A    between atoms: C_7  and  C_5 
REMARK    7  A    between atoms: C_8  and  O_35 
REMARK    8  A    between atoms: C_10  and  N_15 
REMARK    9  A    between atoms: C_20  and  C_21 
REMARK   10  A    between atoms: N_34  and  C_20 
REMARK   11  A    between atoms: C_21  and  O_24 
REMARK   12  A    between atoms: O_24  and  C_25 
ROOT
HETATM    1  O   UNK N   1      20.261  15.479   6.209  0.00  0.00    -0.295 OA
ENDROOT
BRANCH   1   2
HETATM    2  P   UNK N   1      20.818  14.379   7.438  0.00  0.00     0.436 P 
HETATM    3  O   UNK N   1      20.723  15.777   8.108  0.00  0.00    -0.234 OA
BRANCH   2   4
HETATM    4  O   UNK N   1      22.217  14.503   8.424  0.00  0.00    -0.256 OA
BRANCH   4   5
HETATM    5  C   UNK N   1      22.517  13.620   9.396  0.00  0.00     0.080 A 
HETATM    6  C   UNK N   1      23.836  13.180   9.509  0.00  0.00     0.037 A 
HETATM    7  C   UNK N   1      24.179  12.214  10.455  0.00  0.00     0.003 A 
HETATM    8  C   UNK N   1      23.200  11.692  11.303  0.00  0.00     0.000 A 
HETATM    9  C   UNK N   1      21.879  12.139  11.210  0.00  0.00     0.003 A 
HETATM   10  C   UNK N   1      21.534  13.097  10.253  0.00  0.00     0.037 A 
ENDBRANCH   4   5
ENDBRANCH   2   4
BRANCH   2  11
HETATM   11  N   UNK N   1      22.210  14.359   6.232  0.00  0.00    -0.314 N 
HETATM   12  H   UNK N   1      22.978  15.025   6.321  0.00  0.00     0.166 HD
BRANCH  11  13
HETATM   13  C   UNK N   1      22.201  13.372   5.138  0.00  0.00     0.183 C 
HETATM   14  C   UNK N   1      23.125  12.200   5.423  0.00  0.00     0.043 C 
BRANCH  13  15
HETATM   15  C   UNK N   1      22.666  14.071   3.889  0.00  0.00     0.281 C 
HETATM   16  O   UNK N   1      23.409  15.035   3.985  0.00  0.00    -0.263 OA
BRANCH  15  17
HETATM   17  O   UNK N   1      22.283  13.658   2.657  0.00  0.00    -0.315 OA
BRANCH  17  18
HETATM   18  C   UNK N   1      22.323  14.466   1.545  0.00  0.00     0.123 C 
HETATM   19  C   UNK N   1      20.975  14.423   0.857  0.00  0.00     0.040 C 
HETATM   20  C   UNK N   1      23.381  13.955   0.590  0.00  0.00     0.040 C 
ENDBRANCH  17  18
ENDBRANCH  15  17
ENDBRANCH  13  15
ENDBRANCH  11  13
ENDBRANCH   2  11
ENDBRANCH   1   2
BRANCH   1  21
HETATM   21  C   UNK N   1      21.119  16.586   6.250  0.00  0.00     0.214 C 
BRANCH  21  22
HETATM   22  C   UNK N   1      20.940  17.485   5.052  0.00  0.00     0.180 C 
HETATM   23  O   UNK N   1      20.784  18.853   5.284  0.00  0.00    -0.353 OA
HETATM   24  C   UNK N   1      21.016  19.349   3.988  0.00  0.00     0.274 C 
HETATM   25  C   UNK N   1      20.212  18.391   3.060  0.00  0.00     0.172 C 
HETATM   26  F   UNK N   1      18.930  18.904   2.930  0.00  0.00    -0.236 F 
HETATM   27  C   UNK N   1      20.785  18.169   1.672  0.00  0.00     0.059 C 
HETATM   28  C   UNK N   1      20.171  17.075   3.828  0.00  0.00     0.193 C 
BRANCH  24  29
HETATM   29  N   UNK N   1      22.476  19.449   3.721  0.00  0.00    -0.279 N 
HETATM   30  C   UNK N   1      23.334  18.534   4.276  0.00  0.00     0.104 A 
HETATM   31  C   UNK N   1      24.705  18.619   4.085  0.00  0.00     0.092 A 
HETATM   32  C   UNK N   1      25.209  19.665   3.329  0.00  0.00     0.250 A 
HETATM   33  O   UNK N   1      26.408  19.766   3.153  0.00  0.00    -0.268 OA
HETATM   34  N   UNK N   1      24.354  20.590   2.793  0.00  0.00    -0.275 N 
HETATM   35  C   UNK N   1      23.002  20.494   2.986  0.00  0.00     0.331 A 
HETATM   36  H   UNK N   1      24.717  21.335   2.260  0.00  0.00     0.173 HD
HETATM   37  O   UNK N   1      22.269  21.353   2.522  0.00  0.00    -0.246 OA
ENDBRANCH  24  29
BRANCH  28  38
HETATM   38  O   UNK N   1      18.858  16.736   4.171  0.00  0.00    -0.389 OA
HETATM   39  H   UNK N   1      18.180  17.407   4.346  0.00  0.00     0.210 HD
ENDBRANCH  28  38
ENDBRANCH  21  22
ENDBRANCH   1  21
TORSDOF 12
ENDMDL
MODEL 3
REMARK VINA RESULT:      -7.3      2.040      2.940
REMARK  12 active torsions:
REMARK  status: ('A' for Active; 'I' for Inactive)
REMARK    1  A    between atoms: P_1  and  O_4 
REMARK    2  A    between atoms: P_1  and  O_2 
REMARK    3  A    between atoms: P_1  and  N_34 
REMARK    4  A    between atoms: O_2  and  C_28 
REMARK    5  A    between atoms: O_4  and  C_5 
REMARK    6  A    between atoms: C_7  and  C_5 
REMARK    7  A    between atoms: C_8  and  O_35 
REMARK    8  A    between atoms: C_10  and  N_15 
REMARK    9  A    between atoms: C_20  and  C_21 
REMARK   10  A    between atoms: N_34  and  C_20 
REMARK   11  A    between atoms: C_21  and  O_24 
REMARK   12  A    between atoms: O_24  and  C_25 
ROOT
HETATM    1  O   UNK N   1      20.115  13.959   5.192  0.00  0.00    -0.295 OA
ENDROOT
BRANCH   1   2
HETATM    2  P   UNK N   1      21.140  13.355   6.463  0.00  0.00     0.436 P 
HETATM    3  O   UNK N   1      19.888  12.437   6.434  0.00  0.00    -0.234 OA
BRANCH   2   4
HETATM    4  O   UNK N   1      20.745  13.079   8.110  0.00  0.00    -0.256 OA
BRANCH   4   5
HETATM    5  C   UNK N   1      21.639  12.654   9.023  0.00  0.00     0.080 A 
HETATM    6  C   UNK N   1      21.247  12.602  10.361  0.00  0.00     0.037 A 
HETATM    7  C   UNK N   1      22.160  12.234  11.349  0.00  0.00     0.003 A 
HETATM    8  C   UNK N   1      23.471  11.903  10.998  0.00  0.00     0.000 A 
HETATM    9  C   UNK N   1      23.868  11.935   9.658  0.00  0.00     0.003 A 
HETATM   10  C   UNK N   1      22.956  12.316   8.671  0.00  0.00     0.037 A 
ENDBRANCH   4   5
ENDBRANCH   2   4
BRANCH   2  11
HETATM   11  N   UNK N   1      20.675  15.024   7.089  0.00  0.00    -0.314 N 
HETATM   12  H   UNK N   1      20.028  15.118   7.872  0.00  0.00     0.166 HD
BRANCH  11  13
HETATM   13  C   UNK N   1      21.251  16.219   6.448  0.00  0.00     0.183 C 
HETATM   14  C   UNK N   1      22.760  16.120   6.309  0.00  0.00     0.043 C 
BRANCH  13  15
HETATM   15  C   UNK N   1      20.916  17.405   7.313  0.00  0.00     0.281 C 
HETATM   16  O   UNK N   1      21.190  18.529   6.919  0.00  0.00    -0.263 OA
BRANCH  15  17
HETATM   17  O   UNK N   1      20.316  17.261   8.519  0.00  0.00    -0.315 OA
BRANCH  17  18
HETATM   18  C   UNK N   1      19.127  17.868   8.847  0.00  0.00     0.123 C 
HETATM   19  C   UNK N   1      19.381  18.888   9.938  0.00  0.00     0.040 C 
HETATM   20  C   UNK N   1      18.155  16.828   9.362  0.00  0.00     0.040 C 
ENDBRANCH  17  18
ENDBRANCH  15  17
ENDBRANCH  13  15
ENDBRANCH  11  13
ENDBRANCH   2  11
ENDBRANCH   1   2
BRANCH   1  21
HETATM   21  C   UNK N   1      20.089  12.968   4.201  0.00  0.00     0.214 C 
BRANCH  21  22
HETATM   22  C   UNK N   1      20.692  13.449   2.905  0.00  0.00     0.180 C 
HETATM   23  O   UNK N   1      19.829  13.668   1.829  0.00  0.00    -0.353 OA
HETATM   24  C   UNK N   1      20.670  14.421   0.989  0.00  0.00     0.274 C 
HETATM   25  C   UNK N   1      22.037  13.675   1.044  0.00  0.00     0.172 C 
HETATM   26  F   UNK N   1      22.038  12.720   0.038  0.00  0.00    -0.236 F 
HETATM   27  C   UNK N   1      23.275  14.539   0.891  0.00  0.00     0.059 C 
HETATM   28  C   UNK N   1      22.036  12.995   2.409  0.00  0.00     0.193 C 
BRANCH  24  29
HETATM   29  N   UNK N   1      20.684  15.848   1.410  0.00  0.00    -0.279 N 
HETATM   30  C   UNK N   1      21.189  16.191   2.638  0.00  0.00     0.104 A 
HETATM   31  C   UNK N   1      21.181  17.505   3.083  0.00  0.00     0.092 A 
HETATM   32  C   UNK N   1      20.631  18.481   2.267  0.00  0.00     0.250 A 
HETATM   33  O   UNK N   1      20.605  19.639   2.637  0.00  0.00    -0.268 OA
HETATM   34  N   UNK N   1      20.108  18.135   1.050  0.00  0.00    -0.275 N 
HETATM   35  C   UNK N   1      20.125  16.835   0.621  0.00  0.00     0.331 A 
HETATM   36  H   UNK N   1      19.714  18.830   0.476  0.00  0.00     0.173 HD
HETATM   37  O   UNK N   1      19.621  16.554  -0.455  0.00  0.00    -0.246 OA
ENDBRANCH  24  29
BRANCH  28  38
HETATM   38  O   UNK N   1      22.060  11.603   2.274  0.00  0.00    -0.389 OA
HETATM   39  H   UNK N   1      21.480  11.135   1.654  0.00  0.00     0.210 HD
ENDBRANCH  28  38
ENDBRANCH  21  22
ENDBRANCH   1  21
TORSDOF 12
ENDMDL
MODEL 4
REMARK VINA RESULT:      -7.1      4.129      6.857
REMARK  12 active torsions:
REMARK  status: ('A' for Active; 'I' for Inactive)
REMARK    1  A    between atoms: P_1  and  O_4 
REMARK    2  A    between atoms: P_1  and  O_2 
REMARK    3  A    between atoms: P_1  and  N_34 
REMARK    4  A    between atoms: O_2  and  C_28 
REMARK    5  A    between atoms: O_4  and  C_5 
REMARK    6  A    between atoms: C_7  and  C_5 
REMARK    7  A    between atoms: C_8  and  O_35 
REMARK    8  A    between atoms: C_10  and  N_15 
REMARK    9  A    between atoms: C_20  and  C_21 
REMARK   10  A    between atoms: N_34  and  C_20 
REMARK   11  A    between atoms: C_21  and  O_24 
REMARK   12  A    between atoms: O_24  and  C_25 
ROOT
HETATM    1  O   UNK N   1      25.777  15.603   4.360  0.00  0.00    -0.295 OA
ENDROOT
BRANCH   1   2
HETATM    2  P   UNK N   1      27.389  16.153   4.005  0.00  0.00     0.436 P 
HETATM    3  O   UNK N   1      27.510  14.651   4.377  0.00  0.00    -0.234 OA
BRANCH   2   4
HETATM    4  O   UNK N   1      28.794  16.043   4.984  0.00  0.00    -0.256 OA
BRANCH   4   5
HETATM    5  C   UNK N   1      30.002  16.494   4.597  0.00  0.00     0.080 A 
HETATM    6  C   UNK N   1      30.340  16.412   3.246  0.00  0.00     0.037 A 
HETATM    7  C   UNK N   1      31.606  16.802   2.810  0.00  0.00     0.003 A 
HETATM    8  C   UNK N   1      32.538  17.292   3.728  0.00  0.00     0.000 A 
HETATM    9  C   UNK N   1      32.203  17.396   5.081  0.00  0.00     0.003 A 
HETATM   10  C   UNK N   1      30.939  16.991   5.518  0.00  0.00     0.037 A 
ENDBRANCH   4   5
ENDBRANCH   2   4
BRANCH   2  11
HETATM   11  N   UNK N   1      26.959  17.135   5.503  0.00  0.00    -0.314 N 
HETATM   12  H   UNK N   1      26.799  16.668   6.396  0.00  0.00     0.166 HD
BRANCH  11  13
HETATM   13  C   UNK N   1      26.850  18.600   5.396  0.00  0.00     0.183 C 
HETATM   14  C   UNK N   1      27.340  19.111   4.052  0.00  0.00     0.043 C 
BRANCH  13  15
HETATM   15  C   UNK N   1      27.698  19.200   6.486  0.00  0.00     0.281 C 
HETATM   16  O   UNK N   1      27.676  20.408   6.665  0.00  0.00    -0.263 OA
BRANCH  15  17
HETATM   17  O   UNK N   1      28.488  18.434   7.278  0.00  0.00    -0.315 OA
BRANCH  17  18
HETATM   18  C   UNK N   1      28.527  18.555   8.646  0.00  0.00     0.123 C 
HETATM   19  C   UNK N   1      29.967  18.718   9.085  0.00  0.00     0.040 C 
HETATM   20  C   UNK N   1      27.957  17.303   9.279  0.00  0.00     0.040 C 
ENDBRANCH  17  18
ENDBRANCH  15  17
ENDBRANCH  13  15
ENDBRANCH  11  13
ENDBRANCH   2  11
ENDBRANCH   1   2
BRANCH   1  21
HETATM   21  C   UNK N   1      24.943  16.162   3.383  0.00  0.00     0.214 C 
BRANCH  21  22
HETATM   22  C   UNK N   1      23.642  16.656   3.965  0.00  0.00     0.180 C 
HETATM   23  O   UNK N   1      23.307  17.996   3.759  0.00  0.00    -0.353 OA
HETATM   24  C   UNK N   1      21.943  17.963   4.102  0.00  0.00     0.274 C 
HETATM   25  C   UNK N   1      21.893  17.104   5.400  0.00  0.00     0.172 C 
HETATM   26  F   UNK N   1      22.052  17.960   6.480  0.00  0.00    -0.236 F 
HETATM   27  C   UNK N   1      20.632  16.287   5.613  0.00  0.00     0.059 C 
HETATM   28  C   UNK N   1      23.102  16.182   5.284  0.00  0.00     0.193 C 
BRANCH  24  29
HETATM   29  N   UNK N   1      21.130  17.470   2.958  0.00  0.00    -0.279 N 
HETATM   30  C   UNK N   1      21.479  16.303   2.326  0.00  0.00     0.104 A 
HETATM   31  C   UNK N   1      20.771  15.833   1.230  0.00  0.00     0.092 A 
HETATM   32  C   UNK N   1      19.700  16.577   0.761  0.00  0.00     0.250 A 
HETATM   33  O   UNK N   1      19.068  16.190  -0.204  0.00  0.00    -0.268 OA
HETATM   34  N   UNK N   1      19.365  17.752   1.378  0.00  0.00    -0.275 N 
HETATM   35  C   UNK N   1      20.069  18.203   2.462  0.00  0.00     0.331 A 
HETATM   36  H   UNK N   1      18.606  18.280   1.038  0.00  0.00     0.173 HD
HETATM   37  O   UNK N   1      19.766  19.272   2.969  0.00  0.00    -0.246 OA
ENDBRANCH  24  29
BRANCH  28  38
HETATM   38  O   UNK N   1      24.025  16.436   6.305  0.00  0.00    -0.389 OA
HETATM   39  H   UNK N   1      24.947  16.142   6.252  0.00  0.00     0.210 HD
ENDBRANCH  28  38
ENDBRANCH  21  22
ENDBRANCH   1  21
TORSDOF 12
ENDMDL
MODEL 5
REMARK VINA RESULT:      -7.1     11.712     14.069
REMARK  12 active torsions:
REMARK  status: ('A' for Active; 'I' for Inactive)
REMARK    1  A    between atoms: P_1  and  O_4 
REMARK    2  A    between atoms: P_1  and  O_2 
REMARK    3  A    between atoms: P_1  and  N_34 
REMARK    4  A    between atoms: O_2  and  C_28 
REMARK    5  A    between atoms: O_4  and  C_5 
REMARK    6  A    between atoms: C_7  and  C_5 
REMARK    7  A    between atoms: C_8  and  O_35 
REMARK    8  A    between atoms: C_10  and  N_15 
REMARK    9  A    between atoms: C_20  and  C_21 
REMARK   10  A    between atoms: N_34  and  C_20 
REMARK   11  A    between atoms: C_21  and  O_24 
REMARK   12  A    between atoms: O_24  and  C_25 
ROOT
HETATM    1  O   UNK N   1      35.558  16.274   9.379  0.00  0.00    -0.295 OA
ENDROOT
BRANCH   1   2
HETATM    2  P   UNK N   1      35.281  15.325  10.812  0.00  0.00     0.436 P 
HETATM    3  O   UNK N   1      35.166  16.812  11.241  0.00  0.00    -0.234 OA
BRANCH   2   4
HETATM    4  O   UNK N   1      36.083  15.420  12.326  0.00  0.00    -0.256 OA
BRANCH   4   5
HETATM    5  C   UNK N   1      35.998  14.461  13.268  0.00  0.00     0.080 A 
HETATM    6  C   UNK N   1      36.691  14.645  14.465  0.00  0.00     0.037 A 
HETATM    7  C   UNK N   1      36.690  13.649  15.440  0.00  0.00     0.003 A 
HETATM    8  C   UNK N   1      35.980  12.465  15.226  0.00  0.00     0.000 A 
HETATM    9  C   UNK N   1      35.268  12.279  14.038  0.00  0.00     0.003 A 
HETATM   10  C   UNK N   1      35.282  13.272  13.056  0.00  0.00     0.037 A 
ENDBRANCH   4   5
ENDBRANCH   2   4
BRANCH   2  11
HETATM   11  N   UNK N   1      37.033  14.925  10.407  0.00  0.00    -0.314 N 
HETATM   12  H   UNK N   1      37.768  15.613  10.569  0.00  0.00     0.166 HD
BRANCH  11  13
HETATM   13  C   UNK N   1      37.359  13.601   9.850  0.00  0.00     0.183 C 
HETATM   14  C   UNK N   1      38.403  12.875  10.681  0.00  0.00     0.043 C 
BRANCH  13  15
HETATM   15  C   UNK N   1      37.898  13.812   8.460  0.00  0.00     0.281 C 
HETATM   16  O   UNK N   1      37.120  13.902   7.523  0.00  0.00    -0.263 OA
BRANCH  15  17
HETATM   17  O   UNK N   1      39.229  13.906   8.219  0.00  0.00    -0.315 OA
BRANCH  17  18
HETATM   18  C   UNK N   1      39.860  13.230   7.202  0.00  0.00     0.123 C 
HETATM   19  C   UNK N   1      40.586  12.035   7.783  0.00  0.00     0.040 C 
HETATM   20  C   UNK N   1      40.868  14.145   6.539  0.00  0.00     0.040 C 
ENDBRANCH  17  18
ENDBRANCH  15  17
ENDBRANCH  13  15
ENDBRANCH  11  13
ENDBRANCH   2  11
ENDBRANCH   1   2
BRANCH   1  21
HETATM   21  C   UNK N   1      34.435  17.097   9.226  0.00  0.00     0.214 C 
BRANCH  21  22
HETATM   22  C   UNK N   1      33.606  16.705   8.028  0.00  0.00     0.180 C 
HETATM   23  O   UNK N   1      32.801  15.569   8.139  0.00  0.00    -0.353 OA
HETATM   24  C   UNK N   1      31.962  15.753   7.025  0.00  0.00     0.274 C 
HETATM   25  C   UNK N   1      32.928  16.192   5.884  0.00  0.00     0.172 C 
HETATM   26  F   UNK N   1      33.375  15.045   5.244  0.00  0.00    -0.236 F 
HETATM   27  C   UNK N   1      32.348  17.131   4.842  0.00  0.00     0.059 C 
HETATM   28  C   UNK N   1      34.084  16.866   6.613  0.00  0.00     0.193 C 
BRANCH  24  29
HETATM   29  N   UNK N   1      30.862  16.700   7.352  0.00  0.00    -0.279 N 
HETATM   30  C   UNK N   1      31.042  17.643   8.332  0.00  0.00     0.104 A 
HETATM   31  C   UNK N   1      30.026  18.514   8.694  0.00  0.00     0.092 A 
HETATM   32  C   UNK N   1      28.800  18.409   8.058  0.00  0.00     0.250 A 
HETATM   33  O   UNK N   1      27.890  19.156   8.363  0.00  0.00    -0.268 OA
HETATM   34  N   UNK N   1      28.613  17.454   7.095  0.00  0.00    -0.275 N 
HETATM   35  C   UNK N   1      29.625  16.601   6.743  0.00  0.00     0.331 A 
HETATM   36  H   UNK N   1      27.738  17.379   6.649  0.00  0.00     0.173 HD
HETATM   37  O   UNK N   1      29.416  15.739   5.904  0.00  0.00    -0.246 OA
ENDBRANCH  24  29
BRANCH  28  38
HETATM   38  O   UNK N   1      35.277  16.161   6.420  0.00  0.00    -0.389 OA
HETATM   39  H   UNK N   1      35.987  16.158   7.080  0.00  0.00     0.210 HD
ENDBRANCH  28  38
ENDBRANCH  21  22
ENDBRANCH   1  21
TORSDOF 12
ENDMDL
MODEL 6
REMARK VINA RESULT:      -7.1     11.515     14.127
REMARK  12 active torsions:
REMARK  status: ('A' for Active; 'I' for Inactive)
REMARK    1  A    between atoms: P_1  and  O_4 
REMARK    2  A    between atoms: P_1  and  O_2 
REMARK    3  A    between atoms: P_1  and  N_34 
REMARK    4  A    between atoms: O_2  and  C_28 
REMARK    5  A    between atoms: O_4  and  C_5 
REMARK    6  A    between atoms: C_7  and  C_5 
REMARK    7  A    between atoms: C_8  and  O_35 
REMARK    8  A    between atoms: C_10  and  N_15 
REMARK    9  A    between atoms: C_20  and  C_21 
REMARK   10  A    between atoms: N_34  and  C_20 
REMARK   11  A    between atoms: C_21  and  O_24 
REMARK   12  A    between atoms: O_24  and  C_25 
ROOT
HETATM    1  O   UNK N   1      35.565  16.246   9.427  0.00  0.00    -0.295 OA
ENDROOT
BRANCH   1   2
HETATM    2  P   UNK N   1      35.323  15.282  10.856  0.00  0.00     0.436 P 
HETATM    3  O   UNK N   1      35.246  16.765  11.307  0.00  0.00    -0.234 OA
BRANCH   2   4
HETATM    4  O   UNK N   1      36.178  15.345  12.342  0.00  0.00    -0.256 OA
BRANCH   4   5
HETATM    5  C   UNK N   1      36.009  14.446  13.331  0.00  0.00     0.080 A 
HETATM    6  C   UNK N   1      35.086  13.418  13.141  0.00  0.00     0.037 A 
HETATM    7  C   UNK N   1      34.827  12.506  14.164  0.00  0.00     0.003 A 
HETATM    8  C   UNK N   1      35.505  12.613  15.381  0.00  0.00     0.000 A 
HETATM    9  C   UNK N   1      36.444  13.630  15.574  0.00  0.00     0.003 A 
HETATM   10  C   UNK N   1      36.693  14.551  14.553  0.00  0.00     0.037 A 
ENDBRANCH   4   5
ENDBRANCH   2   4
BRANCH   2  11
HETATM   11  N   UNK N   1      37.052  14.861  10.385  0.00  0.00    -0.314 N 
HETATM   12  H   UNK N   1      37.833  15.410  10.746  0.00  0.00     0.166 HD
BRANCH  11  13
HETATM   13  C   UNK N   1      37.296  13.722   9.482  0.00  0.00     0.183 C 
HETATM   14  C   UNK N   1      36.003  13.055   9.046  0.00  0.00     0.043 C 
BRANCH  13  15
HETATM   15  C   UNK N   1      38.135  12.720  10.229  0.00  0.00     0.281 C 
HETATM   16  O   UNK N   1      39.152  12.286   9.711  0.00  0.00    -0.263 OA
BRANCH  15  17
HETATM   17  O   UNK N   1      37.793  12.285  11.467  0.00  0.00    -0.315 OA
BRANCH  17  18
HETATM   18  C   UNK N   1      37.759  10.956  11.815  0.00  0.00     0.123 C 
HETATM   19  C   UNK N   1      36.410  10.383  11.434  0.00  0.00     0.040 C 
HETATM   20  C   UNK N   1      37.946  10.822  13.312  0.00  0.00     0.040 C 
ENDBRANCH  17  18
ENDBRANCH  15  17
ENDBRANCH  13  15
ENDBRANCH  11  13
ENDBRANCH   2  11
ENDBRANCH   1   2
BRANCH   1  21
HETATM   21  C   UNK N   1      34.429  17.057   9.300  0.00  0.00     0.214 C 
BRANCH  21  22
HETATM   22  C   UNK N   1      33.610  16.698   8.085  0.00  0.00     0.180 C 
HETATM   23  O   UNK N   1      32.802  15.562   8.160  0.00  0.00    -0.353 OA
HETATM   24  C   UNK N   1      31.973  15.777   7.043  0.00  0.00     0.274 C 
HETATM   25  C   UNK N   1      32.950  16.241   5.922  0.00  0.00     0.172 C 
HETATM   26  F   UNK N   1      33.400  15.110   5.258  0.00  0.00    -0.236 F 
HETATM   27  C   UNK N   1      32.382  17.208   4.899  0.00  0.00     0.059 C 
HETATM   28  C   UNK N   1      34.102  16.894   6.678  0.00  0.00     0.193 C 
BRANCH  24  29
HETATM   29  N   UNK N   1      30.872  16.718   7.385  0.00  0.00    -0.279 N 
HETATM   30  C   UNK N   1      31.057  17.654   8.371  0.00  0.00     0.104 A 
HETATM   31  C   UNK N   1      30.040  18.520   8.746  0.00  0.00     0.092 A 
HETATM   32  C   UNK N   1      28.811  18.416   8.117  0.00  0.00     0.250 A 
HETATM   33  O   UNK N   1      27.901  19.159   8.433  0.00  0.00    -0.268 OA
HETATM   34  N   UNK N   1      28.620  17.468   7.147  0.00  0.00    -0.275 N 
HETATM   35  C   UNK N   1      29.632  16.621   6.783  0.00  0.00     0.331 A 
HETATM   36  H   UNK N   1      27.743  17.394   6.706  0.00  0.00     0.173 HD
HETATM   37  O   UNK N   1      29.420  15.765   5.938  0.00  0.00    -0.246 OA
ENDBRANCH  24  29
BRANCH  28  38
HETATM   38  O   UNK N   1      35.295  16.190   6.478  0.00  0.00    -0.389 OA
HETATM   39  H   UNK N   1      35.421  15.592   5.726  0.00  0.00     0.210 HD
ENDBRANCH  28  38
ENDBRANCH  21  22
ENDBRANCH   1  21
TORSDOF 12
ENDMDL
MODEL 7
REMARK VINA RESULT:      -7.1     12.570     14.974
REMARK  12 active torsions:
REMARK  status: ('A' for Active; 'I' for Inactive)
REMARK    1  A    between atoms: P_1  and  O_4 
REMARK    2  A    between atoms: P_1  and  O_2 
REMARK    3  A    between atoms: P_1  and  N_34 
REMARK    4  A    between atoms: O_2  and  C_28 
REMARK    5  A    between atoms: O_4  and  C_5 
REMARK    6  A    between atoms: C_7  and  C_5 
REMARK    7  A    between atoms: C_8  and  O_35 
REMARK    8  A    between atoms: C_10  and  N_15 
REMARK    9  A    between atoms: C_20  and  C_21 
REMARK   10  A    between atoms: N_34  and  C_20 
REMARK   11  A    between atoms: C_21  and  O_24 
REMARK   12  A    between atoms: O_24  and  C_25 
ROOT
HETATM    1  O   UNK N   1      35.903  15.578   9.514  0.00  0.00    -0.295 OA
ENDROOT
BRANCH   1   2
HETATM    2  P   UNK N   1      35.457  14.740  10.973  0.00  0.00     0.436 P 
HETATM    3  O   UNK N   1      35.321  16.256  11.277  0.00  0.00    -0.234 OA
BRANCH   2   4
HETATM    4  O   UNK N   1      36.093  14.942  12.554  0.00  0.00    -0.256 OA
BRANCH   4   5
HETATM    5  C   UNK N   1      35.879  14.065  13.554  0.00  0.00     0.080 A 
HETATM    6  C   UNK N   1      36.606  14.215  14.735  0.00  0.00     0.037 A 
HETATM    7  C   UNK N   1      36.468  13.290  15.770  0.00  0.00     0.003 A 
HETATM    8  C   UNK N   1      35.588  12.215  15.631  0.00  0.00     0.000 A 
HETATM    9  C   UNK N   1      34.842  12.066  14.459  0.00  0.00     0.003 A 
HETATM   10  C   UNK N   1      34.991  12.985  13.417  0.00  0.00     0.037 A 
ENDBRANCH   4   5
ENDBRANCH   2   4
BRANCH   2  11
HETATM   11  N   UNK N   1      37.236  14.297  10.792  0.00  0.00    -0.314 N 
HETATM   12  H   UNK N   1      37.962  14.975  11.028  0.00  0.00     0.166 HD
BRANCH  11  13
HETATM   13  C   UNK N   1      37.598  12.955  10.304  0.00  0.00     0.183 C 
HETATM   14  C   UNK N   1      37.966  12.017  11.441  0.00  0.00     0.043 C 
BRANCH  13  15
HETATM   15  C   UNK N   1      38.784  13.107   9.391  0.00  0.00     0.281 C 
HETATM   16  O   UNK N   1      38.912  14.133   8.742  0.00  0.00    -0.263 OA
BRANCH  15  17
HETATM   17  O   UNK N   1      39.719  12.132   9.268  0.00  0.00    -0.315 OA
BRANCH  17  18
HETATM   18  C   UNK N   1      40.538  12.008   8.172  0.00  0.00     0.123 C 
HETATM   19  C   UNK N   1      39.946  10.981   7.230  0.00  0.00     0.040 C 
HETATM   20  C   UNK N   1      41.907  11.537   8.617  0.00  0.00     0.040 C 
ENDBRANCH  17  18
ENDBRANCH  15  17
ENDBRANCH  13  15
ENDBRANCH  11  13
ENDBRANCH   2  11
ENDBRANCH   1   2
BRANCH   1  21
HETATM   21  C   UNK N   1      35.268  14.905   8.462  0.00  0.00     0.214 C 
BRANCH  21  22
HETATM   22  C   UNK N   1      34.291  15.792   7.731  0.00  0.00     0.180 C 
HETATM   23  O   UNK N   1      34.802  16.900   7.053  0.00  0.00    -0.353 OA
HETATM   24  C   UNK N   1      33.697  17.225   6.244  0.00  0.00     0.274 C 
HETATM   25  C   UNK N   1      32.474  17.111   7.201  0.00  0.00     0.172 C 
HETATM   26  F   UNK N   1      32.287  18.349   7.798  0.00  0.00    -0.236 F 
HETATM   27  C   UNK N   1      31.165  16.679   6.564  0.00  0.00     0.059 C 
HETATM   28  C   UNK N   1      32.911  16.090   8.246  0.00  0.00     0.193 C 
BRANCH  24  29
HETATM   29  N   UNK N   1      33.666  16.360   5.034  0.00  0.00    -0.279 N 
HETATM   30  C   UNK N   1      34.278  15.133   5.056  0.00  0.00     0.104 A 
HETATM   31  C   UNK N   1      34.306  14.317   3.935  0.00  0.00     0.092 A 
HETATM   32  C   UNK N   1      33.715  14.770   2.767  0.00  0.00     0.250 A 
HETATM   33  O   UNK N   1      33.733  14.077   1.768  0.00  0.00    -0.268 OA
HETATM   34  N   UNK N   1      33.123  16.004   2.738  0.00  0.00    -0.275 N 
HETATM   35  C   UNK N   1      33.098  16.799   3.853  0.00  0.00     0.331 A 
HETATM   36  H   UNK N   1      32.708  16.324   1.904  0.00  0.00     0.173 HD
HETATM   37  O   UNK N   1      32.591  17.908   3.785  0.00  0.00    -0.246 OA
ENDBRANCH  24  29
BRANCH  28  38
HETATM   38  O   UNK N   1      32.982  16.672   9.516  0.00  0.00    -0.389 OA
HETATM   39  H   UNK N   1      33.453  16.251  10.251  0.00  0.00     0.210 HD
ENDBRANCH  28  38
ENDBRANCH  21  22
ENDBRANCH   1  21
TORSDOF 12
ENDMDL
MODEL 8
REMARK VINA RESULT:      -6.9     12.252     15.206
REMARK  12 active torsions:
REMARK  status: ('A' for Active; 'I' for Inactive)
REMARK    1  A    between atoms: P_1  and  O_4 
REMARK    2  A    between atoms: P_1  and  O_2 
REMARK    3  A    between atoms: P_1  and  N_34 
REMARK    4  A    between atoms: O_2  and  C_28 
REMARK    5  A    between atoms: O_4  and  C_5 
REMARK    6  A    between atoms: C_7  and  C_5 
REMARK    7  A    between atoms: C_8  and  O_35 
REMARK    8  A    between atoms: C_10  and  N_15 
REMARK    9  A    between atoms: C_20  and  C_21 
REMARK   10  A    between atoms: N_34  and  C_20 
REMARK   11  A    between atoms: C_21  and  O_24 
REMARK   12  A    between atoms: O_24  and  C_25 
ROOT
HETATM    1  O   UNK N   1      36.100  14.479  10.112  0.00  0.00    -0.295 OA
ENDROOT
BRANCH   1   2
HETATM    2  P   UNK N   1      35.624  13.942  11.698  0.00  0.00     0.436 P 
HETATM    3  O   UNK N   1      36.346  15.302  11.892  0.00  0.00    -0.234 OA
BRANCH   2   4
HETATM    4  O   UNK N   1      36.604  13.737  13.092  0.00  0.00    -0.256 OA
BRANCH   4   5
HETATM    5  C   UNK N   1      36.102  13.617  14.336  0.00  0.00     0.080 A 
HETATM    6  C   UNK N   1      36.801  14.201  15.392  0.00  0.00     0.037 A 
HETATM    7  C   UNK N   1      36.357  14.043  16.705  0.00  0.00     0.003 A 
HETATM    8  C   UNK N   1      35.199  13.306  16.964  0.00  0.00     0.000 A 
HETATM    9  C   UNK N   1      34.482  12.731  15.911  0.00  0.00     0.003 A 
HETATM   10  C   UNK N   1      34.935  12.880  14.598  0.00  0.00     0.037 A 
ENDBRANCH   4   5
ENDBRANCH   2   4
BRANCH   2  11
HETATM   11  N   UNK N   1      36.843  12.655  11.195  0.00  0.00    -0.314 N 
HETATM   12  H   UNK N   1      37.823  12.901  11.056  0.00  0.00     0.166 HD
BRANCH  11  13
HETATM   13  C   UNK N   1      36.385  11.269  10.996  0.00  0.00     0.183 C 
HETATM   14  C   UNK N   1      34.877  11.143  11.128  0.00  0.00     0.043 C 
BRANCH  13  15
HETATM   15  C   UNK N   1      37.041  10.418  12.050  0.00  0.00     0.281 C 
HETATM   16  O   UNK N   1      38.082   9.836  11.787  0.00  0.00    -0.263 OA
BRANCH  15  17
HETATM   17  O   UNK N   1      36.507  10.279  13.288  0.00  0.00    -0.315 OA
BRANCH  17  18
HETATM   18  C   UNK N   1      37.000   9.404  14.228  0.00  0.00     0.123 C 
HETATM   19  C   UNK N   1      35.953   8.348  14.513  0.00  0.00     0.040 C 
HETATM   20  C   UNK N   1      37.303  10.157  15.506  0.00  0.00     0.040 C 
ENDBRANCH  17  18
ENDBRANCH  15  17
ENDBRANCH  13  15
ENDBRANCH  11  13
ENDBRANCH   2  11
ENDBRANCH   1   2
BRANCH   1  21
HETATM   21  C   UNK N   1      34.986  14.296   9.282  0.00  0.00     0.214 C 
BRANCH  21  22
HETATM   22  C   UNK N   1      34.581  15.574   8.589  0.00  0.00     0.180 C 
HETATM   23  O   UNK N   1      35.179  15.862   7.360  0.00  0.00    -0.353 OA
HETATM   24  C   UNK N   1      34.312  16.869   6.897  0.00  0.00     0.274 C 
HETATM   25  C   UNK N   1      34.082  17.780   8.139  0.00  0.00     0.172 C 
HETATM   26  F   UNK N   1      35.069  18.754   8.139  0.00  0.00    -0.236 F 
HETATM   27  C   UNK N   1      32.729  18.464   8.225  0.00  0.00     0.059 C 
HETATM   28  C   UNK N   1      34.273  16.845   9.328  0.00  0.00     0.193 C 
BRANCH  24  29
HETATM   29  N   UNK N   1      33.094  16.270   6.288  0.00  0.00    -0.279 N 
HETATM   30  C   UNK N   1      32.559  15.124   6.821  0.00  0.00     0.104 A 
HETATM   31  C   UNK N   1      31.450  14.513   6.257  0.00  0.00     0.092 A 
HETATM   32  C   UNK N   1      30.889  15.070   5.119  0.00  0.00     0.250 A 
HETATM   33  O   UNK N   1      29.920  14.549   4.600  0.00  0.00    -0.268 OA
HETATM   34  N   UNK N   1      31.436  16.201   4.574  0.00  0.00    -0.275 N 
HETATM   35  C   UNK N   1      32.529  16.798   5.143  0.00  0.00     0.331 A 
HETATM   36  H   UNK N   1      31.037  16.591   3.763  0.00  0.00     0.173 HD
HETATM   37  O   UNK N   1      33.013  17.787   4.615  0.00  0.00    -0.246 OA
ENDBRANCH  24  29
BRANCH  28  38
HETATM   38  O   UNK N   1      35.373  17.235  10.100  0.00  0.00    -0.389 OA
HETATM   39  H   UNK N   1      35.475  16.965  11.026  0.00  0.00     0.210 HD
ENDBRANCH  28  38
ENDBRANCH  21  22
ENDBRANCH   1  21
TORSDOF 12
ENDMDL
MODEL 9
REMARK VINA RESULT:      -6.8     12.820     16.992
REMARK  12 active torsions:
REMARK  status: ('A' for Active; 'I' for Inactive)
REMARK    1  A    between atoms: P_1  and  O_4 
REMARK    2  A    between atoms: P_1  and  O_2 
REMARK    3  A    between atoms: P_1  and  N_34 
REMARK    4  A    between atoms: O_2  and  C_28 
REMARK    5  A    between atoms: O_4  and  C_5 
REMARK    6  A    between atoms: C_7  and  C_5 
REMARK    7  A    between atoms: C_8  and  O_35 
REMARK    8  A    between atoms: C_10  and  N_15 
REMARK    9  A    between atoms: C_20  and  C_21 
REMARK   10  A    between atoms: N_34  and  C_20 
REMARK   11  A    between atoms: C_21  and  O_24 
REMARK   12  A    between atoms: O_24  and  C_25 
ROOT
HETATM    1  O   UNK N   1      36.675  13.905  11.473  0.00  0.00    -0.295 OA
ENDROOT
BRANCH   1   2
HETATM    2  P   UNK N   1      36.053  15.232  10.532  0.00  0.00     0.436 P 
HETATM    3  O   UNK N   1      35.688  15.532  12.011  0.00  0.00    -0.234 OA
BRANCH   2   4
HETATM    4  O   UNK N   1      34.452  15.847  10.485  0.00  0.00    -0.256 OA
BRANCH   4   5
HETATM    5  C   UNK N   1      33.908  16.408   9.388  0.00  0.00     0.080 A 
HETATM    6  C   UNK N   1      34.672  17.322   8.662  0.00  0.00     0.037 A 
HETATM    7  C   UNK N   1      34.126  17.980   7.561  0.00  0.00     0.003 A 
HETATM    8  C   UNK N   1      32.811  17.715   7.172  0.00  0.00     0.000 A 
HETATM    9  C   UNK N   1      32.043  16.788   7.882  0.00  0.00     0.003 A 
HETATM   10  C   UNK N   1      32.587  16.139   8.994  0.00  0.00     0.037 A 
ENDBRANCH   4   5
ENDBRANCH   2   4
BRANCH   2  11
HETATM   11  N   UNK N   1      35.054  13.811   9.919  0.00  0.00    -0.314 N 
HETATM   12  H   UNK N   1      34.251  13.478  10.453  0.00  0.00     0.166 HD
BRANCH  11  13
HETATM   13  C   UNK N   1      35.427  13.164   8.649  0.00  0.00     0.183 C 
HETATM   14  C   UNK N   1      36.436  13.986   7.866  0.00  0.00     0.043 C 
BRANCH  13  15
HETATM   15  C   UNK N   1      34.174  13.016   7.828  0.00  0.00     0.281 C 
HETATM   16  O   UNK N   1      33.131  12.699   8.380  0.00  0.00    -0.263 OA
BRANCH  15  17
HETATM   17  O   UNK N   1      34.170  13.225   6.489  0.00  0.00    -0.315 OA
BRANCH  17  18
HETATM   18  C   UNK N   1      33.396  14.183   5.879  0.00  0.00     0.123 C 
HETATM   19  C   UNK N   1      32.371  13.499   4.998  0.00  0.00     0.040 C 
HETATM   20  C   UNK N   1      34.274  15.067   5.018  0.00  0.00     0.040 C 
ENDBRANCH  17  18
ENDBRANCH  15  17
ENDBRANCH  13  15
ENDBRANCH  11  13
ENDBRANCH   2  11
ENDBRANCH   1   2
BRANCH   1  21
HETATM   21  C   UNK N   1      36.269  14.134  12.795  0.00  0.00     0.214 C 
BRANCH  21  22
HETATM   22  C   UNK N   1      35.854  12.859  13.487  0.00  0.00     0.180 C 
HETATM   23  O   UNK N   1      36.859  12.073  14.055  0.00  0.00    -0.353 OA
HETATM   24  C   UNK N   1      36.080  11.235  14.875  0.00  0.00     0.274 C 
HETATM   25  C   UNK N   1      34.875  10.829  13.975  0.00  0.00     0.172 C 
HETATM   26  F   UNK N   1      35.230   9.676  13.289  0.00  0.00    -0.236 F 
HETATM   27  C   UNK N   1      33.561  10.578  14.692  0.00  0.00     0.059 C 
HETATM   28  C   UNK N   1      34.728  11.992  13.001  0.00  0.00     0.193 C 
BRANCH  24  29
HETATM   29  N   UNK N   1      35.743  11.922  16.151  0.00  0.00    -0.279 N 
HETATM   30  C   UNK N   1      35.659  13.290  16.187  0.00  0.00     0.104 A 
HETATM   31  C   UNK N   1      35.389  13.968  17.367  0.00  0.00     0.092 A 
HETATM   32  C   UNK N   1      35.221  13.237  18.531  0.00  0.00     0.250 A 
HETATM   33  O   UNK N   1      34.990  13.808  19.580  0.00  0.00    -0.268 OA
HETATM   34  N   UNK N   1      35.326  11.872  18.500  0.00  0.00    -0.275 N 
HETATM   35  C   UNK N   1      35.589  11.214  17.328  0.00  0.00     0.331 A 
HETATM   36  H   UNK N   1      35.211  11.357  19.331  0.00  0.00     0.173 HD
HETATM   37  O   UNK N   1      35.711   9.999  17.339  0.00  0.00    -0.246 OA
ENDBRANCH  24  29
BRANCH  28  38
HETATM   38  O   UNK N   1      34.968  11.577  11.686  0.00  0.00    -0.389 OA
HETATM   39  H   UNK N   1      35.807  11.754  11.234  0.00  0.00     0.210 HD
ENDBRANCH  28  38
ENDBRANCH  21  22
ENDBRANCH   1  21
TORSDOF 12
ENDMDL
