REMARK  5 active torsions:
REMARK  status: ('A' for Active; 'I' for Inactive)
REMARK    1  A    between atoms: C_5  and  N_16 
REMARK    2  A    between atoms: N_8  and  C_11 
REMARK    3  A    between atoms: N_10  and  C_26 
REMARK    4  A    between atoms: N_16  and  C_17 
REMARK    5  A    between atoms: C_28  and  N_32 
REMARK       I    between atoms: N_32  and  C_33 
ROOT
HETATM    1  C   UNK N   1      13.510 -14.064  -0.182  0.00  0.00     0.075 A 
HETATM    2  C   UNK N   1      13.439 -15.491  -0.292  0.00  0.00     0.035 C 
HETATM    3  C   UNK N   1      14.593 -16.263  -0.173  0.00  0.00     0.257 C 
HETATM    4  N   UNK N   1      15.824 -15.684   0.010  0.00  0.00    -0.303 N 
HETATM    5  C   UNK N   1      15.979 -14.313  -0.020  0.00  0.00     0.128 C 
HETATM    6  C   UNK N   1      14.810 -13.478  -0.125  0.00  0.00     0.104 A 
HETATM    7  C   UNK N   1      14.910 -12.063  -0.170  0.00  0.00     0.268 A 
HETATM    8  N   UNK N   1      13.781 -11.282  -0.247  0.00  0.00    -0.260 N 
HETATM    9  C   UNK N   1      12.530 -11.859  -0.241  0.00  0.00     0.337 A 
HETATM   10  N   UNK N   1      12.378 -13.241  -0.167  0.00  0.00    -0.262 N 
HETATM   11  O   UNK N   1      16.004 -11.521  -0.159  0.00  0.00    -0.267 OA
HETATM   12  O   UNK N   1      11.547 -11.134  -0.257  0.00  0.00    -0.246 OA
HETATM   13  O   UNK N   1      14.500 -17.483  -0.232  0.00  0.00    -0.267 OA
HETATM   14  C   UNK N   1      16.927 -16.601   0.235  0.00  0.00     0.161 C 
HETATM   15  C   UNK N   1      12.185 -16.244  -0.636  0.00  0.00     0.056 C 
ENDROOT
BRANCH  10  16
HETATM   16  C   UNK N   1      11.028 -13.754   0.098  0.00  0.00     0.046 A 
HETATM   17  C   UNK N   1       9.874 -13.179  -0.479  0.00  0.00     0.059 A 
HETATM   18  C   UNK N   1       8.588 -13.597  -0.099  0.00  0.00     0.036 A 
HETATM   19  C   UNK N   1       8.453 -14.594   0.878  0.00  0.00     0.029 A 
HETATM   20  C   UNK N   1       9.574 -15.146   1.484  0.00  0.00     0.004 A 
HETATM   21  C   UNK N   1      10.843 -14.707   1.121  0.00  0.00     0.030 A 
BRANCH  18  22
HETATM   22  N   UNK N   1       7.452 -12.965  -0.684  0.00  0.00    -0.327 N 
HETATM   23  C   UNK N   1       6.150 -13.217  -0.370  0.00  0.00     0.218 C 
HETATM   24  C   UNK N   1       5.073 -12.447  -1.051  0.00  0.00     0.117 C 
HETATM   25  O   UNK N   1       5.845 -14.052   0.467  0.00  0.00    -0.274 OA
HETATM   26  H   UNK N   1       7.623 -12.287  -1.376  0.00  0.00     0.169 HD
ENDBRANCH  18  22
ENDBRANCH  10  16
BRANCH   8  27
HETATM   27  C   UNK N   1      13.910  -9.807  -0.333  0.00  0.00     0.098 A 
HETATM   28  C   UNK N   1      13.174  -9.112   0.811  0.00  0.00     0.028 A 
HETATM   29  C   UNK N   1      14.670  -9.245   0.868  0.00  0.00     0.028 A 
ENDBRANCH   8  27
BRANCH   5  30
HETATM   30  N   UNK N   1      17.265 -13.660   0.092  0.00  0.00    -0.339 N 
HETATM   31  H   UNK N   1      17.148 -12.701   0.286  0.00  0.00     0.167 HD
BRANCH  30  32
HETATM   32  C   UNK N   1      18.660 -13.987   0.007  0.00  0.00     0.072 A 
HETATM   33  C   UNK N   1      19.140 -15.251  -0.350  0.00  0.00     0.034 A 
HETATM   34  C   UNK N   1      20.508 -15.520  -0.407  0.00  0.00     0.020 A 
HETATM   35  C   UNK N   1      21.426 -14.510  -0.129  0.00  0.00     0.009 A 
HETATM   36  C   UNK N   1      20.971 -13.230   0.192  0.00  0.00     0.062 A 
HETATM   37  I   UNK N   1      23.487 -14.923  -0.201  0.00  0.00    -0.044 I 
HETATM   38  C   UNK N   1      19.597 -12.967   0.258  0.00  0.00     0.144 A 
HETATM   39  F   UNK N   1      19.177 -11.715   0.564  0.00  0.00    -0.204 F 
ENDBRANCH  30  32
ENDBRANCH   5  30
TORSDOF 5
