REMARK  4 active torsions:
REMARK  status: ('A' for Active; 'I' for Inactive)
REMARK    1  A    between atoms: O_18  and  C_3 
REMARK    2  A    between atoms: C_11  and  C_9 
REMARK    3  A    between atoms: O_18  and  C_11 
REMARK    4  A    between atoms: N_15  and  C_13 
ROOT
HETATM    1  C   UNK N   1      -1.241   3.367   0.006  0.00  0.00     0.160 C 
HETATM    2  C   UNK N   1       1.226   1.681  -0.072  0.00  0.00     0.119 C 
HETATM    3  C   UNK N   1       0.003   1.176   0.208  0.00  0.00     0.082 C 
HETATM    4  C   UNK N   1      -2.277   1.142   0.007  0.00  0.00     0.268 C 
HETATM    5  C   UNK N   1      -1.970  -0.335  -0.107  0.00  0.00     0.382 C 
HETATM    6  N   UNK N   1      -1.187   1.924   0.093  0.00  0.00    -0.314 N 
HETATM    7  O   UNK N   1      -3.402   1.605  -0.109  0.00  0.00    -0.270 OA
HETATM    8  S   UNK N   1      -0.297  -0.542   0.640  0.00  0.00    -0.066 SA
ENDROOT
BRANCH   2   9
HETATM    9  C   UNK N   1       2.481   0.882  -0.033  0.00  0.00     0.285 C 
HETATM   10  O   UNK N   1       2.488  -0.263   0.397  0.00  0.00    -0.260 OA
BRANCH   9  11
HETATM   11  O   UNK N   1       3.624   1.430  -0.509  0.00  0.00    -0.318 OA
BRANCH  11  12
HETATM   12  C   UNK N   1       4.790   0.705  -0.615  0.00  0.00     0.174 C 
HETATM   13  C   UNK N   1       5.868   1.344   0.232  0.00  0.00     0.034 C 
ENDBRANCH  11  12
ENDBRANCH   9  11
ENDBRANCH   2   9
BRANCH   5  14
HETATM   14  N   UNK N   1      -2.993  -1.261   0.395  0.00  0.00     0.112 N 
HETATM   15  C   UNK N   1      -2.404  -2.622   0.337  0.00  0.00     0.274 C 
HETATM   16  C   UNK N   1      -3.273  -3.693  -0.330  0.00  0.00     0.030 C 
HETATM   17  C   UNK N   1      -4.710  -3.532   0.131  0.00  0.00     0.003 C 
HETATM   18  C   UNK N   1      -5.246  -2.137  -0.192  0.00  0.00     0.030 C 
HETATM   19  C   UNK N   1      -4.132  -1.142  -0.528  0.00  0.00     0.274 C 
ENDBRANCH   5  14
TORSDOF 4
