MODEL 1
REMARK VINA RESULT:      -8.7      0.000      0.000
REMARK  7 active torsions:
REMARK  status: ('A' for Active; 'I' for Inactive)
REMARK    1  A    between atoms: C_3  and  C_17 
REMARK    2  A    between atoms: C_6  and  N_11 
REMARK    3  A    between atoms: C_7  and  N_10 
REMARK    4  A    between atoms: C_8  and  N_9 
REMARK       I    between atoms: N_10  and  C_12 
REMARK    5  A    between atoms: C_12  and  O_13 
REMARK    6  A    between atoms: C_28  and  N_18 
REMARK    7  A    between atoms: C_28  and  C_29 
ROOT
HETATM    1  N   UNK N   1      32.535  14.721   8.729  0.00  0.00    -0.325 N 
ATOM      2  HN  UNK N   1      31.838  14.134   8.269  1.00  0.00     0.169 HD
HETATM    3  C   UNK N   1      32.432  16.072   8.640  0.00  0.00     0.138 A 
HETATM    4  N   UNK N   1      33.317  16.861   9.296  0.00  0.00    -0.325 N 
ATOM      5  HN  UNK N   1      33.196  17.873   9.266  1.00  0.00     0.169 HD
HETATM    6  C   UNK N   1      34.354  16.343   9.988  0.00  0.00     0.132 A 
HETATM    7  C   UNK N   1      34.548  14.945  10.023  0.00  0.00     0.126 A 
HETATM    8  C   UNK N   1      33.551  14.137   9.420  0.00  0.00     0.132 A 
ENDROOT
BRANCH   3   9
HETATM    9  C   UNK N   1      31.570  16.684   7.621  0.00  0.00     0.106 A 
HETATM   10  C   UNK N   1      31.975  17.009   6.340  0.00  0.00     0.041 A 
HETATM   11  C   UNK N   1      30.834  17.278   5.664  0.00  0.00     0.135 A 
HETATM   12  C   UNK N   1      33.208  16.994   5.694  0.00  0.00     0.019 A 
HETATM   13  N   UNK N   1      29.780  17.160   6.485  0.00  0.00    -0.271 N 
HETATM   14  N   UNK N   1      30.817  17.534   4.331  0.00  0.00    -0.350 N 
HETATM   15  N   UNK N   1      30.216  16.780   7.685  0.00  0.00    -0.292 N 
ATOM     16  HN  UNK N   1      29.637  16.594   8.505  1.00  0.00     0.187 HD
HETATM   17  C   UNK N   1      32.003  17.550   3.649  0.00  0.00     0.090 A 
ATOM     18  HN  UNK N   1      29.936  17.712   3.848  1.00  0.00     0.166 HD
HETATM   19  C   UNK N   1      33.220  17.285   4.320  0.00  0.00     0.018 A 
BRANCH  13  20
HETATM   20  C   UNK N   1      28.379  17.208   6.082  0.00  0.00     0.192 C 
BRANCH  20  21
HETATM   21  C   UNK N   1      27.845  18.593   5.890  0.00  0.00     0.000 A 
HETATM   22  C   UNK N   1      27.558  19.022   4.589  0.00  0.00     0.012 A 
HETATM   23  C   UNK N   1      27.124  20.329   4.358  0.00  0.00     0.001 A 
HETATM   24  C   UNK N   1      26.977  21.218   5.425  0.00  0.00     0.003 A 
HETATM   25  C   UNK N   1      27.261  20.798   6.725  0.00  0.00     0.043 A 
HETATM   26  C   UNK N   1      27.697  19.492   6.964  0.00  0.00     0.124 A 
HETATM   27  F   UNK N   1      27.986  19.124   8.233  0.00  0.00    -0.205 F 
ENDBRANCH  20  21
ENDBRANCH  13  20
ENDBRANCH   3   9
BRANCH   8  28
HETATM   28  N   UNK N   1      33.658  12.731   9.414  0.00  0.00    -0.383 N 
HETATM   29  H   UNK N   1      34.489  12.278   9.685  0.00  0.00     0.157 HD
HETATM   30  H   UNK N   1      32.884  12.191   9.134  0.00  0.00     0.157 HD
ENDBRANCH   8  28
BRANCH   6  31
HETATM   31  N   UNK N   1      35.227  17.225  10.661  0.00  0.00    -0.383 N 
HETATM   32  H   UNK N   1      36.031  16.901  11.127  0.00  0.00     0.157 HD
HETATM   33  H   UNK N   1      35.026  18.189  10.665  0.00  0.00     0.157 HD
ENDBRANCH   6  31
BRANCH   7  34
HETATM   34  N   UNK N   1      35.732  14.373  10.615  0.00  0.00    -0.291 N 
HETATM   35  C   UNK N   1      35.714  13.945  11.935  0.00  0.00     0.366 C 
HETATM   36  O   UNK N   1      34.711  14.121  12.611  0.00  0.00    -0.238 OA
HETATM   37  C   UNK N   1      36.958  14.383   9.851  0.00  0.00     0.162 C 
BRANCH  35  38
HETATM   38  O   UNK N   1      36.788  13.383  12.563  0.00  0.00    -0.309 OA
HETATM   39  C   UNK N   1      36.770  12.439  13.559  0.00  0.00     0.215 C 
ENDBRANCH  35  38
ENDBRANCH   7  34
TORSDOF 7
ENDMDL
MODEL 2
REMARK VINA RESULT:      -8.3      1.296      1.781
REMARK  7 active torsions:
REMARK  status: ('A' for Active; 'I' for Inactive)
REMARK    1  A    between atoms: C_3  and  C_17 
REMARK    2  A    between atoms: C_6  and  N_11 
REMARK    3  A    between atoms: C_7  and  N_10 
REMARK    4  A    between atoms: C_8  and  N_9 
REMARK       I    between atoms: N_10  and  C_12 
REMARK    5  A    between atoms: C_12  and  O_13 
REMARK    6  A    between atoms: C_28  and  N_18 
REMARK    7  A    between atoms: C_28  and  C_29 
ROOT
HETATM    1  N   UNK N   1      32.475  14.788   8.810  0.00  0.00    -0.325 N 
ATOM      2  HN  UNK N   1      31.762  14.205   8.372  1.00  0.00     0.169 HD
HETATM    3  C   UNK N   1      32.415  16.137   8.669  0.00  0.00     0.138 A 
HETATM    4  N   UNK N   1      33.323  16.923   9.296  0.00  0.00    -0.325 N 
ATOM      5  HN  UNK N   1      33.234  17.936   9.226  1.00  0.00     0.169 HD
HETATM    6  C   UNK N   1      34.342  16.401  10.012  0.00  0.00     0.132 A 
HETATM    7  C   UNK N   1      34.492  14.999  10.102  0.00  0.00     0.126 A 
HETATM    8  C   UNK N   1      33.471  14.200   9.527  0.00  0.00     0.132 A 
ENDROOT
BRANCH   3   9
HETATM    9  C   UNK N   1      31.575  16.735   7.623  0.00  0.00     0.106 A 
HETATM   10  C   UNK N   1      32.000  17.019   6.339  0.00  0.00     0.041 A 
HETATM   11  C   UNK N   1      30.871  17.288   5.642  0.00  0.00     0.135 A 
HETATM   12  C   UNK N   1      33.239  16.967   5.709  0.00  0.00     0.019 A 
HETATM   13  N   UNK N   1      29.806  17.210   6.454  0.00  0.00    -0.271 N 
HETATM   14  N   UNK N   1      30.874  17.509   4.304  0.00  0.00    -0.350 N 
HETATM   15  N   UNK N   1      30.222  16.854   7.669  0.00  0.00    -0.292 N 
ATOM     16  HN  UNK N   1      29.631  16.700   8.487  1.00  0.00     0.187 HD
HETATM   17  C   UNK N   1      32.067  17.488   3.636  0.00  0.00     0.090 A 
ATOM     18  HN  UNK N   1      30.001  17.688   3.805  1.00  0.00     0.166 HD
HETATM   19  C   UNK N   1      33.272  17.221   4.328  0.00  0.00     0.018 A 
BRANCH  13  20
HETATM   20  C   UNK N   1      28.411  17.268   6.033  0.00  0.00     0.192 C 
BRANCH  20  21
HETATM   21  C   UNK N   1      27.906  18.656   5.783  0.00  0.00     0.000 A 
HETATM   22  C   UNK N   1      27.780  19.525   6.872  0.00  0.00     0.012 A 
HETATM   23  C   UNK N   1      27.249  20.805   6.695  0.00  0.00     0.001 A 
HETATM   24  C   UNK N   1      26.838  21.223   5.427  0.00  0.00     0.003 A 
HETATM   25  C   UNK N   1      26.960  20.362   4.336  0.00  0.00     0.043 A 
HETATM   26  C   UNK N   1      27.489  19.080   4.506  0.00  0.00     0.124 A 
HETATM   27  F   UNK N   1      27.574  18.262   3.432  0.00  0.00    -0.205 F 
ENDBRANCH  20  21
ENDBRANCH  13  20
ENDBRANCH   3   9
BRANCH   8  28
HETATM   28  N   UNK N   1      33.534  12.792   9.577  0.00  0.00    -0.383 N 
HETATM   29  H   UNK N   1      33.379  12.300  10.416  0.00  0.00     0.157 HD
HETATM   30  H   UNK N   1      33.737  12.290   8.755  0.00  0.00     0.157 HD
ENDBRANCH   8  28
BRANCH   6  31
HETATM   31  N   UNK N   1      35.241  17.281  10.652  0.00  0.00    -0.383 N 
HETATM   32  H   UNK N   1      35.207  17.436  11.624  0.00  0.00     0.157 HD
HETATM   33  H   UNK N   1      35.916  17.752  10.114  0.00  0.00     0.157 HD
ENDBRANCH   6  31
BRANCH   7  34
HETATM   34  N   UNK N   1      35.656  14.414  10.719  0.00  0.00    -0.291 N 
HETATM   35  C   UNK N   1      36.779  14.126   9.956  0.00  0.00     0.366 C 
HETATM   36  O   UNK N   1      36.748  14.306   8.747  0.00  0.00    -0.238 OA
HETATM   37  C   UNK N   1      35.573  14.014  12.105  0.00  0.00     0.162 C 
BRANCH  35  38
HETATM   38  O   UNK N   1      37.922  13.583  10.468  0.00  0.00    -0.309 OA
HETATM   39  C   UNK N   1      38.415  12.321  10.247  0.00  0.00     0.215 C 
ENDBRANCH  35  38
ENDBRANCH   7  34
TORSDOF 7
ENDMDL
MODEL 3
REMARK VINA RESULT:      -8.3      3.217      5.053
REMARK  7 active torsions:
REMARK  status: ('A' for Active; 'I' for Inactive)
REMARK    1  A    between atoms: C_3  and  C_17 
REMARK    2  A    between atoms: C_6  and  N_11 
REMARK    3  A    between atoms: C_7  and  N_10 
REMARK    4  A    between atoms: C_8  and  N_9 
REMARK       I    between atoms: N_10  and  C_12 
REMARK    5  A    between atoms: C_12  and  O_13 
REMARK    6  A    between atoms: C_28  and  N_18 
REMARK    7  A    between atoms: C_28  and  C_29 
ROOT
HETATM    1  N   UNK N   1      34.599  13.622  11.779  0.00  0.00    -0.325 N 
ATOM      2  HN  UNK N   1      33.942  13.320  11.059  1.00  0.00     0.169 HD
HETATM    3  C   UNK N   1      35.196  14.837  11.672  0.00  0.00     0.138 A 
HETATM    4  N   UNK N   1      36.023  15.272  12.653  0.00  0.00    -0.325 N 
ATOM      5  HN  UNK N   1      36.422  16.208  12.585  1.00  0.00     0.169 HD
HETATM    6  C   UNK N   1      36.334  14.500  13.715  0.00  0.00     0.132 A 
HETATM    7  C   UNK N   1      35.808  13.193  13.812  0.00  0.00     0.126 A 
HETATM    8  C   UNK N   1      34.862  12.800  12.832  0.00  0.00     0.132 A 
ENDROOT
BRANCH   3   9
HETATM    9  C   UNK N   1      35.193  15.552  10.389  0.00  0.00     0.106 A 
HETATM   10  C   UNK N   1      35.536  14.990   9.174  0.00  0.00     0.041 A 
HETATM   11  C   UNK N   1      35.136  15.887   8.242  0.00  0.00     0.135 A 
HETATM   12  C   UNK N   1      36.058  13.754   8.806  0.00  0.00     0.019 A 
HETATM   13  N   UNK N   1      34.605  16.962   8.844  0.00  0.00    -0.271 N 
HETATM   14  N   UNK N   1      35.207  15.638   6.910  0.00  0.00    -0.350 N 
HETATM   15  N   UNK N   1      34.618  16.763  10.161  0.00  0.00    -0.292 N 
ATOM     16  HN  UNK N   1      34.261  17.404  10.871  1.00  0.00     0.187 HD
HETATM   17  C   UNK N   1      35.729  14.445   6.491  0.00  0.00     0.090 A 
ATOM     18  HN  UNK N   1      34.877  16.328   6.234  1.00  0.00     0.166 HD
HETATM   19  C   UNK N   1      36.169  13.485   7.432  0.00  0.00     0.018 A 
BRANCH  13  20
HETATM   20  C   UNK N   1      33.915  18.058   8.172  0.00  0.00     0.192 C 
BRANCH  20  21
HETATM   21  C   UNK N   1      32.552  17.702   7.666  0.00  0.00     0.000 A 
HETATM   22  C   UNK N   1      31.519  17.538   8.595  0.00  0.00     0.012 A 
HETATM   23  C   UNK N   1      30.248  17.138   8.174  0.00  0.00     0.001 A 
HETATM   24  C   UNK N   1      30.003  16.897   6.821  0.00  0.00     0.003 A 
HETATM   25  C   UNK N   1      31.028  17.058   5.887  0.00  0.00     0.043 A 
HETATM   26  C   UNK N   1      32.302  17.456   6.302  0.00  0.00     0.124 A 
HETATM   27  F   UNK N   1      33.279  17.581   5.374  0.00  0.00    -0.205 F 
ENDBRANCH  20  21
ENDBRANCH  13  20
ENDBRANCH   3   9
BRANCH   8  28
HETATM   28  N   UNK N   1      34.278  11.517  12.855  0.00  0.00    -0.383 N 
HETATM   29  H   UNK N   1      34.098  11.019  12.026  0.00  0.00     0.157 HD
HETATM   30  H   UNK N   1      34.047  11.110  13.721  0.00  0.00     0.157 HD
ENDBRANCH   8  28
BRANCH   6  31
HETATM   31  N   UNK N   1      37.191  15.026  14.707  0.00  0.00    -0.383 N 
HETATM   32  H   UNK N   1      38.030  15.484  14.474  0.00  0.00     0.157 HD
HETATM   33  H   UNK N   1      36.943  14.930  15.654  0.00  0.00     0.157 HD
ENDBRANCH   6  31
BRANCH   7  34
HETATM   34  N   UNK N   1      36.248  12.289  14.846  0.00  0.00    -0.291 N 
HETATM   35  C   UNK N   1      35.649  12.318  16.098  0.00  0.00     0.366 C 
HETATM   36  O   UNK N   1      34.797  13.162  16.339  0.00  0.00    -0.238 OA
HETATM   37  C   UNK N   1      37.403  11.460  14.592  0.00  0.00     0.162 C 
BRANCH  35  38
HETATM   38  O   UNK N   1      36.000  11.489  17.124  0.00  0.00    -0.309 OA
HETATM   39  C   UNK N   1      35.281  11.224  18.263  0.00  0.00     0.215 C 
ENDBRANCH  35  38
ENDBRANCH   7  34
TORSDOF 7
ENDMDL
MODEL 4
REMARK VINA RESULT:      -7.8      4.024      9.810
REMARK  7 active torsions:
REMARK  status: ('A' for Active; 'I' for Inactive)
REMARK    1  A    between atoms: C_3  and  C_17 
REMARK    2  A    between atoms: C_6  and  N_11 
REMARK    3  A    between atoms: C_7  and  N_10 
REMARK    4  A    between atoms: C_8  and  N_9 
REMARK       I    between atoms: N_10  and  C_12 
REMARK    5  A    between atoms: C_12  and  O_13 
REMARK    6  A    between atoms: C_28  and  N_18 
REMARK    7  A    between atoms: C_28  and  C_29 
ROOT
HETATM    1  N   UNK N   1      33.617  16.109   9.776  0.00  0.00    -0.325 N 
ATOM      2  HN  UNK N   1      33.972  16.638  10.573  1.00  0.00     0.169 HD
HETATM    3  C   UNK N   1      33.752  14.759   9.757  0.00  0.00     0.138 A 
HETATM    4  N   UNK N   1      33.232  14.042   8.732  0.00  0.00    -0.325 N 
ATOM      5  HN  UNK N   1      33.293  13.024   8.758  1.00  0.00     0.169 HD
HETATM    6  C   UNK N   1      32.635  14.638   7.679  0.00  0.00     0.132 A 
HETATM    7  C   UNK N   1      32.561  16.047   7.617  0.00  0.00     0.126 A 
HETATM    8  C   UNK N   1      33.016  16.770   8.749  0.00  0.00     0.132 A 
ENDROOT
BRANCH   3   9
HETATM    9  C   UNK N   1      34.698  14.096  10.665  0.00  0.00     0.106 A 
HETATM   10  C   UNK N   1      35.999  13.761  10.340  0.00  0.00     0.041 A 
HETATM   11  C   UNK N   1      36.588  13.439  11.515  0.00  0.00     0.135 A 
HETATM   12  C   UNK N   1      36.730  13.807   9.157  0.00  0.00     0.019 A 
HETATM   13  N   UNK N   1      35.695  13.535  12.513  0.00  0.00    -0.271 N 
HETATM   14  N   UNK N   1      37.911  13.156  11.616  0.00  0.00    -0.350 N 
HETATM   15  N   UNK N   1      34.536  13.955  12.008  0.00  0.00    -0.292 N 
ATOM     16  HN  UNK N   1      33.680  14.135  12.534  1.00  0.00     0.187 HD
HETATM   17  C   UNK N   1      38.675  13.169  10.482  0.00  0.00     0.090 A 
ATOM     18  HN  UNK N   1      38.328  12.938  12.522  1.00  0.00     0.166 HD
HETATM   19  C   UNK N   1      38.096  13.490   9.231  0.00  0.00     0.018 A 
BRANCH  13  20
HETATM   20  C   UNK N   1      35.998  13.431  13.936  0.00  0.00     0.192 C 
BRANCH  20  21
HETATM   21  C   UNK N   1      35.749  12.073  14.515  0.00  0.00     0.000 A 
HETATM   22  C   UNK N   1      34.431  11.704  14.804  0.00  0.00     0.012 A 
HETATM   23  C   UNK N   1      34.159  10.474  15.408  0.00  0.00     0.001 A 
HETATM   24  C   UNK N   1      35.205   9.606  15.731  0.00  0.00     0.003 A 
HETATM   25  C   UNK N   1      36.523   9.967  15.446  0.00  0.00     0.043 A 
HETATM   26  C   UNK N   1      36.802  11.196  14.843  0.00  0.00     0.124 A 
HETATM   27  F   UNK N   1      38.091  11.525  14.601  0.00  0.00    -0.205 F 
ENDBRANCH  20  21
ENDBRANCH  13  20
ENDBRANCH   3   9
BRANCH   8  28
HETATM   28  N   UNK N   1      32.972  18.179   8.779  0.00  0.00    -0.383 N 
HETATM   29  H   UNK N   1      32.417  18.662   9.433  0.00  0.00     0.157 HD
HETATM   30  H   UNK N   1      33.509  18.691   8.132  0.00  0.00     0.157 HD
ENDBRANCH   8  28
BRANCH   6  31
HETATM   31  N   UNK N   1      32.100  13.826   6.655  0.00  0.00    -0.383 N 
HETATM   32  H   UNK N   1      32.677  13.269   6.084  0.00  0.00     0.157 HD
HETATM   33  H   UNK N   1      31.127  13.818   6.507  0.00  0.00     0.157 HD
ENDBRANCH   6  31
BRANCH   7  34
HETATM   34  N   UNK N   1      32.077  16.715   6.435  0.00  0.00    -0.291 N 
HETATM   35  C   UNK N   1      32.966  17.113   5.447  0.00  0.00     0.366 C 
HETATM   36  O   UNK N   1      34.167  16.957   5.618  0.00  0.00    -0.238 OA
HETATM   37  C   UNK N   1      30.680  17.077   6.371  0.00  0.00     0.162 C 
BRANCH  35  38
HETATM   38  O   UNK N   1      32.586  17.740   4.295  0.00  0.00    -0.309 OA
HETATM   39  C   UNK N   1      32.336  17.161   3.076  0.00  0.00     0.215 C 
ENDBRANCH  35  38
ENDBRANCH   7  34
TORSDOF 7
ENDMDL
MODEL 5
REMARK VINA RESULT:      -7.7      2.821      4.412
REMARK  7 active torsions:
REMARK  status: ('A' for Active; 'I' for Inactive)
REMARK    1  A    between atoms: C_3  and  C_17 
REMARK    2  A    between atoms: C_6  and  N_11 
REMARK    3  A    between atoms: C_7  and  N_10 
REMARK    4  A    between atoms: C_8  and  N_9 
REMARK       I    between atoms: N_10  and  C_12 
REMARK    5  A    between atoms: C_12  and  O_13 
REMARK    6  A    between atoms: C_28  and  N_18 
REMARK    7  A    between atoms: C_28  and  C_29 
ROOT
HETATM    1  N   UNK N   1      34.392  13.598  11.352  0.00  0.00    -0.325 N 
ATOM      2  HN  UNK N   1      33.739  13.282  10.634  1.00  0.00     0.169 HD
HETATM    3  C   UNK N   1      34.885  14.862  11.297  0.00  0.00     0.138 A 
HETATM    4  N   UNK N   1      35.705  15.310  12.278  0.00  0.00    -0.325 N 
ATOM      5  HN  UNK N   1      36.025  16.278  12.253  1.00  0.00     0.169 HD
HETATM    6  C   UNK N   1      36.112  14.509  13.285  0.00  0.00     0.132 A 
HETATM    7  C   UNK N   1      35.697  13.160  13.323  0.00  0.00     0.126 A 
HETATM    8  C   UNK N   1      34.755  12.744  12.348  0.00  0.00     0.132 A 
ENDROOT
BRANCH   3   9
HETATM    9  C   UNK N   1      34.782  15.643  10.058  0.00  0.00     0.106 A 
HETATM   10  C   UNK N   1      35.252  15.230   8.825  0.00  0.00     0.041 A 
HETATM   11  C   UNK N   1      34.718  16.095   7.933  0.00  0.00     0.135 A 
HETATM   12  C   UNK N   1      36.002  14.135   8.407  0.00  0.00     0.019 A 
HETATM   13  N   UNK N   1      33.983  17.016   8.575  0.00  0.00    -0.271 N 
HETATM   14  N   UNK N   1      34.866  15.947   6.592  0.00  0.00    -0.350 N 
HETATM   15  N   UNK N   1      34.000  16.741   9.879  0.00  0.00    -0.292 N 
ATOM     16  HN  UNK N   1      33.515  17.261  10.610  1.00  0.00     0.187 HD
HETATM   17  C   UNK N   1      35.609  14.897   6.125  0.00  0.00     0.090 A 
ATOM     18  HN  UNK N   1      34.432  16.605   5.945  1.00  0.00     0.166 HD
HETATM   19  C   UNK N   1      36.194  13.976   7.025  0.00  0.00     0.018 A 
BRANCH  13  20
HETATM   20  C   UNK N   1      33.121  18.008   7.942  0.00  0.00     0.192 C 
BRANCH  20  21
HETATM   21  C   UNK N   1      31.739  17.514   7.645  0.00  0.00     0.000 A 
HETATM   22  C   UNK N   1      31.548  16.709   6.516  0.00  0.00     0.012 A 
HETATM   23  C   UNK N   1      30.266  16.284   6.163  0.00  0.00     0.001 A 
HETATM   24  C   UNK N   1      29.165  16.663   6.934  0.00  0.00     0.003 A 
HETATM   25  C   UNK N   1      29.346  17.466   8.061  0.00  0.00     0.043 A 
HETATM   26  C   UNK N   1      30.626  17.896   8.420  0.00  0.00     0.124 A 
HETATM   27  F   UNK N   1      30.766  18.692   9.505  0.00  0.00    -0.205 F 
ENDBRANCH  20  21
ENDBRANCH  13  20
ENDBRANCH   3   9
BRANCH   8  28
HETATM   28  N   UNK N   1      34.279  11.418  12.315  0.00  0.00    -0.383 N 
HETATM   29  H   UNK N   1      33.386  11.184  12.657  0.00  0.00     0.157 HD
HETATM   30  H   UNK N   1      34.852  10.710  11.940  0.00  0.00     0.157 HD
ENDBRANCH   8  28
BRANCH   6  31
HETATM   31  N   UNK N   1      36.955  15.049  14.281  0.00  0.00    -0.383 N 
HETATM   32  H   UNK N   1      37.546  14.478  14.822  0.00  0.00     0.157 HD
HETATM   33  H   UNK N   1      36.950  16.021  14.439  0.00  0.00     0.157 HD
ENDBRANCH   6  31
BRANCH   7  34
HETATM   34  N   UNK N   1      36.242  12.241  14.291  0.00  0.00    -0.291 N 
HETATM   35  C   UNK N   1      37.374  11.499  13.987  0.00  0.00     0.366 C 
HETATM   36  O   UNK N   1      37.864  11.577  12.869  0.00  0.00    -0.238 OA
HETATM   37  C   UNK N   1      35.509  12.015  15.515  0.00  0.00     0.162 C 
BRANCH  35  38
HETATM   38  O   UNK N   1      37.956  10.617  14.852  0.00  0.00    -0.309 OA
HETATM   39  C   UNK N   1      38.737   9.533  14.536  0.00  0.00     0.215 C 
ENDBRANCH  35  38
ENDBRANCH   7  34
TORSDOF 7
ENDMDL
MODEL 6
REMARK VINA RESULT:      -7.7      4.094      6.567
REMARK  7 active torsions:
REMARK  status: ('A' for Active; 'I' for Inactive)
REMARK    1  A    between atoms: C_3  and  C_17 
REMARK    2  A    between atoms: C_6  and  N_11 
REMARK    3  A    between atoms: C_7  and  N_10 
REMARK    4  A    between atoms: C_8  and  N_9 
REMARK       I    between atoms: N_10  and  C_12 
REMARK    5  A    between atoms: C_12  and  O_13 
REMARK    6  A    between atoms: C_28  and  N_18 
REMARK    7  A    between atoms: C_28  and  C_29 
ROOT
HETATM    1  N   UNK N   1      34.869  12.841  12.483  0.00  0.00    -0.325 N 
ATOM      2  HN  UNK N   1      34.242  12.527  11.741  1.00  0.00     0.169 HD
HETATM    3  C   UNK N   1      35.748  13.845  12.235  0.00  0.00     0.138 A 
HETATM    4  N   UNK N   1      36.542  14.308  13.230  0.00  0.00    -0.325 N 
ATOM      5  HN  UNK N   1      37.159  15.098  13.044  1.00  0.00     0.169 HD
HETATM    6  C   UNK N   1      36.539  13.752  14.460  0.00  0.00     0.132 A 
HETATM    7  C   UNK N   1      35.706  12.644  14.728  0.00  0.00     0.126 A 
HETATM    8  C   UNK N   1      34.808  12.245  13.706  0.00  0.00     0.132 A 
ENDROOT
BRANCH   3   9
HETATM    9  C   UNK N   1      36.060  14.231  10.853  0.00  0.00     0.106 A 
HETATM   10  C   UNK N   1      37.134  13.754  10.125  0.00  0.00     0.041 A 
HETATM   11  C   UNK N   1      36.896  14.134   8.849  0.00  0.00     0.135 A 
HETATM   12  C   UNK N   1      38.224  12.951  10.445  0.00  0.00     0.019 A 
HETATM   13  N   UNK N   1      35.754  14.837   8.788  0.00  0.00    -0.271 N 
HETATM   14  N   UNK N   1      37.685  13.753   7.813  0.00  0.00    -0.350 N 
HETATM   15  N   UNK N   1      35.222  14.890  10.009  0.00  0.00    -0.292 N 
ATOM     16  HN  UNK N   1      34.344  15.344  10.264  1.00  0.00     0.187 HD
HETATM   17  C   UNK N   1      38.781  12.977   8.072  0.00  0.00     0.090 A 
ATOM     18  HN  UNK N   1      37.464  14.039   6.859  1.00  0.00     0.166 HD
HETATM   19  C   UNK N   1      39.073  12.566   9.394  0.00  0.00     0.018 A 
BRANCH  13  20
HETATM   20  C   UNK N   1      35.085  15.268   7.566  0.00  0.00     0.192 C 
BRANCH  20  21
HETATM   21  C   UNK N   1      33.831  16.051   7.800  0.00  0.00     0.000 A 
HETATM   22  C   UNK N   1      32.602  15.397   7.657  0.00  0.00     0.012 A 
HETATM   23  C   UNK N   1      31.406  16.104   7.799  0.00  0.00     0.001 A 
HETATM   24  C   UNK N   1      31.430  17.472   8.080  0.00  0.00     0.003 A 
HETATM   25  C   UNK N   1      32.652  18.132   8.224  0.00  0.00     0.043 A 
HETATM   26  C   UNK N   1      33.852  17.430   8.083  0.00  0.00     0.124 A 
HETATM   27  F   UNK N   1      35.018  18.104   8.206  0.00  0.00    -0.205 F 
ENDBRANCH  20  21
ENDBRANCH  13  20
ENDBRANCH   3   9
BRANCH   8  28
HETATM   28  N   UNK N   1      33.934  11.154  13.889  0.00  0.00    -0.383 N 
HETATM   29  H   UNK N   1      33.327  10.857  13.173  0.00  0.00     0.157 HD
HETATM   30  H   UNK N   1      33.931  10.679  14.751  0.00  0.00     0.157 HD
ENDBRANCH   8  28
BRANCH   6  31
HETATM   31  N   UNK N   1      37.381  14.299  15.452  0.00  0.00    -0.383 N 
HETATM   32  H   UNK N   1      37.672  13.771  16.231  0.00  0.00     0.157 HD
HETATM   33  H   UNK N   1      37.684  15.231  15.364  0.00  0.00     0.157 HD
ENDBRANCH   6  31
BRANCH   7  34
HETATM   34  N   UNK N   1      35.798  11.929  15.977  0.00  0.00    -0.291 N 
HETATM   35  C   UNK N   1      35.162  12.420  17.109  0.00  0.00     0.366 C 
HETATM   36  O   UNK N   1      34.583  13.496  17.056  0.00  0.00    -0.238 OA
HETATM   37  C   UNK N   1      36.671  10.781  16.051  0.00  0.00     0.162 C 
BRANCH  35  38
HETATM   38  O   UNK N   1      35.192  11.797  18.323  0.00  0.00    -0.309 OA
HETATM   39  C   UNK N   1      35.295  12.387  19.558  0.00  0.00     0.215 C 
ENDBRANCH  35  38
ENDBRANCH   7  34
TORSDOF 7
ENDMDL
MODEL 7
REMARK VINA RESULT:      -7.7      4.136      9.887
REMARK  7 active torsions:
REMARK  status: ('A' for Active; 'I' for Inactive)
REMARK    1  A    between atoms: C_3  and  C_17 
REMARK    2  A    between atoms: C_6  and  N_11 
REMARK    3  A    between atoms: C_7  and  N_10 
REMARK    4  A    between atoms: C_8  and  N_9 
REMARK       I    between atoms: N_10  and  C_12 
REMARK    5  A    between atoms: C_12  and  O_13 
REMARK    6  A    between atoms: C_28  and  N_18 
REMARK    7  A    between atoms: C_28  and  C_29 
ROOT
HETATM    1  N   UNK N   1      34.853  15.953  10.754  0.00  0.00    -0.325 N 
ATOM      2  HN  UNK N   1      35.561  16.339  11.379  1.00  0.00     0.169 HD
HETATM    3  C   UNK N   1      34.360  14.710  10.991  0.00  0.00     0.138 A 
HETATM    4  N   UNK N   1      33.378  14.212  10.203  0.00  0.00    -0.325 N 
ATOM      5  HN  UNK N   1      32.979  13.300  10.424  1.00  0.00     0.169 HD
HETATM    6  C   UNK N   1      32.913  14.889   9.132  0.00  0.00     0.132 A 
HETATM    7  C   UNK N   1      33.469  16.144   8.798  0.00  0.00     0.126 A 
HETATM    8  C   UNK N   1      34.419  16.692   9.697  0.00  0.00     0.132 A 
ENDROOT
BRANCH   3   9
HETATM    9  C   UNK N   1      35.069  13.791  11.891  0.00  0.00     0.106 A 
HETATM   10  C   UNK N   1      35.522  12.534  11.536  0.00  0.00     0.041 A 
HETATM   11  C   UNK N   1      36.342  12.154  12.544  0.00  0.00     0.135 A 
HETATM   12  C   UNK N   1      35.371  11.751  10.396  0.00  0.00     0.019 A 
HETATM   13  N   UNK N   1      36.372  13.106  13.489  0.00  0.00    -0.271 N 
HETATM   14  N   UNK N   1      37.067  11.008  12.503  0.00  0.00    -0.350 N 
HETATM   15  N   UNK N   1      35.609  14.124  13.094  0.00  0.00    -0.292 N 
ATOM     16  HN  UNK N   1      35.457  14.995  13.602  1.00  0.00     0.187 HD
HETATM   17  C   UNK N   1      36.944  10.191  11.413  0.00  0.00     0.090 A 
ATOM     18  HN  UNK N   1      37.693  10.762  13.270  1.00  0.00     0.166 HD
HETATM   19  C   UNK N   1      36.089  10.545  10.343  0.00  0.00     0.018 A 
BRANCH  13  20
HETATM   20  C   UNK N   1      37.268  13.131  14.640  0.00  0.00     0.192 C 
BRANCH  20  21
HETATM   21  C   UNK N   1      36.620  13.591  15.909  0.00  0.00     0.000 A 
HETATM   22  C   UNK N   1      35.665  12.761  16.506  0.00  0.00     0.012 A 
HETATM   23  C   UNK N   1      34.985  13.180  17.652  0.00  0.00     0.001 A 
HETATM   24  C   UNK N   1      35.253  14.434  18.207  0.00  0.00     0.003 A 
HETATM   25  C   UNK N   1      36.204  15.268  17.616  0.00  0.00     0.043 A 
HETATM   26  C   UNK N   1      36.887  14.855  16.469  0.00  0.00     0.124 A 
HETATM   27  F   UNK N   1      37.786  15.696  15.909  0.00  0.00    -0.205 F 
ENDBRANCH  20  21
ENDBRANCH  13  20
ENDBRANCH   3   9
BRANCH   8  28
HETATM   28  N   UNK N   1      35.020  17.943   9.448  0.00  0.00    -0.383 N 
HETATM   29  H   UNK N   1      35.153  18.601  10.168  0.00  0.00     0.157 HD
HETATM   30  H   UNK N   1      35.313  18.162   8.534  0.00  0.00     0.157 HD
ENDBRANCH   8  28
BRANCH   6  31
HETATM   31  N   UNK N   1      31.876  14.315   8.365  0.00  0.00    -0.383 N 
HETATM   32  H   UNK N   1      31.944  14.229   7.387  0.00  0.00     0.157 HD
HETATM   33  H   UNK N   1      31.064  13.994   8.820  0.00  0.00     0.157 HD
ENDBRANCH   6  31
BRANCH   7  34
HETATM   34  N   UNK N   1      33.109  16.815   7.573  0.00  0.00    -0.291 N 
HETATM   35  C   UNK N   1      33.945  16.743   6.468  0.00  0.00     0.366 C 
HETATM   36  O   UNK N   1      35.020  16.168   6.562  0.00  0.00    -0.238 OA
HETATM   37  C   UNK N   1      31.941  17.665   7.571  0.00  0.00     0.162 C 
BRANCH  35  38
HETATM   38  O   UNK N   1      33.670  17.340   5.272  0.00  0.00    -0.309 OA
HETATM   39  C   UNK N   1      33.141  16.752   4.150  0.00  0.00     0.215 C 
ENDBRANCH  35  38
ENDBRANCH   7  34
TORSDOF 7
ENDMDL
MODEL 8
REMARK VINA RESULT:      -7.5      3.914      5.833
REMARK  7 active torsions:
REMARK  status: ('A' for Active; 'I' for Inactive)
REMARK    1  A    between atoms: C_3  and  C_17 
REMARK    2  A    between atoms: C_6  and  N_11 
REMARK    3  A    between atoms: C_7  and  N_10 
REMARK    4  A    between atoms: C_8  and  N_9 
REMARK       I    between atoms: N_10  and  C_12 
REMARK    5  A    between atoms: C_12  and  O_13 
REMARK    6  A    between atoms: C_28  and  N_18 
REMARK    7  A    between atoms: C_28  and  C_29 
ROOT
HETATM    1  N   UNK N   1      28.783  17.757   7.846  0.00  0.00    -0.325 N 
ATOM      2  HN  UNK N   1      28.010  18.013   8.461  1.00  0.00     0.169 HD
HETATM    3  C   UNK N   1      28.611  17.811   6.500  0.00  0.00     0.138 A 
HETATM    4  N   UNK N   1      29.648  17.531   5.675  0.00  0.00    -0.325 N 
ATOM      5  HN  UNK N   1      29.520  17.628   4.668  1.00  0.00     0.169 HD
HETATM    6  C   UNK N   1      30.846  17.128   6.150  0.00  0.00     0.132 A 
HETATM    7  C   UNK N   1      31.033  16.969   7.541  0.00  0.00     0.126 A 
HETATM    8  C   UNK N   1      29.969  17.368   8.388  0.00  0.00     0.132 A 
ENDROOT
BRANCH   3   9
HETATM    9  C   UNK N   1      27.260  17.876   5.929  0.00  0.00     0.106 A 
HETATM   10  C   UNK N   1      26.844  18.807   4.994  0.00  0.00     0.041 A 
HETATM   11  C   UNK N   1      25.654  18.349   4.541  0.00  0.00     0.135 A 
HETATM   12  C   UNK N   1      27.440  19.935   4.440  0.00  0.00     0.019 A 
HETATM   13  N   UNK N   1      25.329  17.215   5.181  0.00  0.00    -0.271 N 
HETATM   14  N   UNK N   1      24.981  18.945   3.526  0.00  0.00    -0.350 N 
HETATM   15  N   UNK N   1      26.314  16.904   6.023  0.00  0.00    -0.292 N 
ATOM     16  HN  UNK N   1      26.351  16.084   6.630  1.00  0.00     0.187 HD
HETATM   17  C   UNK N   1      25.511  20.069   2.955  0.00  0.00     0.090 A 
ATOM     18  HN  UNK N   1      24.095  18.561   3.194  1.00  0.00     0.166 HD
HETATM   19  C   UNK N   1      26.748  20.587   3.406  0.00  0.00     0.018 A 
BRANCH  13  20
HETATM   20  C   UNK N   1      24.209  16.343   4.848  0.00  0.00     0.192 C 
BRANCH  20  21
HETATM   21  C   UNK N   1      23.079  16.398   5.829  0.00  0.00     0.000 A 
HETATM   22  C   UNK N   1      22.871  15.297   6.667  0.00  0.00     0.012 A 
HETATM   23  C   UNK N   1      21.788  15.277   7.549  0.00  0.00     0.001 A 
HETATM   24  C   UNK N   1      20.904  16.356   7.596  0.00  0.00     0.003 A 
HETATM   25  C   UNK N   1      21.103  17.458   6.763  0.00  0.00     0.043 A 
HETATM   26  C   UNK N   1      22.184  17.484   5.878  0.00  0.00     0.124 A 
HETATM   27  F   UNK N   1      22.337  18.557   5.068  0.00  0.00    -0.205 F 
ENDBRANCH  20  21
ENDBRANCH  13  20
ENDBRANCH   3   9
BRANCH   8  28
HETATM   28  N   UNK N   1      30.072  17.253   9.790  0.00  0.00    -0.383 N 
HETATM   29  H   UNK N   1      29.320  16.925  10.334  0.00  0.00     0.157 HD
HETATM   30  H   UNK N   1      30.914  17.505  10.233  0.00  0.00     0.157 HD
ENDBRANCH   8  28
BRANCH   6  31
HETATM   31  N   UNK N   1      31.887  16.870   5.231  0.00  0.00    -0.383 N 
HETATM   32  H   UNK N   1      32.348  17.599   4.757  0.00  0.00     0.157 HD
HETATM   33  H   UNK N   1      32.156  15.939   5.061  0.00  0.00     0.157 HD
ENDBRANCH   6  31
BRANCH   7  34
HETATM   34  N   UNK N   1      32.243  16.387   8.066  0.00  0.00    -0.291 N 
HETATM   35  C   UNK N   1      33.365  17.178   8.270  0.00  0.00     0.366 C 
HETATM   36  O   UNK N   1      33.342  18.354   7.935  0.00  0.00    -0.238 OA
HETATM   37  C   UNK N   1      32.299  14.954   8.242  0.00  0.00     0.162 C 
BRANCH  35  38
HETATM   38  O   UNK N   1      34.543  16.705   8.773  0.00  0.00    -0.309 OA
HETATM   39  C   UNK N   1      34.979  16.773  10.073  0.00  0.00     0.215 C 
ENDBRANCH  35  38
ENDBRANCH   7  34
TORSDOF 7
ENDMDL
MODEL 9
REMARK VINA RESULT:      -7.4      1.425      2.045
REMARK  7 active torsions:
REMARK  status: ('A' for Active; 'I' for Inactive)
REMARK    1  A    between atoms: C_3  and  C_17 
REMARK    2  A    between atoms: C_6  and  N_11 
REMARK    3  A    between atoms: C_7  and  N_10 
REMARK    4  A    between atoms: C_8  and  N_9 
REMARK       I    between atoms: N_10  and  C_12 
REMARK    5  A    between atoms: C_12  and  O_13 
REMARK    6  A    between atoms: C_28  and  N_18 
REMARK    7  A    between atoms: C_28  and  C_29 
ROOT
HETATM    1  N   UNK N   1      34.096  15.285   7.693  0.00  0.00    -0.325 N 
ATOM      2  HN  UNK N   1      34.459  16.124   7.239  1.00  0.00     0.169 HD
HETATM    3  C   UNK N   1      32.900  14.778   7.301  0.00  0.00     0.138 A 
HETATM    4  N   UNK N   1      32.437  13.632   7.855  0.00  0.00    -0.325 N 
ATOM      5  HN  UNK N   1      31.563  13.233   7.513  1.00  0.00     0.169 HD
HETATM    6  C   UNK N   1      33.101  13.004   8.849  0.00  0.00     0.132 A 
HETATM    7  C   UNK N   1      34.302  13.554   9.349  0.00  0.00     0.126 A 
HETATM    8  C   UNK N   1      34.820  14.693   8.682  0.00  0.00     0.132 A 
ENDROOT
BRANCH   3   9
HETATM    9  C   UNK N   1      31.972  15.597   6.510  0.00  0.00     0.106 A 
HETATM   10  C   UNK N   1      32.229  16.070   5.236  0.00  0.00     0.041 A 
HETATM   11  C   UNK N   1      31.039  16.523   4.778  0.00  0.00     0.135 A 
HETATM   12  C   UNK N   1      33.354  16.049   4.418  0.00  0.00     0.019 A 
HETATM   13  N   UNK N   1      30.100  16.372   5.725  0.00  0.00    -0.271 N 
HETATM   14  N   UNK N   1      30.866  16.969   3.509  0.00  0.00    -0.350 N 
HETATM   15  N   UNK N   1      30.655  15.790   6.787  0.00  0.00    -0.292 N 
ATOM     16  HN  UNK N   1      30.178  15.535   7.652  1.00  0.00     0.187 HD
HETATM   17  C   UNK N   1      31.943  16.988   2.666  0.00  0.00     0.090 A 
ATOM     18  HN  UNK N   1      29.949  17.284   3.189  1.00  0.00     0.166 HD
HETATM   19  C   UNK N   1      33.208  16.534   3.108  0.00  0.00     0.018 A 
BRANCH  13  20
HETATM   20  C   UNK N   1      28.669  16.588   5.544  0.00  0.00     0.192 C 
BRANCH  20  21
HETATM   21  C   UNK N   1      28.237  18.010   5.731  0.00  0.00     0.000 A 
HETATM   22  C   UNK N   1      28.050  18.803   4.593  0.00  0.00     0.012 A 
HETATM   23  C   UNK N   1      27.714  20.153   4.723  0.00  0.00     0.001 A 
HETATM   24  C   UNK N   1      27.568  20.720   5.990  0.00  0.00     0.003 A 
HETATM   25  C   UNK N   1      27.754  19.935   7.130  0.00  0.00     0.043 A 
HETATM   26  C   UNK N   1      28.090  18.585   7.008  0.00  0.00     0.124 A 
HETATM   27  F   UNK N   1      28.285  17.858   8.132  0.00  0.00    -0.205 F 
ENDBRANCH  20  21
ENDBRANCH  13  20
ENDBRANCH   3   9
BRANCH   8  28
HETATM   28  N   UNK N   1      36.017  15.304   9.108  0.00  0.00    -0.383 N 
HETATM   29  H   UNK N   1      36.175  15.522  10.055  0.00  0.00     0.157 HD
HETATM   30  H   UNK N   1      36.712  15.516   8.443  0.00  0.00     0.157 HD
ENDBRANCH   8  28
BRANCH   6  31
HETATM   31  N   UNK N   1      32.567  11.804   9.368  0.00  0.00    -0.383 N 
HETATM   32  H   UNK N   1      32.162  11.125   8.783  0.00  0.00     0.157 HD
HETATM   33  H   UNK N   1      32.601  11.645  10.338  0.00  0.00     0.157 HD
ENDBRANCH   6  31
BRANCH   7  34
HETATM   34  N   UNK N   1      34.946  12.999  10.513  0.00  0.00    -0.291 N 
HETATM   35  C   UNK N   1      34.816  13.622  11.746  0.00  0.00     0.366 C 
HETATM   36  O   UNK N   1      34.212  14.683  11.824  0.00  0.00    -0.238 OA
HETATM   37  C   UNK N   1      35.830  11.869  10.338  0.00  0.00     0.162 C 
BRANCH  35  38
HETATM   38  O   UNK N   1      35.386  13.153  12.895  0.00  0.00    -0.309 OA
HETATM   39  C   UNK N   1      36.391  13.738  13.624  0.00  0.00     0.215 C 
ENDBRANCH  35  38
ENDBRANCH   7  34
TORSDOF 7
ENDMDL
