MODEL 1
REMARK VINA RESULT:      -7.9      0.000      0.000
REMARK  9 active torsions:
REMARK  status: ('A' for Active; 'I' for Inactive)
REMARK    1  A    between atoms: C_1  and  O_11 
REMARK    2  A    between atoms: C_2  and  O_8 
REMARK    3  A    between atoms: C_3  and  O_10 
REMARK    4  A    between atoms: C_4  and  C_9 
REMARK    5  A    between atoms: C_6  and  C_7 
REMARK    6  A    between atoms: C_7  and  O_12 
REMARK    7  A    between atoms: C_16  and  C_19 
REMARK    8  A    between atoms: C_19  and  C_20 
REMARK    9  A    between atoms: C_22  and  C_25 
ROOT
HETATM    1  C   UNK N   1      34.097  12.888   9.424  0.00  0.00    -0.026 A 
HETATM    2  C   UNK N   1      32.981  12.224   8.911  0.00  0.00     0.010 A 
HETATM    3  C   UNK N   1      32.768  10.894   9.220  0.00  0.00     0.008 A 
HETATM    4  C   UNK N   1      33.623  10.208  10.074  0.00  0.00    -0.055 A 
HETATM    5  C   UNK N   1      34.725  10.897  10.704  0.00  0.00    -0.047 A 
HETATM    6  C   UNK N   1      34.942  12.228  10.325  0.00  0.00     0.017 A 
HETATM    7  C   UNK N   1      33.306   8.771  10.233  0.00  0.00     0.049 C 
ENDROOT
BRANCH   1   8
HETATM    8  C   UNK N   1      34.405  14.281   8.942  0.00  0.00     0.186 C 
HETATM    9  C   UNK N   1      34.430  15.282  10.126  0.00  0.00     0.182 C 
HETATM   10  C   UNK N   1      34.531  16.730   9.648  0.00  0.00     0.181 C 
HETATM   11  C   UNK N   1      34.776  16.805   8.148  0.00  0.00     0.180 C 
HETATM   12  C   UNK N   1      33.695  15.969   7.433  0.00  0.00     0.177 C 
HETATM   13  O   UNK N   1      33.433  14.682   7.988  0.00  0.00    -0.368 OA
BRANCH   9  14
HETATM   14  O   UNK N   1      33.294  15.158  10.930  0.00  0.00    -0.390 OA
HETATM   15  H   UNK N   1      32.793  14.873  11.711  0.00  0.00     0.210 HD
ENDBRANCH   9  14
BRANCH  10  16
HETATM   16  O   UNK N   1      35.540  17.391  10.350  0.00  0.00    -0.390 OA
HETATM   17  H   UNK N   1      35.370  17.822  11.202  0.00  0.00     0.210 HD
ENDBRANCH  10  16
BRANCH  11  18
HETATM   18  O   UNK N   1      34.723  18.131   7.718  0.00  0.00    -0.390 OA
HETATM   19  H   UNK N   1      35.521  18.602   7.429  0.00  0.00     0.210 HD
ENDBRANCH  11  18
BRANCH  12  20
HETATM   20  C   UNK N   1      33.994  15.839   5.951  0.00  0.00     0.198 C 
BRANCH  20  21
HETATM   21  O   UNK N   1      35.374  15.782   5.755  0.00  0.00    -0.398 OA
HETATM   22  H   UNK N   1      35.929  16.574   5.672  0.00  0.00     0.209 HD
ENDBRANCH  20  21
ENDBRANCH  12  20
ENDBRANCH   1   8
BRANCH   5  23
HETATM   23  C   UNK N   1      35.720  10.341  11.731  0.00  0.00     0.085 C 
BRANCH  23  24
HETATM   24  C   UNK N   1      35.424  10.589  13.170  0.00  0.00    -0.013 A 
HETATM   25  S   UNK N   1      36.535  11.014  14.318  0.00  0.00    -0.094 SA
HETATM   26  C   UNK N   1      35.504  11.745  15.391  0.00  0.00     0.015 A 
HETATM   27  C   UNK N   1      34.200  11.578  14.907  0.00  0.00     0.021 A 
HETATM   28  C   UNK N   1      34.157  10.925  13.647  0.00  0.00     0.016 A 
BRANCH  26  29
HETATM   29  C   UNK N   1      35.897  12.858  16.268  0.00  0.00    -0.019 A 
HETATM   30  C   UNK N   1      35.205  13.063  17.471  0.00  0.00     0.016 A 
HETATM   31  C   UNK N   1      35.338  14.267  18.165  0.00  0.00     0.043 A 
HETATM   32  C   UNK N   1      36.150  15.282  17.653  0.00  0.00     0.116 A 
HETATM   33  C   UNK N   1      36.862  15.078  16.467  0.00  0.00     0.043 A 
HETATM   34  F   UNK N   1      36.233  16.470  18.296  0.00  0.00    -0.206 F 
HETATM   35  C   UNK N   1      36.728  13.874  15.771  0.00  0.00     0.016 A 
ENDBRANCH  26  29
ENDBRANCH  23  24
ENDBRANCH   5  23
TORSDOF 9
ENDMDL
MODEL 2
REMARK VINA RESULT:      -7.8      1.138      1.407
REMARK  9 active torsions:
REMARK  status: ('A' for Active; 'I' for Inactive)
REMARK    1  A    between atoms: C_1  and  O_11 
REMARK    2  A    between atoms: C_2  and  O_8 
REMARK    3  A    between atoms: C_3  and  O_10 
REMARK    4  A    between atoms: C_4  and  C_9 
REMARK    5  A    between atoms: C_6  and  C_7 
REMARK    6  A    between atoms: C_7  and  O_12 
REMARK    7  A    between atoms: C_16  and  C_19 
REMARK    8  A    between atoms: C_19  and  C_20 
REMARK    9  A    between atoms: C_22  and  C_25 
ROOT
HETATM    1  C   UNK N   1      34.206  12.949   9.332  0.00  0.00    -0.026 A 
HETATM    2  C   UNK N   1      33.204  12.193   8.721  0.00  0.00     0.010 A 
HETATM    3  C   UNK N   1      33.107  10.839   8.979  0.00  0.00     0.008 A 
HETATM    4  C   UNK N   1      33.965  10.214   9.876  0.00  0.00    -0.055 A 
HETATM    5  C   UNK N   1      34.943  10.989  10.602  0.00  0.00    -0.047 A 
HETATM    6  C   UNK N   1      35.048  12.347  10.275  0.00  0.00     0.017 A 
HETATM    7  C   UNK N   1      33.787   8.748   9.973  0.00  0.00     0.049 C 
ENDROOT
BRANCH   1   8
HETATM    8  C   UNK N   1      34.402  14.380   8.910  0.00  0.00     0.186 C 
HETATM    9  C   UNK N   1      34.510  15.310  10.147  0.00  0.00     0.182 C 
HETATM   10  C   UNK N   1      34.499  16.787   9.754  0.00  0.00     0.181 C 
HETATM   11  C   UNK N   1      34.582  16.962   8.244  0.00  0.00     0.180 C 
HETATM   12  C   UNK N   1      33.468  16.118   7.592  0.00  0.00     0.177 C 
HETATM   13  O   UNK N   1      33.320  14.790   8.088  0.00  0.00    -0.368 OA
BRANCH   9  14
HETATM   14  O   UNK N   1      33.470  15.085  11.053  0.00  0.00    -0.390 OA
HETATM   15  H   UNK N   1      32.589  14.785  11.327  0.00  0.00     0.210 HD
ENDBRANCH   9  14
BRANCH  10  16
HETATM   16  O   UNK N   1      35.547  17.454  10.389  0.00  0.00    -0.390 OA
HETATM   17  H   UNK N   1      36.469  17.339  10.109  0.00  0.00     0.210 HD
ENDBRANCH  10  16
BRANCH  11  18
HETATM   18  O   UNK N   1      34.428  18.307   7.907  0.00  0.00    -0.390 OA
HETATM   19  H   UNK N   1      34.225  18.582   6.999  0.00  0.00     0.210 HD
ENDBRANCH  11  18
BRANCH  12  20
HETATM   20  C   UNK N   1      33.614  16.090   6.082  0.00  0.00     0.198 C 
BRANCH  20  21
HETATM   21  O   UNK N   1      34.917  16.443   5.732  0.00  0.00    -0.398 OA
HETATM   22  H   UNK N   1      35.453  17.066   6.248  0.00  0.00     0.209 HD
ENDBRANCH  20  21
ENDBRANCH  12  20
ENDBRANCH   1   8
BRANCH   5  23
HETATM   23  C   UNK N   1      35.914  10.503  11.686  0.00  0.00     0.085 C 
BRANCH  23  24
HETATM   24  C   UNK N   1      35.362  10.294  13.053  0.00  0.00    -0.013 A 
HETATM   25  S   UNK N   1      36.249  10.242  14.448  0.00  0.00    -0.094 SA
HETATM   26  C   UNK N   1      35.049  10.662  15.512  0.00  0.00     0.015 A 
HETATM   27  C   UNK N   1      33.854  10.757  14.786  0.00  0.00     0.021 A 
HETATM   28  C   UNK N   1      34.034  10.551  13.393  0.00  0.00     0.016 A 
BRANCH  26  29
HETATM   29  C   UNK N   1      35.289  11.401  16.760  0.00  0.00    -0.019 A 
HETATM   30  C   UNK N   1      35.356  10.698  17.972  0.00  0.00     0.016 A 
HETATM   31  C   UNK N   1      35.272  11.379  19.188  0.00  0.00     0.043 A 
HETATM   32  C   UNK N   1      35.104  12.766  19.201  0.00  0.00     0.116 A 
HETATM   33  C   UNK N   1      35.060  13.477  17.999  0.00  0.00     0.043 A 
HETATM   34  F   UNK N   1      34.965  13.418  20.379  0.00  0.00    -0.206 F 
HETATM   35  C   UNK N   1      35.142  12.796  16.782  0.00  0.00     0.016 A 
ENDBRANCH  26  29
ENDBRANCH  23  24
ENDBRANCH   5  23
TORSDOF 9
ENDMDL
MODEL 3
REMARK VINA RESULT:      -7.8     17.921     22.221
REMARK  9 active torsions:
REMARK  status: ('A' for Active; 'I' for Inactive)
REMARK    1  A    between atoms: C_1  and  O_11 
REMARK    2  A    between atoms: C_2  and  O_8 
REMARK    3  A    between atoms: C_3  and  O_10 
REMARK    4  A    between atoms: C_4  and  C_9 
REMARK    5  A    between atoms: C_6  and  C_7 
REMARK    6  A    between atoms: C_7  and  O_12 
REMARK    7  A    between atoms: C_16  and  C_19 
REMARK    8  A    between atoms: C_19  and  C_20 
REMARK    9  A    between atoms: C_22  and  C_25 
ROOT
HETATM    1  C   UNK N   1      29.920  22.035  -6.505  0.00  0.00    -0.026 A 
HETATM    2  C   UNK N   1      30.622  22.087  -7.711  0.00  0.00     0.010 A 
HETATM    3  C   UNK N   1      29.935  22.213  -8.903  0.00  0.00     0.008 A 
HETATM    4  C   UNK N   1      28.550  22.333  -8.928  0.00  0.00    -0.055 A 
HETATM    5  C   UNK N   1      27.807  22.388  -7.692  0.00  0.00    -0.047 A 
HETATM    6  C   UNK N   1      28.530  22.204  -6.506  0.00  0.00     0.017 A 
HETATM    7  C   UNK N   1      27.963  22.369 -10.285  0.00  0.00     0.049 C 
ENDROOT
BRANCH   1   8
HETATM    8  C   UNK N   1      30.669  21.728  -5.236  0.00  0.00     0.186 C 
HETATM    9  C   UNK N   1      30.449  22.845  -4.182  0.00  0.00     0.182 C 
HETATM   10  C   UNK N   1      31.358  22.670  -2.966  0.00  0.00     0.181 C 
HETATM   11  C   UNK N   1      32.103  21.343  -3.014  0.00  0.00     0.180 C 
HETATM   12  C   UNK N   1      32.824  21.236  -4.373  0.00  0.00     0.177 C 
HETATM   13  O   UNK N   1      32.053  21.593  -5.518  0.00  0.00    -0.368 OA
BRANCH   9  14
HETATM   14  O   UNK N   1      30.670  24.115  -4.722  0.00  0.00    -0.390 OA
HETATM   15  H   UNK N   1      30.467  24.884  -5.278  0.00  0.00     0.210 HD
ENDBRANCH   9  14
BRANCH  10  16
HETATM   16  O   UNK N   1      30.607  22.776  -1.794  0.00  0.00    -0.390 OA
HETATM   17  H   UNK N   1      31.013  23.031  -0.951  0.00  0.00     0.210 HD
ENDBRANCH  10  16
BRANCH  11  18
HETATM   18  O   UNK N   1      33.026  21.273  -1.970  0.00  0.00    -0.390 OA
HETATM   19  H   UNK N   1      32.936  21.823  -1.177  0.00  0.00     0.210 HD
ENDBRANCH  11  18
BRANCH  12  20
HETATM   20  C   UNK N   1      33.423  19.856  -4.568  0.00  0.00     0.198 C 
BRANCH  20  21
HETATM   21  O   UNK N   1      32.565  18.894  -4.036  0.00  0.00    -0.398 OA
HETATM   22  H   UNK N   1      32.555  18.656  -3.095  0.00  0.00     0.209 HD
ENDBRANCH  20  21
ENDBRANCH  12  20
ENDBRANCH   1   8
BRANCH   5  23
HETATM   23  C   UNK N   1      26.298  22.600  -7.508  0.00  0.00     0.085 C 
BRANCH  23  24
HETATM   24  C   UNK N   1      25.825  23.998  -7.311  0.00  0.00    -0.013 A 
HETATM   25  S   UNK N   1      25.675  24.763  -5.852  0.00  0.00    -0.094 SA
HETATM   26  C   UNK N   1      25.786  26.328  -6.389  0.00  0.00     0.015 A 
HETATM   27  C   UNK N   1      25.842  26.293  -7.789  0.00  0.00     0.021 A 
HETATM   28  C   UNK N   1      25.867  24.972  -8.308  0.00  0.00     0.016 A 
BRANCH  26  29
HETATM   29  C   UNK N   1      26.356  27.424  -5.591  0.00  0.00    -0.019 A 
HETATM   30  C   UNK N   1      25.748  27.778  -4.377  0.00  0.00     0.016 A 
HETATM   31  C   UNK N   1      26.064  28.988  -3.757  0.00  0.00     0.043 A 
HETATM   32  C   UNK N   1      26.976  29.862  -4.355  0.00  0.00     0.116 A 
HETATM   33  C   UNK N   1      27.603  29.507  -5.552  0.00  0.00     0.043 A 
HETATM   34  F   UNK N   1      27.237  31.061  -3.783  0.00  0.00    -0.206 F 
HETATM   35  C   UNK N   1      27.286  28.297  -6.174  0.00  0.00     0.016 A 
ENDBRANCH  26  29
ENDBRANCH  23  24
ENDBRANCH   5  23
TORSDOF 9
ENDMDL
MODEL 4
REMARK VINA RESULT:      -7.7     12.057     14.637
REMARK  9 active torsions:
REMARK  status: ('A' for Active; 'I' for Inactive)
REMARK    1  A    between atoms: C_1  and  O_11 
REMARK    2  A    between atoms: C_2  and  O_8 
REMARK    3  A    between atoms: C_3  and  O_10 
REMARK    4  A    between atoms: C_4  and  C_9 
REMARK    5  A    between atoms: C_6  and  C_7 
REMARK    6  A    between atoms: C_7  and  O_12 
REMARK    7  A    between atoms: C_16  and  C_19 
REMARK    8  A    between atoms: C_19  and  C_20 
REMARK    9  A    between atoms: C_22  and  C_25 
ROOT
HETATM    1  C   UNK N   1      21.251  17.023   5.451  0.00  0.00    -0.026 A 
HETATM    2  C   UNK N   1      20.473  16.929   6.606  0.00  0.00     0.010 A 
HETATM    3  C   UNK N   1      20.686  15.896   7.498  0.00  0.00     0.008 A 
HETATM    4  C   UNK N   1      21.696  14.963   7.292  0.00  0.00    -0.055 A 
HETATM    5  C   UNK N   1      22.585  15.097   6.162  0.00  0.00    -0.047 A 
HETATM    6  C   UNK N   1      22.305  16.124   5.251  0.00  0.00     0.017 A 
HETATM    7  C   UNK N   1      21.735  13.872   8.291  0.00  0.00     0.049 C 
ENDROOT
BRANCH   1   8
HETATM    8  C   UNK N   1      20.894  18.051   4.410  0.00  0.00     0.186 C 
HETATM    9  C   UNK N   1      19.656  17.600   3.592  0.00  0.00     0.182 C 
HETATM   10  C   UNK N   1      19.397  18.517   2.397  0.00  0.00     0.181 C 
HETATM   11  C   UNK N   1      20.299  19.742   2.429  0.00  0.00     0.180 C 
HETATM   12  C   UNK N   1      21.760  19.271   2.568  0.00  0.00     0.177 C 
HETATM   13  O   UNK N   1      21.999  18.259   3.544  0.00  0.00    -0.368 OA
BRANCH   9  14
HETATM   14  O   UNK N   1      19.796  16.291   3.124  0.00  0.00    -0.390 OA
HETATM   15  H   UNK N   1      20.268  15.543   2.723  0.00  0.00     0.210 HD
ENDBRANCH   9  14
BRANCH  10  16
HETATM   16  O   UNK N   1      18.052  18.890   2.369  0.00  0.00    -0.390 OA
HETATM   17  H   UNK N   1      17.430  18.504   1.733  0.00  0.00     0.210 HD
ENDBRANCH  10  16
BRANCH  11  18
HETATM   18  O   UNK N   1      20.141  20.486   1.259  0.00  0.00    -0.390 OA
HETATM   19  H   UNK N   1      19.485  20.240   0.587  0.00  0.00     0.210 HD
ENDBRANCH  11  18
BRANCH  12  20
HETATM   20  C   UNK N   1      22.694  20.443   2.804  0.00  0.00     0.198 C 
BRANCH  20  21
HETATM   21  O   UNK N   1      21.951  21.618   2.917  0.00  0.00    -0.398 OA
HETATM   22  H   UNK N   1      22.183  22.334   3.529  0.00  0.00     0.209 HD
ENDBRANCH  20  21
ENDBRANCH  12  20
ENDBRANCH   1   8
BRANCH   5  23
HETATM   23  C   UNK N   1      23.800  14.228   5.812  0.00  0.00     0.085 C 
BRANCH  23  24
HETATM   24  C   UNK N   1      25.136  14.886   5.828  0.00  0.00    -0.013 A 
HETATM   25  S   UNK N   1      25.648  16.044   4.766  0.00  0.00    -0.094 SA
HETATM   26  C   UNK N   1      26.809  16.748   5.717  0.00  0.00     0.015 A 
HETATM   27  C   UNK N   1      26.899  15.999   6.898  0.00  0.00     0.021 A 
HETATM   28  C   UNK N   1      25.949  14.946   6.960  0.00  0.00     0.016 A 
BRANCH  26  29
HETATM   29  C   UNK N   1      27.173  18.170   5.640  0.00  0.00    -0.019 A 
HETATM   30  C   UNK N   1      27.750  18.794   6.756  0.00  0.00     0.016 A 
HETATM   31  C   UNK N   1      27.821  20.186   6.828  0.00  0.00     0.043 A 
HETATM   32  C   UNK N   1      27.299  20.966   5.793  0.00  0.00     0.116 A 
HETATM   33  C   UNK N   1      26.742  20.354   4.667  0.00  0.00     0.043 A 
HETATM   34  F   UNK N   1      27.315  22.316   5.890  0.00  0.00    -0.206 F 
HETATM   35  C   UNK N   1      26.670  18.960   4.595  0.00  0.00     0.016 A 
ENDBRANCH  26  29
ENDBRANCH  23  24
ENDBRANCH   5  23
TORSDOF 9
ENDMDL
MODEL 5
REMARK VINA RESULT:      -7.6     17.997     21.789
REMARK  9 active torsions:
REMARK  status: ('A' for Active; 'I' for Inactive)
REMARK    1  A    between atoms: C_1  and  O_11 
REMARK    2  A    between atoms: C_2  and  O_8 
REMARK    3  A    between atoms: C_3  and  O_10 
REMARK    4  A    between atoms: C_4  and  C_9 
REMARK    5  A    between atoms: C_6  and  C_7 
REMARK    6  A    between atoms: C_7  and  O_12 
REMARK    7  A    between atoms: C_16  and  C_19 
REMARK    8  A    between atoms: C_19  and  C_20 
REMARK    9  A    between atoms: C_22  and  C_25 
ROOT
HETATM    1  C   UNK N   1      28.446  23.025  -5.704  0.00  0.00    -0.026 A 
HETATM    2  C   UNK N   1      28.542  22.644  -7.044  0.00  0.00     0.010 A 
HETATM    3  C   UNK N   1      27.562  23.027  -7.941  0.00  0.00     0.008 A 
HETATM    4  C   UNK N   1      26.496  23.826  -7.545  0.00  0.00    -0.055 A 
HETATM    5  C   UNK N   1      26.427  24.322  -6.191  0.00  0.00    -0.047 A 
HETATM    6  C   UNK N   1      27.406  23.870  -5.297  0.00  0.00     0.017 A 
HETATM    7  C   UNK N   1      25.491  24.072  -8.603  0.00  0.00     0.049 C 
ENDROOT
BRANCH   1   8
HETATM    8  C   UNK N   1      29.426  22.460  -4.711  0.00  0.00     0.186 C 
HETATM    9  C   UNK N   1      29.711  23.477  -3.576  0.00  0.00     0.182 C 
HETATM   10  C   UNK N   1      30.854  23.019  -2.671  0.00  0.00     0.181 C 
HETATM   11  C   UNK N   1      31.288  21.597  -2.999  0.00  0.00     0.180 C 
HETATM   12  C   UNK N   1      31.593  21.514  -4.508  0.00  0.00     0.177 C 
HETATM   13  O   UNK N   1      30.635  22.120  -5.373  0.00  0.00    -0.368 OA
BRANCH   9  14
HETATM   14  O   UNK N   1      30.026  24.741  -4.083  0.00  0.00    -0.390 OA
HETATM   15  H   UNK N   1      30.617  25.472  -4.324  0.00  0.00     0.210 HD
ENDBRANCH   9  14
BRANCH  10  16
HETATM   16  O   UNK N   1      30.471  23.126  -1.334  0.00  0.00    -0.390 OA
HETATM   17  H   UNK N   1      30.150  22.360  -0.833  0.00  0.00     0.210 HD
ENDBRANCH  10  16
BRANCH  11  18
HETATM   18  O   UNK N   1      32.420  21.257  -2.258  0.00  0.00    -0.390 OA
HETATM   19  H   UNK N   1      33.156  20.767  -2.655  0.00  0.00     0.210 HD
ENDBRANCH  11  18
BRANCH  12  20
HETATM   20  C   UNK N   1      31.841  20.081  -4.939  0.00  0.00     0.198 C 
BRANCH  20  21
HETATM   21  O   UNK N   1      33.096  19.668  -4.492  0.00  0.00    -0.398 OA
HETATM   22  H   UNK N   1      33.217  18.966  -3.833  0.00  0.00     0.209 HD
ENDBRANCH  20  21
ENDBRANCH  12  20
ENDBRANCH   1   8
BRANCH   5  23
HETATM   23  C   UNK N   1      25.386  25.276  -5.590  0.00  0.00     0.085 C 
BRANCH  23  24
HETATM   24  C   UNK N   1      25.752  26.717  -5.502  0.00  0.00    -0.013 A 
HETATM   25  S   UNK N   1      25.719  27.632  -4.125  0.00  0.00    -0.094 SA
HETATM   26  C   UNK N   1      26.815  28.790  -4.580  0.00  0.00     0.015 A 
HETATM   27  C   UNK N   1      27.170  28.537  -5.912  0.00  0.00     0.021 A 
HETATM   28  C   UNK N   1      26.568  27.361  -6.431  0.00  0.00     0.016 A 
BRANCH  26  29
HETATM   29  C   UNK N   1      27.694  29.495  -3.636  0.00  0.00    -0.019 A 
HETATM   30  C   UNK N   1      28.904  28.901  -3.250  0.00  0.00     0.016 A 
HETATM   31  C   UNK N   1      29.604  29.382  -2.141  0.00  0.00     0.043 A 
HETATM   32  C   UNK N   1      29.090  30.450  -1.401  0.00  0.00     0.116 A 
HETATM   33  C   UNK N   1      27.896  31.062  -1.792  0.00  0.00     0.043 A 
HETATM   34  F   UNK N   1      29.739  30.877  -0.293  0.00  0.00    -0.206 F 
HETATM   35  C   UNK N   1      27.195  30.580  -2.900  0.00  0.00     0.016 A 
ENDBRANCH  26  29
ENDBRANCH  23  24
ENDBRANCH   5  23
TORSDOF 9
ENDMDL
MODEL 6
REMARK VINA RESULT:      -7.5      7.660     10.465
REMARK  9 active torsions:
REMARK  status: ('A' for Active; 'I' for Inactive)
REMARK    1  A    between atoms: C_1  and  O_11 
REMARK    2  A    between atoms: C_2  and  O_8 
REMARK    3  A    between atoms: C_3  and  O_10 
REMARK    4  A    between atoms: C_4  and  C_9 
REMARK    5  A    between atoms: C_6  and  C_7 
REMARK    6  A    between atoms: C_7  and  O_12 
REMARK    7  A    between atoms: C_16  and  C_19 
REMARK    8  A    between atoms: C_19  and  C_20 
REMARK    9  A    between atoms: C_22  and  C_25 
ROOT
HETATM    1  C   UNK N   1      29.125  16.046   5.325  0.00  0.00    -0.026 A 
HETATM    2  C   UNK N   1      29.004  16.913   4.238  0.00  0.00     0.010 A 
HETATM    3  C   UNK N   1      28.145  16.603   3.201  0.00  0.00     0.008 A 
HETATM    4  C   UNK N   1      27.357  15.458   3.237  0.00  0.00    -0.055 A 
HETATM    5  C   UNK N   1      27.383  14.598   4.396  0.00  0.00    -0.047 A 
HETATM    6  C   UNK N   1      28.305  14.914   5.402  0.00  0.00     0.017 A 
HETATM    7  C   UNK N   1      26.558  15.227   2.013  0.00  0.00     0.049 C 
ENDROOT
BRANCH   1   8
HETATM    8  C   UNK N   1      30.187  16.312   6.358  0.00  0.00     0.186 C 
HETATM    9  C   UNK N   1      29.569  16.936   7.636  0.00  0.00     0.182 C 
HETATM   10  C   UNK N   1      30.642  17.410   8.617  0.00  0.00     0.181 C 
HETATM   11  C   UNK N   1      32.031  16.973   8.176  0.00  0.00     0.180 C 
HETATM   12  C   UNK N   1      32.249  17.431   6.719  0.00  0.00     0.177 C 
HETATM   13  O   UNK N   1      31.171  17.183   5.820  0.00  0.00    -0.368 OA
BRANCH   9  14
HETATM   14  O   UNK N   1      28.738  18.018   7.332  0.00  0.00    -0.390 OA
HETATM   15  H   UNK N   1      28.493  18.956   7.283  0.00  0.00     0.210 HD
ENDBRANCH   9  14
BRANCH  10  16
HETATM   16  O   UNK N   1      30.355  16.936   9.898  0.00  0.00    -0.390 OA
HETATM   17  H   UNK N   1      29.456  16.680  10.157  0.00  0.00     0.210 HD
ENDBRANCH  10  16
BRANCH  11  18
HETATM   18  O   UNK N   1      32.999  17.537   9.008  0.00  0.00    -0.390 OA
HETATM   19  H   UNK N   1      33.829  17.075   9.205  0.00  0.00     0.210 HD
ENDBRANCH  11  18
BRANCH  12  20
HETATM   20  C   UNK N   1      33.534  16.858   6.151  0.00  0.00     0.198 C 
BRANCH  20  21
HETATM   21  O   UNK N   1      34.612  17.653   6.541  0.00  0.00    -0.398 OA
HETATM   22  H   UNK N   1      35.466  17.286   6.820  0.00  0.00     0.209 HD
ENDBRANCH  20  21
ENDBRANCH  12  20
ENDBRANCH   1   8
BRANCH   5  23
HETATM   23  C   UNK N   1      26.534  13.347   4.659  0.00  0.00     0.085 C 
BRANCH  23  24
HETATM   24  C   UNK N   1      25.312  13.515   5.494  0.00  0.00    -0.013 A 
HETATM   25  S   UNK N   1      24.709  12.393   6.548  0.00  0.00    -0.094 SA
HETATM   26  C   UNK N   1      23.866  13.422   7.538  0.00  0.00     0.015 A 
HETATM   27  C   UNK N   1      23.954  14.707   6.987  0.00  0.00     0.021 A 
HETATM   28  C   UNK N   1      24.776  14.758   5.831  0.00  0.00     0.016 A 
BRANCH  26  29
HETATM   29  C   UNK N   1      23.649  13.177   8.971  0.00  0.00    -0.019 A 
HETATM   30  C   UNK N   1      24.712  12.710   9.757  0.00  0.00     0.016 A 
HETATM   31  C   UNK N   1      24.471  12.179  11.026  0.00  0.00     0.043 A 
HETATM   32  C   UNK N   1      23.164  12.096  11.511  0.00  0.00     0.116 A 
HETATM   33  C   UNK N   1      22.101  12.579  10.745  0.00  0.00     0.043 A 
HETATM   34  F   UNK N   1      22.926  11.528  12.717  0.00  0.00    -0.206 F 
HETATM   35  C   UNK N   1      22.341  13.109   9.474  0.00  0.00     0.016 A 
ENDBRANCH  26  29
ENDBRANCH  23  24
ENDBRANCH   5  23
TORSDOF 9
ENDMDL
MODEL 7
REMARK VINA RESULT:      -7.5     18.290     22.437
REMARK  9 active torsions:
REMARK  status: ('A' for Active; 'I' for Inactive)
REMARK    1  A    between atoms: C_1  and  O_11 
REMARK    2  A    between atoms: C_2  and  O_8 
REMARK    3  A    between atoms: C_3  and  O_10 
REMARK    4  A    between atoms: C_4  and  C_9 
REMARK    5  A    between atoms: C_6  and  C_7 
REMARK    6  A    between atoms: C_7  and  O_12 
REMARK    7  A    between atoms: C_16  and  C_19 
REMARK    8  A    between atoms: C_19  and  C_20 
REMARK    9  A    between atoms: C_22  and  C_25 
ROOT
HETATM    1  C   UNK N   1      30.044  22.194  -6.939  0.00  0.00    -0.026 A 
HETATM    2  C   UNK N   1      30.712  22.133  -8.163  0.00  0.00     0.010 A 
HETATM    3  C   UNK N   1      29.991  22.107  -9.341  0.00  0.00     0.008 A 
HETATM    4  C   UNK N   1      28.603  22.184  -9.338  0.00  0.00    -0.055 A 
HETATM    5  C   UNK N   1      27.890  22.354  -8.094  0.00  0.00    -0.047 A 
HETATM    6  C   UNK N   1      28.650  22.322  -6.917  0.00  0.00     0.017 A 
HETATM    7  C   UNK N   1      27.980  22.054 -10.674  0.00  0.00     0.049 C 
ENDROOT
BRANCH   1   8
HETATM    8  C   UNK N   1      30.835  22.050  -5.666  0.00  0.00     0.186 C 
HETATM    9  C   UNK N   1      31.671  20.745  -5.681  0.00  0.00     0.182 C 
HETATM   10  C   UNK N   1      32.319  20.465  -4.325  0.00  0.00     0.181 C 
HETATM   11  C   UNK N   1      32.136  21.635  -3.369  0.00  0.00     0.180 C 
HETATM   12  C   UNK N   1      30.635  21.982  -3.302  0.00  0.00     0.177 C 
HETATM   13  O   UNK N   1      29.954  22.049  -4.553  0.00  0.00    -0.368 OA
BRANCH   9  14
HETATM   14  O   UNK N   1      30.896  19.639  -6.039  0.00  0.00    -0.390 OA
HETATM   15  H   UNK N   1      30.492  19.007  -6.655  0.00  0.00     0.210 HD
ENDBRANCH   9  14
BRANCH  10  16
HETATM   16  O   UNK N   1      33.672  20.172  -4.498  0.00  0.00    -0.390 OA
HETATM   17  H   UNK N   1      34.157  19.615  -3.870  0.00  0.00     0.210 HD
ENDBRANCH  10  16
BRANCH  11  18
HETATM   18  O   UNK N   1      32.611  21.298  -2.101  0.00  0.00    -0.390 OA
HETATM   19  H   UNK N   1      32.701  21.963  -1.401  0.00  0.00     0.210 HD
ENDBRANCH  11  18
BRANCH  12  20
HETATM   20  C   UNK N   1      30.403  23.262  -2.522  0.00  0.00     0.198 C 
BRANCH  20  21
HETATM   21  O   UNK N   1      30.372  22.979  -1.156  0.00  0.00    -0.398 OA
HETATM   22  H   UNK N   1      30.031  23.601  -0.495  0.00  0.00     0.209 HD
ENDBRANCH  20  21
ENDBRANCH  12  20
ENDBRANCH   1   8
BRANCH   5  23
HETATM   23  C   UNK N   1      26.381  22.542  -7.891  0.00  0.00     0.085 C 
BRANCH  23  24
HETATM   24  C   UNK N   1      25.891  23.930  -7.668  0.00  0.00    -0.013 A 
HETATM   25  S   UNK N   1      25.729  24.665  -6.196  0.00  0.00    -0.094 SA
HETATM   26  C   UNK N   1      25.821  26.241  -6.703  0.00  0.00     0.015 A 
HETATM   27  C   UNK N   1      25.881  26.233  -8.103  0.00  0.00     0.021 A 
HETATM   28  C   UNK N   1      25.922  24.923  -8.648  0.00  0.00     0.016 A 
BRANCH  26  29
HETATM   29  C   UNK N   1      26.376  27.329  -5.883  0.00  0.00    -0.019 A 
HETATM   30  C   UNK N   1      25.695  27.732  -4.725  0.00  0.00     0.016 A 
HETATM   31  C   UNK N   1      26.015  28.941  -4.104  0.00  0.00     0.043 A 
HETATM   32  C   UNK N   1      27.005  29.763  -4.646  0.00  0.00     0.116 A 
HETATM   33  C   UNK N   1      27.704  29.359  -5.786  0.00  0.00     0.043 A 
HETATM   34  F   UNK N   1      27.274  30.962  -4.077  0.00  0.00    -0.206 F 
HETATM   35  C   UNK N   1      27.384  28.150  -6.409  0.00  0.00     0.016 A 
ENDBRANCH  26  29
ENDBRANCH  23  24
ENDBRANCH   5  23
TORSDOF 9
ENDMDL
MODEL 8
REMARK VINA RESULT:      -7.5     13.326     15.427
REMARK  9 active torsions:
REMARK  status: ('A' for Active; 'I' for Inactive)
REMARK    1  A    between atoms: C_1  and  O_11 
REMARK    2  A    between atoms: C_2  and  O_8 
REMARK    3  A    between atoms: C_3  and  O_10 
REMARK    4  A    between atoms: C_4  and  C_9 
REMARK    5  A    between atoms: C_6  and  C_7 
REMARK    6  A    between atoms: C_7  and  O_12 
REMARK    7  A    between atoms: C_16  and  C_19 
REMARK    8  A    between atoms: C_19  and  C_20 
REMARK    9  A    between atoms: C_22  and  C_25 
ROOT
HETATM    1  C   UNK N   1      20.642  15.864   2.082  0.00  0.00    -0.026 A 
HETATM    2  C   UNK N   1      19.938  15.522   0.926  0.00  0.00     0.010 A 
HETATM    3  C   UNK N   1      19.851  14.198   0.538  0.00  0.00     0.008 A 
HETATM    4  C   UNK N   1      20.417  13.185   1.303  0.00  0.00    -0.055 A 
HETATM    5  C   UNK N   1      21.060  13.498   2.557  0.00  0.00    -0.047 A 
HETATM    6  C   UNK N   1      21.176  14.854   2.891  0.00  0.00     0.017 A 
HETATM    7  C   UNK N   1      20.312  11.835   0.706  0.00  0.00     0.049 C 
ENDROOT
BRANCH   1   8
HETATM    8  C   UNK N   1      20.870  17.319   2.395  0.00  0.00     0.186 C 
HETATM    9  C   UNK N   1      20.429  17.647   3.845  0.00  0.00     0.182 C 
HETATM   10  C   UNK N   1      20.451  19.149   4.123  0.00  0.00     0.181 C 
HETATM   11  C   UNK N   1      21.084  19.919   2.972  0.00  0.00     0.180 C 
HETATM   12  C   UNK N   1      20.370  19.521   1.665  0.00  0.00     0.177 C 
HETATM   13  O   UNK N   1      20.150  18.125   1.474  0.00  0.00    -0.368 OA
BRANCH   9  14
HETATM   14  O   UNK N   1      19.145  17.165   4.115  0.00  0.00    -0.390 OA
HETATM   15  H   UNK N   1      18.493  16.571   4.521  0.00  0.00     0.210 HD
ENDBRANCH   9  14
BRANCH  10  16
HETATM   16  O   UNK N   1      21.126  19.400   5.319  0.00  0.00    -0.390 OA
HETATM   17  H   UNK N   1      21.168  20.289   5.703  0.00  0.00     0.210 HD
ENDBRANCH  10  16
BRANCH  11  18
HETATM   18  O   UNK N   1      20.964  21.292   3.189  0.00  0.00    -0.390 OA
HETATM   19  H   UNK N   1      21.579  21.924   2.785  0.00  0.00     0.210 HD
ENDBRANCH  11  18
BRANCH  12  20
HETATM   20  C   UNK N   1      21.077  20.100   0.455  0.00  0.00     0.198 C 
BRANCH  20  21
HETATM   21  O   UNK N   1      20.483  21.311   0.101  0.00  0.00    -0.398 OA
HETATM   22  H   UNK N   1      20.258  21.998   0.748  0.00  0.00     0.209 HD
ENDBRANCH  20  21
ENDBRANCH  12  20
ENDBRANCH   1   8
BRANCH   5  23
HETATM   23  C   UNK N   1      21.665  12.522   3.575  0.00  0.00     0.085 C 
BRANCH  23  24
HETATM   24  C   UNK N   1      22.179  13.098   4.849  0.00  0.00    -0.013 A 
HETATM   25  S   UNK N   1      21.398  13.053   6.306  0.00  0.00    -0.094 SA
HETATM   26  C   UNK N   1      22.721  13.214   7.293  0.00  0.00     0.015 A 
HETATM   27  C   UNK N   1      23.839  13.418   6.473  0.00  0.00     0.021 A 
HETATM   28  C   UNK N   1      23.530  13.349   5.089  0.00  0.00     0.016 A 
BRANCH  26  29
HETATM   29  C   UNK N   1      22.809  12.626   8.638  0.00  0.00    -0.019 A 
HETATM   30  C   UNK N   1      21.651  12.528   9.423  0.00  0.00     0.016 A 
HETATM   31  C   UNK N   1      21.747  12.270  10.791  0.00  0.00     0.043 A 
HETATM   32  C   UNK N   1      23.001  12.126  11.389  0.00  0.00     0.116 A 
HETATM   33  C   UNK N   1      24.160  12.200  10.611  0.00  0.00     0.043 A 
HETATM   34  F   UNK N   1      23.095  11.935  12.726  0.00  0.00    -0.206 F 
HETATM   35  C   UNK N   1      24.065  12.460   9.241  0.00  0.00     0.016 A 
ENDBRANCH  26  29
ENDBRANCH  23  24
ENDBRANCH   5  23
TORSDOF 9
ENDMDL
MODEL 9
REMARK VINA RESULT:      -7.4     10.209     13.332
REMARK  9 active torsions:
REMARK  status: ('A' for Active; 'I' for Inactive)
REMARK    1  A    between atoms: C_1  and  O_11 
REMARK    2  A    between atoms: C_2  and  O_8 
REMARK    3  A    between atoms: C_3  and  O_10 
REMARK    4  A    between atoms: C_4  and  C_9 
REMARK    5  A    between atoms: C_6  and  C_7 
REMARK    6  A    between atoms: C_7  and  O_12 
REMARK    7  A    between atoms: C_16  and  C_19 
REMARK    8  A    between atoms: C_19  and  C_20 
REMARK    9  A    between atoms: C_22  and  C_25 
ROOT
HETATM    1  C   UNK N   1      22.512  17.480   4.944  0.00  0.00    -0.026 A 
HETATM    2  C   UNK N   1      21.807  18.503   4.306  0.00  0.00     0.010 A 
HETATM    3  C   UNK N   1      22.491  19.474   3.600  0.00  0.00     0.008 A 
HETATM    4  C   UNK N   1      23.875  19.432   3.473  0.00  0.00    -0.055 A 
HETATM    5  C   UNK N   1      24.620  18.329   4.031  0.00  0.00    -0.047 A 
HETATM    6  C   UNK N   1      23.900  17.392   4.786  0.00  0.00     0.017 A 
HETATM    7  C   UNK N   1      24.459  20.591   2.763  0.00  0.00     0.049 C 
ENDROOT
BRANCH   1   8
HETATM    8  C   UNK N   1      21.768  16.532   5.846  0.00  0.00     0.186 C 
HETATM    9  C   UNK N   1      20.667  17.279   6.643  0.00  0.00     0.182 C 
HETATM   10  C   UNK N   1      20.037  16.391   7.716  0.00  0.00     0.181 C 
HETATM   11  C   UNK N   1      20.514  14.951   7.598  0.00  0.00     0.180 C 
HETATM   12  C   UNK N   1      22.056  14.944   7.587  0.00  0.00     0.177 C 
HETATM   13  O   UNK N   1      22.677  15.909   6.741  0.00  0.00    -0.368 OA
BRANCH   9  14
HETATM   14  O   UNK N   1      21.167  18.430   7.257  0.00  0.00    -0.390 OA
HETATM   15  H   UNK N   1      21.391  19.373   7.313  0.00  0.00     0.210 HD
ENDBRANCH   9  14
BRANCH  10  16
HETATM   16  O   UNK N   1      18.646  16.463   7.633  0.00  0.00    -0.390 OA
HETATM   17  H   UNK N   1      18.110  16.819   8.359  0.00  0.00     0.210 HD
ENDBRANCH  10  16
BRANCH  11  18
HETATM   18  O   UNK N   1      20.036  14.197   8.670  0.00  0.00    -0.390 OA
HETATM   19  H   UNK N   1      19.087  14.038   8.794  0.00  0.00     0.210 HD
ENDBRANCH  11  18
BRANCH  12  20
HETATM   20  C   UNK N   1      22.597  13.562   7.273  0.00  0.00     0.198 C 
BRANCH  20  21
HETATM   21  O   UNK N   1      21.603  12.799   6.660  0.00  0.00    -0.398 OA
HETATM   22  H   UNK N   1      21.751  12.297   5.843  0.00  0.00     0.209 HD
ENDBRANCH  20  21
ENDBRANCH  12  20
ENDBRANCH   1   8
BRANCH   5  23
HETATM   23  C   UNK N   1      26.127  18.060   3.926  0.00  0.00     0.085 C 
BRANCH  23  24
HETATM   24  C   UNK N   1      26.894  17.964   5.199  0.00  0.00    -0.013 A 
HETATM   25  S   UNK N   1      27.983  16.779   5.575  0.00  0.00    -0.094 SA
HETATM   26  C   UNK N   1      28.871  17.615   6.697  0.00  0.00     0.015 A 
HETATM   27  C   UNK N   1      28.250  18.857   6.889  0.00  0.00     0.021 A 
HETATM   28  C   UNK N   1      27.132  19.054   6.037  0.00  0.00     0.016 A 
BRANCH  26  29
HETATM   29  C   UNK N   1      30.305  17.391   6.933  0.00  0.00    -0.019 A 
HETATM   30  C   UNK N   1      30.853  17.702   8.186  0.00  0.00     0.016 A 
HETATM   31  C   UNK N   1      32.236  17.796   8.347  0.00  0.00     0.043 A 
HETATM   32  C   UNK N   1      33.082  17.597   7.253  0.00  0.00     0.116 A 
HETATM   33  C   UNK N   1      32.546  17.265   6.006  0.00  0.00     0.043 A 
HETATM   34  F   UNK N   1      34.419  17.746   7.397  0.00  0.00    -0.206 F 
HETATM   35  C   UNK N   1      31.162  17.172   5.843  0.00  0.00     0.016 A 
ENDBRANCH  26  29
ENDBRANCH  23  24
ENDBRANCH   5  23
TORSDOF 9
ENDMDL
