MODEL 1
REMARK VINA RESULT:      -6.2      0.000      0.000
REMARK  6 active torsions:
REMARK  status: ('A' for Active; 'I' for Inactive)
REMARK    1  A    between atoms: C_18  and  C_9 
REMARK    2  A    between atoms: N_25  and  C_9 
REMARK    3  A    between atoms: C_14  and  C_10 
REMARK    4  A    between atoms: O_26  and  C_10 
REMARK    5  A    between atoms: C_18  and  C_13 
REMARK    6  A    between atoms: O_26  and  C_18 
ROOT
HETATM    1  C   UNK N   1      26.893  25.039  -4.834  0.00  0.00     0.174 C 
ENDROOT
BRANCH   1   2
HETATM    2  C   UNK N   1      25.622  24.314  -5.330  0.00  0.00     0.166 C 
BRANCH   2   3
HETATM    3  N   UNK N   1      25.706  23.725  -6.657  0.00  0.00    -0.349 N 
HETATM    4  C   UNK N   1      25.694  24.395  -7.821  0.00  0.00     0.108 A 
HETATM    5  C   UNK N   1      25.652  23.461  -8.837  0.00  0.00     0.106 A 
HETATM    6  N   UNK N   1      25.616  22.227  -8.287  0.00  0.00    -0.361 N 
HETATM    7  C   UNK N   1      25.635  22.418  -6.956  0.00  0.00     0.182 A 
ATOM      8  HN  UNK N   1      25.582  21.335  -8.781  1.00  0.00     0.166 HD
ENDBRANCH   2   3
ENDBRANCH   1   2
BRANCH   1   9
HETATM    9  C   UNK N   1      26.835  26.529  -4.621  0.00  0.00    -0.006 A 
HETATM   10  C   UNK N   1      26.227  27.074  -3.480  0.00  0.00     0.013 A 
HETATM   11  C   UNK N   1      26.119  28.462  -3.332  0.00  0.00     0.024 A 
HETATM   12  C   UNK N   1      26.628  29.311  -4.318  0.00  0.00     0.035 A 
HETATM   13  C   UNK N   1      27.260  28.776  -5.441  0.00  0.00     0.048 A 
HETATM   14 Cl   UNK N   1      26.460  31.047  -4.161  0.00  0.00    -0.084 Cl
HETATM   15  C   UNK N   1      27.367  27.392  -5.598  0.00  0.00     0.044 A 
HETATM   16 Cl   UNK N   1      28.157  26.763  -7.035  0.00  0.00    -0.084 Cl
ENDBRANCH   1   9
BRANCH   1  17
HETATM   17  O   UNK N   1      27.628  24.314  -3.883  0.00  0.00    -0.375 OA
BRANCH  17  18
HETATM   18  C   UNK N   1      28.911  24.310  -4.453  0.00  0.00     0.210 C 
BRANCH  18  19
HETATM   19  C   UNK N   1      29.561  22.963  -4.582  0.00  0.00     0.009 A 
HETATM   20  C   UNK N   1      30.083  22.282  -3.461  0.00  0.00     0.044 A 
HETATM   21  C   UNK N   1      30.751  21.065  -3.635  0.00  0.00     0.024 A 
HETATM   22 Cl   UNK N   1      29.943  22.931  -1.837  0.00  0.00    -0.084 Cl
HETATM   23  C   UNK N   1      30.904  20.518  -4.910  0.00  0.00     0.003 A 
HETATM   24  C   UNK N   1      30.385  21.182  -6.020  0.00  0.00     0.024 A 
HETATM   25  C   UNK N   1      29.716  22.399  -5.865  0.00  0.00     0.044 A 
HETATM   26 Cl   UNK N   1      29.101  23.210  -7.299  0.00  0.00    -0.084 Cl
ENDBRANCH  18  19
ENDBRANCH  17  18
ENDBRANCH   1  17
TORSDOF 6
ENDMDL
MODEL 2
REMARK VINA RESULT:      -6.2     12.563     14.645
REMARK  6 active torsions:
REMARK  status: ('A' for Active; 'I' for Inactive)
REMARK    1  A    between atoms: C_18  and  C_9 
REMARK    2  A    between atoms: N_25  and  C_9 
REMARK    3  A    between atoms: C_14  and  C_10 
REMARK    4  A    between atoms: O_26  and  C_10 
REMARK    5  A    between atoms: C_18  and  C_13 
REMARK    6  A    between atoms: O_26  and  C_18 
ROOT
HETATM    1  C   UNK N   1      22.181  17.208   5.459  0.00  0.00     0.174 C 
ENDROOT
BRANCH   1   2
HETATM    2  C   UNK N   1      21.951  16.815   3.983  0.00  0.00     0.166 C 
BRANCH   2   3
HETATM    3  N   UNK N   1      20.939  17.583   3.274  0.00  0.00    -0.349 N 
HETATM    4  C   UNK N   1      20.632  18.872   3.487  0.00  0.00     0.108 A 
HETATM    5  C   UNK N   1      19.533  19.172   2.708  0.00  0.00     0.106 A 
HETATM    6  N   UNK N   1      19.160  18.058   2.041  0.00  0.00    -0.361 N 
HETATM    7  C   UNK N   1      20.026  17.099   2.415  0.00  0.00     0.182 A 
ATOM      8  HN  UNK N   1      18.383  17.964   1.387  1.00  0.00     0.166 HD
ENDBRANCH   2   3
ENDBRANCH   1   2
BRANCH   1   9
HETATM    9  C   UNK N   1      22.048  16.144   6.517  0.00  0.00    -0.006 A 
HETATM   10  C   UNK N   1      22.790  14.955   6.445  0.00  0.00     0.013 A 
HETATM   11  C   UNK N   1      22.602  13.947   7.398  0.00  0.00     0.024 A 
HETATM   12  C   UNK N   1      21.679  14.126   8.432  0.00  0.00     0.035 A 
HETATM   13  C   UNK N   1      20.959  15.318   8.525  0.00  0.00     0.048 A 
HETATM   14 Cl   UNK N   1      21.407  12.854   9.604  0.00  0.00    -0.084 Cl
HETATM   15  C   UNK N   1      21.138  16.327   7.576  0.00  0.00     0.044 A 
HETATM   16 Cl   UNK N   1      20.199  17.804   7.724  0.00  0.00    -0.084 Cl
ENDBRANCH   1   9
BRANCH   1  17
HETATM   17  O   UNK N   1      23.224  18.129   5.647  0.00  0.00    -0.375 OA
BRANCH  17  18
HETATM   18  C   UNK N   1      24.099  17.791   4.602  0.00  0.00     0.210 C 
BRANCH  18  19
HETATM   19  C   UNK N   1      25.383  18.566   4.553  0.00  0.00     0.009 A 
HETATM   20  C   UNK N   1      25.484  19.790   3.858  0.00  0.00     0.044 A 
HETATM   21  C   UNK N   1      26.719  20.442   3.770  0.00  0.00     0.024 A 
HETATM   22 Cl   UNK N   1      24.097  20.522   3.068  0.00  0.00    -0.084 Cl
HETATM   23  C   UNK N   1      27.854  19.889   4.365  0.00  0.00     0.003 A 
HETATM   24  C   UNK N   1      27.761  18.683   5.058  0.00  0.00     0.024 A 
HETATM   25  C   UNK N   1      26.535  18.019   5.155  0.00  0.00     0.044 A 
HETATM   26 Cl   UNK N   1      26.474  16.488   6.019  0.00  0.00    -0.084 Cl
ENDBRANCH  18  19
ENDBRANCH  17  18
ENDBRANCH   1  17
TORSDOF 6
ENDMDL
MODEL 3
REMARK VINA RESULT:      -6.2     12.519     14.397
REMARK  6 active torsions:
REMARK  status: ('A' for Active; 'I' for Inactive)
REMARK    1  A    between atoms: C_18  and  C_9 
REMARK    2  A    between atoms: N_25  and  C_9 
REMARK    3  A    between atoms: C_14  and  C_10 
REMARK    4  A    between atoms: O_26  and  C_10 
REMARK    5  A    between atoms: C_18  and  C_13 
REMARK    6  A    between atoms: O_26  and  C_18 
ROOT
HETATM    1  C   UNK N   1      22.148  17.475   5.480  0.00  0.00     0.174 C 
ENDROOT
BRANCH   1   2
HETATM    2  C   UNK N   1      21.931  17.049   4.011  0.00  0.00     0.166 C 
BRANCH   2   3
HETATM    3  N   UNK N   1      20.895  17.772   3.289  0.00  0.00    -0.349 N 
HETATM    4  C   UNK N   1      20.593  19.072   3.433  0.00  0.00     0.108 A 
HETATM    5  C   UNK N   1      19.467  19.323   2.673  0.00  0.00     0.106 A 
HETATM    6  N   UNK N   1      19.076  18.170   2.087  0.00  0.00    -0.361 N 
HETATM    7  C   UNK N   1      19.956  17.236   2.492  0.00  0.00     0.182 A 
ATOM      8  HN  UNK N   1      18.279  18.035   1.466  1.00  0.00     0.166 HD
ENDBRANCH   2   3
ENDBRANCH   1   2
BRANCH   1   9
HETATM    9  C   UNK N   1      21.649  16.567   6.573  0.00  0.00    -0.006 A 
HETATM   10  C   UNK N   1      20.628  16.978   7.444  0.00  0.00     0.013 A 
HETATM   11  C   UNK N   1      20.225  16.150   8.499  0.00  0.00     0.024 A 
HETATM   12  C   UNK N   1      20.832  14.905   8.682  0.00  0.00     0.035 A 
HETATM   13  C   UNK N   1      21.828  14.479   7.801  0.00  0.00     0.048 A 
HETATM   14 Cl   UNK N   1      20.363  13.881  10.023  0.00  0.00    -0.084 Cl
HETATM   15  C   UNK N   1      22.238  15.301   6.749  0.00  0.00     0.044 A 
HETATM   16 Cl   UNK N   1      23.506  14.730   5.675  0.00  0.00    -0.084 Cl
ENDBRANCH   1   9
BRANCH   1  17
HETATM   17  O   UNK N   1      23.387  18.093   5.718  0.00  0.00    -0.375 OA
BRANCH  17  18
HETATM   18  C   UNK N   1      24.050  17.888   4.497  0.00  0.00     0.210 C 
BRANCH  18  19
HETATM   19  C   UNK N   1      25.388  18.554   4.364  0.00  0.00     0.009 A 
HETATM   20  C   UNK N   1      26.545  18.022   4.971  0.00  0.00     0.044 A 
HETATM   21  C   UNK N   1      27.757  18.716   4.889  0.00  0.00     0.024 A 
HETATM   22 Cl   UNK N   1      26.510  16.508   5.860  0.00  0.00    -0.084 Cl
HETATM   23  C   UNK N   1      27.830  19.933   4.210  0.00  0.00     0.003 A 
HETATM   24  C   UNK N   1      26.693  20.462   3.602  0.00  0.00     0.024 A 
HETATM   25  C   UNK N   1      25.474  19.782   3.675  0.00  0.00     0.044 A 
HETATM   26 Cl   UNK N   1      24.061  20.502   2.913  0.00  0.00    -0.084 Cl
ENDBRANCH  18  19
ENDBRANCH  17  18
ENDBRANCH   1  17
TORSDOF 6
ENDMDL
MODEL 4
REMARK VINA RESULT:      -6.2      1.419      2.159
REMARK  6 active torsions:
REMARK  status: ('A' for Active; 'I' for Inactive)
REMARK    1  A    between atoms: C_18  and  C_9 
REMARK    2  A    between atoms: N_25  and  C_9 
REMARK    3  A    between atoms: C_14  and  C_10 
REMARK    4  A    between atoms: O_26  and  C_10 
REMARK    5  A    between atoms: C_18  and  C_13 
REMARK    6  A    between atoms: O_26  and  C_18 
ROOT
HETATM    1  C   UNK N   1      26.791  24.662  -6.553  0.00  0.00     0.174 C 
ENDROOT
BRANCH   1   2
HETATM    2  C   UNK N   1      25.649  24.278  -7.519  0.00  0.00     0.166 C 
BRANCH   2   3
HETATM    3  N   UNK N   1      25.754  22.964  -8.133  0.00  0.00    -0.349 N 
HETATM    4  C   UNK N   1      26.499  22.650  -9.205  0.00  0.00     0.108 A 
HETATM    5  C   UNK N   1      26.209  21.343  -9.545  0.00  0.00     0.106 A 
HETATM    6  N   UNK N   1      25.271  20.874  -8.692  0.00  0.00    -0.361 N 
HETATM    7  C   UNK N   1      25.001  21.888  -7.850  0.00  0.00     0.182 A 
ATOM      8  HN  UNK N   1      24.856  19.943  -8.687  1.00  0.00     0.166 HD
ENDBRANCH   2   3
ENDBRANCH   1   2
BRANCH   1   9
HETATM    9  C   UNK N   1      26.700  25.970  -5.813  0.00  0.00    -0.006 A 
HETATM   10  C   UNK N   1      26.116  26.042  -4.539  0.00  0.00     0.013 A 
HETATM   11  C   UNK N   1      25.976  27.278  -3.896  0.00  0.00     0.024 A 
HETATM   12  C   UNK N   1      26.428  28.445  -4.518  0.00  0.00     0.035 A 
HETATM   13  C   UNK N   1      27.035  28.376  -5.772  0.00  0.00     0.048 A 
HETATM   14 Cl   UNK N   1      26.218  29.999  -3.739  0.00  0.00    -0.084 Cl
HETATM   15  C   UNK N   1      27.175  27.147  -6.422  0.00  0.00     0.044 A 
HETATM   16 Cl   UNK N   1      27.933  27.111  -8.006  0.00  0.00    -0.084 Cl
ENDBRANCH   1   9
BRANCH   1  17
HETATM   17  O   UNK N   1      27.304  23.580  -5.819  0.00  0.00    -0.375 OA
BRANCH  17  18
HETATM   18  C   UNK N   1      28.683  23.693  -6.064  0.00  0.00     0.210 C 
BRANCH  18  19
HETATM   19  C   UNK N   1      29.578  23.026  -5.061  0.00  0.00     0.009 A 
HETATM   20  C   UNK N   1      29.965  21.675  -5.196  0.00  0.00     0.044 A 
HETATM   21  C   UNK N   1      30.735  21.068  -4.199  0.00  0.00     0.024 A 
HETATM   22 Cl   UNK N   1      29.483  20.710  -6.581  0.00  0.00    -0.084 Cl
HETATM   23  C   UNK N   1      31.126  21.790  -3.070  0.00  0.00     0.003 A 
HETATM   24  C   UNK N   1      30.753  23.126  -2.933  0.00  0.00     0.024 A 
HETATM   25  C   UNK N   1      29.983  23.748  -3.920  0.00  0.00     0.044 A 
HETATM   26 Cl   UNK N   1      29.517  25.428  -3.689  0.00  0.00    -0.084 Cl
ENDBRANCH  18  19
ENDBRANCH  17  18
ENDBRANCH   1  17
TORSDOF 6
ENDMDL
MODEL 5
REMARK VINA RESULT:      -6.1     13.668     17.086
REMARK  6 active torsions:
REMARK  status: ('A' for Active; 'I' for Inactive)
REMARK    1  A    between atoms: C_18  and  C_9 
REMARK    2  A    between atoms: N_25  and  C_9 
REMARK    3  A    between atoms: C_14  and  C_10 
REMARK    4  A    between atoms: O_26  and  C_10 
REMARK    5  A    between atoms: C_18  and  C_13 
REMARK    6  A    between atoms: O_26  and  C_18 
ROOT
HETATM    1  C   UNK N   1      33.390  16.584   7.813  0.00  0.00     0.174 C 
ENDROOT
BRANCH   1   2
HETATM    2  C   UNK N   1      34.301  16.824   6.588  0.00  0.00     0.166 C 
BRANCH   2   3
HETATM    3  N   UNK N   1      33.676  16.634   5.288  0.00  0.00    -0.349 N 
HETATM    4  C   UNK N   1      33.780  15.542   4.512  0.00  0.00     0.108 A 
HETATM    5  C   UNK N   1      33.156  15.823   3.313  0.00  0.00     0.106 A 
HETATM    6  N   UNK N   1      32.693  17.093   3.355  0.00  0.00    -0.361 N 
HETATM    7  C   UNK N   1      33.037  17.568   4.565  0.00  0.00     0.182 A 
ATOM      8  HN  UNK N   1      32.187  17.586   2.621  1.00  0.00     0.166 HD
ENDBRANCH   2   3
ENDBRANCH   1   2
BRANCH   1   9
HETATM    9  C   UNK N   1      34.019  16.104   9.094  0.00  0.00    -0.006 A 
HETATM   10  C   UNK N   1      34.800  16.963   9.883  0.00  0.00     0.013 A 
HETATM   11  C   UNK N   1      35.435  16.481  11.034  0.00  0.00     0.024 A 
HETATM   12  C   UNK N   1      35.284  15.143  11.407  0.00  0.00     0.035 A 
HETATM   13  C   UNK N   1      34.485  14.292  10.643  0.00  0.00     0.048 A 
HETATM   14 Cl   UNK N   1      36.108  14.522  12.822  0.00  0.00    -0.084 Cl
HETATM   15  C   UNK N   1      33.852  14.764   9.491  0.00  0.00     0.044 A 
HETATM   16 Cl   UNK N   1      32.868  13.652   8.551  0.00  0.00    -0.084 Cl
ENDBRANCH   1   9
BRANCH   1  17
HETATM   17  O   UNK N   1      32.363  17.532   7.953  0.00  0.00    -0.375 OA
BRANCH  17  18
HETATM   18  C   UNK N   1      31.229  16.713   8.071  0.00  0.00     0.210 C 
BRANCH  18  19
HETATM   19  C   UNK N   1      29.958  17.278   7.509  0.00  0.00     0.009 A 
HETATM   20  C   UNK N   1      29.431  16.838   6.275  0.00  0.00     0.044 A 
HETATM   21  C   UNK N   1      28.287  17.446   5.749  0.00  0.00     0.024 A 
HETATM   22 Cl   UNK N   1      30.189  15.549   5.355  0.00  0.00    -0.084 Cl
HETATM   23  C   UNK N   1      27.661  18.488   6.435  0.00  0.00     0.003 A 
HETATM   24  C   UNK N   1      28.172  18.924   7.657  0.00  0.00     0.024 A 
HETATM   25  C   UNK N   1      29.314  18.328   8.197  0.00  0.00     0.044 A 
HETATM   26 Cl   UNK N   1      29.934  18.931   9.729  0.00  0.00    -0.084 Cl
ENDBRANCH  18  19
ENDBRANCH  17  18
ENDBRANCH   1  17
TORSDOF 6
ENDMDL
MODEL 6
REMARK VINA RESULT:      -6.0     13.740     17.201
REMARK  6 active torsions:
REMARK  status: ('A' for Active; 'I' for Inactive)
REMARK    1  A    between atoms: C_18  and  C_9 
REMARK    2  A    between atoms: N_25  and  C_9 
REMARK    3  A    between atoms: C_14  and  C_10 
REMARK    4  A    between atoms: O_26  and  C_10 
REMARK    5  A    between atoms: C_18  and  C_13 
REMARK    6  A    between atoms: O_26  and  C_18 
ROOT
HETATM    1  C   UNK N   1      33.578  16.311   7.857  0.00  0.00     0.174 C 
ENDROOT
BRANCH   1   2
HETATM    2  C   UNK N   1      34.530  16.455   6.649  0.00  0.00     0.166 C 
BRANCH   2   3
HETATM    3  N   UNK N   1      33.890  16.518   5.343  0.00  0.00    -0.349 N 
HETATM    4  C   UNK N   1      33.126  17.523   4.886  0.00  0.00     0.108 A 
HETATM    5  C   UNK N   1      32.606  17.128   3.669  0.00  0.00     0.106 A 
HETATM    6  N   UNK N   1      33.037  15.875   3.402  0.00  0.00    -0.361 N 
HETATM    7  C   UNK N   1      33.807  15.522   4.447  0.00  0.00     0.182 A 
ATOM      8  HN  UNK N   1      32.823  15.314   2.578  1.00  0.00     0.166 HD
ENDBRANCH   2   3
ENDBRANCH   1   2
BRANCH   1   9
HETATM    9  C   UNK N   1      34.154  15.875   9.178  0.00  0.00    -0.006 A 
HETATM   10  C   UNK N   1      34.883  16.766   9.980  0.00  0.00     0.013 A 
HETATM   11  C   UNK N   1      35.471  16.325  11.172  0.00  0.00     0.024 A 
HETATM   12  C   UNK N   1      35.324  14.994  11.572  0.00  0.00     0.035 A 
HETATM   13  C   UNK N   1      34.576  14.110  10.794  0.00  0.00     0.048 A 
HETATM   14 Cl   UNK N   1      36.091  14.423  13.039  0.00  0.00    -0.084 Cl
HETATM   15  C   UNK N   1      33.990  14.542   9.602  0.00  0.00     0.044 A 
HETATM   16 Cl   UNK N   1      33.069  13.390   8.647  0.00  0.00    -0.084 Cl
ENDBRANCH   1   9
BRANCH   1  17
HETATM   17  O   UNK N   1      32.584  17.301   7.921  0.00  0.00    -0.375 OA
BRANCH  17  18
HETATM   18  C   UNK N   1      31.436  16.539   8.194  0.00  0.00     0.210 C 
BRANCH  18  19
HETATM   19  C   UNK N   1      30.163  17.039   7.576  0.00  0.00     0.009 A 
HETATM   20  C   UNK N   1      29.438  18.112   8.137  0.00  0.00     0.044 A 
HETATM   21  C   UNK N   1      28.215  18.495   7.575  0.00  0.00     0.024 A 
HETATM   22 Cl   UNK N   1      30.014  18.978   9.550  0.00  0.00    -0.084 Cl
HETATM   23  C   UNK N   1      27.706  17.823   6.463  0.00  0.00     0.003 A 
HETATM   24  C   UNK N   1      28.420  16.766   5.900  0.00  0.00     0.024 A 
HETATM   25  C   UNK N   1      29.643  16.370   6.448  0.00  0.00     0.044 A 
HETATM   26 Cl   UNK N   1      30.494  15.015   5.717  0.00  0.00    -0.084 Cl
ENDBRANCH  18  19
ENDBRANCH  17  18
ENDBRANCH   1  17
TORSDOF 6
ENDMDL
MODEL 7
REMARK VINA RESULT:      -6.0      2.705      4.231
REMARK  6 active torsions:
REMARK  status: ('A' for Active; 'I' for Inactive)
REMARK    1  A    between atoms: C_18  and  C_9 
REMARK    2  A    between atoms: N_25  and  C_9 
REMARK    3  A    between atoms: C_14  and  C_10 
REMARK    4  A    between atoms: O_26  and  C_10 
REMARK    5  A    between atoms: C_18  and  C_13 
REMARK    6  A    between atoms: O_26  and  C_18 
ROOT
HETATM    1  C   UNK N   1      28.500  25.421  -5.077  0.00  0.00     0.174 C 
ENDROOT
BRANCH   1   2
HETATM    2  C   UNK N   1      28.698  26.657  -4.171  0.00  0.00     0.166 C 
BRANCH   2   3
HETATM    3  N   UNK N   1      27.538  27.521  -4.017  0.00  0.00    -0.349 N 
HETATM    4  C   UNK N   1      27.433  28.789  -4.447  0.00  0.00     0.108 A 
HETATM    5  C   UNK N   1      26.234  29.289  -3.980  0.00  0.00     0.106 A 
HETATM    6  N   UNK N   1      25.623  28.331  -3.247  0.00  0.00    -0.361 N 
HETATM    7  C   UNK N   1      26.447  27.268  -3.274  0.00  0.00     0.182 A 
ATOM      8  HN  UNK N   1      24.723  28.400  -2.774  1.00  0.00     0.166 HD
ENDBRANCH   2   3
ENDBRANCH   1   2
BRANCH   1   9
HETATM    9  C   UNK N   1      27.721  25.583  -6.355  0.00  0.00    -0.006 A 
HETATM   10  C   UNK N   1      28.274  26.249  -7.460  0.00  0.00     0.013 A 
HETATM   11  C   UNK N   1      27.510  26.453  -8.616  0.00  0.00     0.024 A 
HETATM   12  C   UNK N   1      26.196  25.983  -8.677  0.00  0.00     0.035 A 
HETATM   13  C   UNK N   1      25.651  25.294  -7.592  0.00  0.00     0.048 A 
HETATM   14 Cl   UNK N   1      25.221  26.270 -10.102  0.00  0.00    -0.084 Cl
HETATM   15  C   UNK N   1      26.405  25.091  -6.434  0.00  0.00     0.044 A 
HETATM   16 Cl   UNK N   1      25.672  24.232  -5.089  0.00  0.00    -0.084 Cl
ENDBRANCH   1   9
BRANCH   1  17
HETATM   17  O   UNK N   1      29.623  24.581  -5.148  0.00  0.00    -0.375 OA
BRANCH  17  18
HETATM   18  C   UNK N   1      29.122  23.384  -4.610  0.00  0.00     0.210 C 
BRANCH  18  19
HETATM   19  C   UNK N   1      29.855  22.136  -5.006  0.00  0.00     0.009 A 
HETATM   20  C   UNK N   1      30.906  21.613  -4.222  0.00  0.00     0.044 A 
HETATM   21  C   UNK N   1      31.616  20.493  -4.667  0.00  0.00     0.024 A 
HETATM   22 Cl   UNK N   1      31.374  22.346  -2.698  0.00  0.00    -0.084 Cl
HETATM   23  C   UNK N   1      31.292  19.888  -5.882  0.00  0.00     0.003 A 
HETATM   24  C   UNK N   1      30.252  20.395  -6.659  0.00  0.00     0.024 A 
HETATM   25  C   UNK N   1      29.532  21.513  -6.230  0.00  0.00     0.044 A 
HETATM   26 Cl   UNK N   1      28.245  22.131  -7.257  0.00  0.00    -0.084 Cl
ENDBRANCH  18  19
ENDBRANCH  17  18
ENDBRANCH   1  17
TORSDOF 6
ENDMDL
MODEL 8
REMARK VINA RESULT:      -6.0     12.138     13.872
REMARK  6 active torsions:
REMARK  status: ('A' for Active; 'I' for Inactive)
REMARK    1  A    between atoms: C_18  and  C_9 
REMARK    2  A    between atoms: N_25  and  C_9 
REMARK    3  A    between atoms: C_14  and  C_10 
REMARK    4  A    between atoms: O_26  and  C_10 
REMARK    5  A    between atoms: C_18  and  C_13 
REMARK    6  A    between atoms: O_26  and  C_18 
ROOT
HETATM    1  C   UNK N   1      22.230  17.800   4.852  0.00  0.00     0.174 C 
ENDROOT
BRANCH   1   2
HETATM    2  C   UNK N   1      21.506  17.944   6.209  0.00  0.00     0.166 C 
BRANCH   2   3
HETATM    3  N   UNK N   1      21.482  16.753   7.044  0.00  0.00    -0.349 N 
HETATM    4  C   UNK N   1      22.207  15.639   6.852  0.00  0.00     0.108 A 
HETATM    5  C   UNK N   1      21.786  14.705   7.778  0.00  0.00     0.106 A 
HETATM    6  N   UNK N   1      20.791  15.246   8.515  0.00  0.00    -0.361 N 
HETATM    7  C   UNK N   1      20.616  16.491   8.036  0.00  0.00     0.182 A 
ATOM      8  HN  UNK N   1      20.279  14.803   9.277  1.00  0.00     0.166 HD
ENDBRANCH   2   3
ENDBRANCH   1   2
BRANCH   1   9
HETATM    9  C   UNK N   1      21.421  17.415   3.642  0.00  0.00    -0.006 A 
HETATM   10  C   UNK N   1      21.436  16.101   3.150  0.00  0.00     0.013 A 
HETATM   11  C   UNK N   1      20.734  15.776   1.982  0.00  0.00     0.024 A 
HETATM   12  C   UNK N   1      20.005  16.760   1.309  0.00  0.00     0.035 A 
HETATM   13  C   UNK N   1      19.963  18.062   1.810  0.00  0.00     0.048 A 
HETATM   14 Cl   UNK N   1      19.159  16.373  -0.174  0.00  0.00    -0.084 Cl
HETATM   15  C   UNK N   1      20.664  18.394   2.971  0.00  0.00     0.044 A 
HETATM   16 Cl   UNK N   1      20.594  20.049   3.557  0.00  0.00    -0.084 Cl
ENDBRANCH   1   9
BRANCH   1  17
HETATM   17  O   UNK N   1      23.233  18.759   4.636  0.00  0.00    -0.375 OA
BRANCH  17  18
HETATM   18  C   UNK N   1      24.218  18.002   3.981  0.00  0.00     0.210 C 
BRANCH  18  19
HETATM   19  C   UNK N   1      25.638  18.397   4.266  0.00  0.00     0.009 A 
HETATM   20  C   UNK N   1      26.448  17.662   5.157  0.00  0.00     0.044 A 
HETATM   21  C   UNK N   1      27.739  18.109   5.456  0.00  0.00     0.024 A 
HETATM   22 Cl   UNK N   1      25.873  16.197   5.934  0.00  0.00    -0.084 Cl
HETATM   23  C   UNK N   1      28.234  19.279   4.878  0.00  0.00     0.003 A 
HETATM   24  C   UNK N   1      27.441  20.008   3.992  0.00  0.00     0.024 A 
HETATM   25  C   UNK N   1      26.149  19.575   3.683  0.00  0.00     0.044 A 
HETATM   26 Cl   UNK N   1      25.179  20.543   2.578  0.00  0.00    -0.084 Cl
ENDBRANCH  18  19
ENDBRANCH  17  18
ENDBRANCH   1  17
TORSDOF 6
ENDMDL
MODEL 9
REMARK VINA RESULT:      -5.9     21.367     25.142
REMARK  6 active torsions:
REMARK  status: ('A' for Active; 'I' for Inactive)
REMARK    1  A    between atoms: C_18  and  C_9 
REMARK    2  A    between atoms: N_25  and  C_9 
REMARK    3  A    between atoms: C_14  and  C_10 
REMARK    4  A    between atoms: O_26  and  C_10 
REMARK    5  A    between atoms: C_18  and  C_13 
REMARK    6  A    between atoms: O_26  and  C_18 
ROOT
HETATM    1  C   UNK N   1      35.270  13.009  13.626  0.00  0.00     0.174 C 
ENDROOT
BRANCH   1   2
HETATM    2  C   UNK N   1      35.955  14.346  13.266  0.00  0.00     0.166 C 
BRANCH   2   3
HETATM    3  N   UNK N   1      35.482  14.992  12.051  0.00  0.00    -0.349 N 
HETATM    4  C   UNK N   1      36.015  16.084  11.478  0.00  0.00     0.108 A 
HETATM    5  C   UNK N   1      35.190  16.447  10.432  0.00  0.00     0.106 A 
HETATM    6  N   UNK N   1      34.147  15.589  10.386  0.00  0.00    -0.361 N 
HETATM    7  C   UNK N   1      34.343  14.721  11.394  0.00  0.00     0.182 A 
ATOM      8  HN  UNK N   1      33.372  15.599   9.723  1.00  0.00     0.166 HD
ENDBRANCH   2   3
ENDBRANCH   1   2
BRANCH   1   9
HETATM    9  C   UNK N   1      35.887  11.728  13.132  0.00  0.00    -0.006 A 
HETATM   10  C   UNK N   1      37.206  11.697  12.654  0.00  0.00     0.013 A 
HETATM   11  C   UNK N   1      37.740  10.513  12.132  0.00  0.00     0.024 A 
HETATM   12  C   UNK N   1      36.963   9.352  12.095  0.00  0.00     0.035 A 
HETATM   13  C   UNK N   1      35.660   9.370  12.596  0.00  0.00     0.048 A 
HETATM   14 Cl   UNK N   1      37.609   7.878  11.406  0.00  0.00    -0.084 Cl
HETATM   15  C   UNK N   1      35.119  10.548  13.114  0.00  0.00     0.044 A 
HETATM   16 Cl   UNK N   1      33.469  10.526  13.718  0.00  0.00    -0.084 Cl
ENDBRANCH   1   9
BRANCH   1  17
HETATM   17  O   UNK N   1      34.743  12.971  14.928  0.00  0.00    -0.375 OA
BRANCH  17  18
HETATM   18  C   UNK N   1      35.903  12.806  15.703  0.00  0.00     0.210 C 
BRANCH  18  19
HETATM   19  C   UNK N   1      35.685  12.293  17.096  0.00  0.00     0.009 A 
HETATM   20  C   UNK N   1      35.355  13.158  18.162  0.00  0.00     0.044 A 
HETATM   21  C   UNK N   1      35.239  12.650  19.460  0.00  0.00     0.024 A 
HETATM   22 Cl   UNK N   1      35.106  14.877  17.913  0.00  0.00    -0.084 Cl
HETATM   23  C   UNK N   1      35.447  11.293  19.710  0.00  0.00     0.003 A 
HETATM   24  C   UNK N   1      35.767  10.432  18.661  0.00  0.00     0.024 A 
HETATM   25  C   UNK N   1      35.888  10.922  17.358  0.00  0.00     0.044 A 
HETATM   26 Cl   UNK N   1      36.318   9.801  16.073  0.00  0.00    -0.084 Cl
ENDBRANCH  18  19
ENDBRANCH  17  18
ENDBRANCH   1  17
TORSDOF 6
ENDMDL
