MODEL 1
REMARK VINA RESULT:      -7.9      0.000      0.000
REMARK  9 active torsions:
REMARK  status: ('A' for Active; 'I' for Inactive)
REMARK    1  A    between atoms: C_8  and  C_12 
REMARK    2  A    between atoms: C_9  and  O_15 
REMARK    3  A    between atoms: C_12  and  C_13 
REMARK    4  A    between atoms: C_12  and  C_14 
REMARK    5  A    between atoms: C_13  and  C_17 
REMARK    6  A    between atoms: C_13  and  C_18 
REMARK    7  A    between atoms: C_13  and  O_37 
REMARK    8  A    between atoms: C_17  and  C_19 
REMARK    9  A    between atoms: C_19  and  N_20 
ROOT
HETATM    1  C   UNK N   1      23.371  16.375   4.550  0.00  0.00     0.095 C 
ENDROOT
BRANCH   1   2
HETATM    2  C   UNK N   1      22.699  15.600   5.703  0.00  0.00     0.005 A 
HETATM    3  C   UNK N   1      23.527  15.049   6.688  0.00  0.00     0.026 A 
HETATM    4  C   UNK N   1      23.027  14.250   7.694  0.00  0.00    -0.007 A 
HETATM    5  C   UNK N   1      23.895  13.647   8.606  0.00  0.00     0.032 A 
HETATM    6  C   UNK N   1      21.649  14.010   7.761  0.00  0.00     0.044 A 
HETATM    7  C   UNK N   1      23.388  12.799   9.590  0.00  0.00     0.011 A 
HETATM    8  C   UNK N   1      22.010  12.563   9.669  0.00  0.00     0.021 A 
HETATM    9 Br   UNK N   1      24.587  11.936  10.794  0.00  0.00    -0.051 Br
HETATM   10  C   UNK N   1      21.137  13.173   8.757  0.00  0.00     0.032 A 
HETATM   11  N   UNK N   1      20.824  14.574   6.833  0.00  0.00    -0.336 N 
HETATM   12  C   UNK N   1      21.301  15.346   5.810  0.00  0.00     0.149 A 
ATOM     13  HN  UNK N   1      19.819  14.415   6.906  1.00  0.00     0.168 HD
BRANCH  12  14
HETATM   14  O   UNK N   1      20.437  15.848   4.896  0.00  0.00    -0.340 OA
HETATM   15  C   UNK N   1      19.343  15.145   4.448  0.00  0.00     0.211 C 
ENDBRANCH  12  14
ENDBRANCH   1   2
BRANCH   1  16
HETATM   16  C   UNK N   1      23.258  17.950   4.526  0.00  0.00     0.099 C 
BRANCH  16  17
HETATM   17  C   UNK N   1      22.136  18.434   3.585  0.00  0.00     0.074 C 
BRANCH  17  18
HETATM   18  C   UNK N   1      21.043  19.310   4.170  0.00  0.00     0.274 C 
BRANCH  18  19
HETATM   19  N   UNK N   1      20.114  19.627   3.095  0.00  0.00     0.080 N 
HETATM   20  C   UNK N   1      20.836  20.382   2.087  0.00  0.00     0.309 C 
HETATM   21  C   UNK N   1      19.684  18.382   2.487  0.00  0.00     0.309 C 
ENDBRANCH  18  19
ENDBRANCH  17  18
ENDBRANCH  16  17
BRANCH  16  22
HETATM   22  C   UNK N   1      24.598  18.665   4.222  0.00  0.00    -0.012 A 
HETATM   23  C   UNK N   1      24.619  19.775   3.353  0.00  0.00     0.011 A 
HETATM   24  C   UNK N   1      25.813  20.385   2.968  0.00  0.00     0.002 A 
HETATM   25  C   UNK N   1      27.023  19.930   3.477  0.00  0.00     0.012 A 
HETATM   26  C   UNK N   1      27.046  18.873   4.384  0.00  0.00    -0.025 A 
HETATM   27  C   UNK N   1      25.840  18.225   4.763  0.00  0.00    -0.017 A 
HETATM   28  C   UNK N   1      28.267  18.463   4.923  0.00  0.00     0.012 A 
HETATM   29  C   UNK N   1      25.907  17.168   5.684  0.00  0.00     0.013 A 
HETATM   30  C   UNK N   1      27.131  16.778   6.235  0.00  0.00     0.001 A 
HETATM   31  C   UNK N   1      28.309  17.424   5.854  0.00  0.00     0.001 A 
ENDBRANCH  16  22
BRANCH  16  32
HETATM   32  O   UNK N   1      22.848  18.345   5.801  0.00  0.00    -0.384 OA
HETATM   33  H   UNK N   1      22.627  18.952   6.523  0.00  0.00     0.211 HD
ENDBRANCH  16  32
ENDBRANCH   1  16
BRANCH   1  34
HETATM   34  C   UNK N   1      23.627  15.678   3.236  0.00  0.00    -0.046 A 
HETATM   35  C   UNK N   1      22.535  15.211   2.492  0.00  0.00     0.008 A 
HETATM   36  C   UNK N   1      22.740  14.518   1.297  0.00  0.00     0.001 A 
HETATM   37  C   UNK N   1      24.039  14.290   0.838  0.00  0.00     0.000 A 
HETATM   38  C   UNK N   1      25.134  14.751   1.576  0.00  0.00     0.001 A 
HETATM   39  C   UNK N   1      24.930  15.437   2.780  0.00  0.00     0.008 A 
ENDBRANCH   1  34
TORSDOF 9
ENDMDL
MODEL 2
REMARK VINA RESULT:      -7.7      3.608      5.989
REMARK  9 active torsions:
REMARK  status: ('A' for Active; 'I' for Inactive)
REMARK    1  A    between atoms: C_8  and  C_12 
REMARK    2  A    between atoms: C_9  and  O_15 
REMARK    3  A    between atoms: C_12  and  C_13 
REMARK    4  A    between atoms: C_12  and  C_14 
REMARK    5  A    between atoms: C_13  and  C_17 
REMARK    6  A    between atoms: C_13  and  C_18 
REMARK    7  A    between atoms: C_13  and  O_37 
REMARK    8  A    between atoms: C_17  and  C_19 
REMARK    9  A    between atoms: C_19  and  N_20 
ROOT
HETATM    1  C   UNK N   1      27.410  16.358   5.614  0.00  0.00     0.095 C 
ENDROOT
BRANCH   1   2
HETATM    2  C   UNK N   1      25.869  16.315   5.685  0.00  0.00     0.005 A 
HETATM    3  C   UNK N   1      25.153  17.207   4.878  0.00  0.00     0.026 A 
HETATM    4  C   UNK N   1      23.781  17.318   4.955  0.00  0.00    -0.007 A 
HETATM    5  C   UNK N   1      23.113  18.280   4.198  0.00  0.00     0.032 A 
HETATM    6  C   UNK N   1      23.073  16.490   5.836  0.00  0.00     0.044 A 
HETATM    7  C   UNK N   1      21.730  18.422   4.318  0.00  0.00     0.011 A 
HETATM    8  C   UNK N   1      21.015  17.591   5.189  0.00  0.00     0.021 A 
HETATM    9 Br   UNK N   1      20.835  19.779   3.323  0.00  0.00    -0.051 Br
HETATM   10  C   UNK N   1      21.686  16.619   5.945  0.00  0.00     0.032 A 
HETATM   11  N   UNK N   1      23.752  15.587   6.598  0.00  0.00    -0.336 N 
HETATM   12  C   UNK N   1      25.115  15.480   6.559  0.00  0.00     0.149 A 
ATOM     13  HN  UNK N   1      23.225  14.970   7.217  1.00  0.00     0.168 HD
BRANCH  12  14
HETATM   14  O   UNK N   1      25.736  14.589   7.369  0.00  0.00    -0.340 OA
HETATM   15  C   UNK N   1      25.165  13.390   7.727  0.00  0.00     0.211 C 
ENDBRANCH  12  14
ENDBRANCH   1   2
BRANCH   1  16
HETATM   16  C   UNK N   1      28.159  17.639   6.154  0.00  0.00     0.099 C 
BRANCH  16  17
HETATM   17  C   UNK N   1      28.241  18.752   5.089  0.00  0.00     0.074 C 
BRANCH  17  18
HETATM   18  C   UNK N   1      28.109  20.192   5.551  0.00  0.00     0.274 C 
BRANCH  18  19
HETATM   19  N   UNK N   1      27.071  20.817   4.745  0.00  0.00     0.080 N 
HETATM   20  C   UNK N   1      26.925  20.042   3.525  0.00  0.00     0.309 C 
HETATM   21  C   UNK N   1      25.820  20.732   5.473  0.00  0.00     0.309 C 
ENDBRANCH  18  19
ENDBRANCH  17  18
ENDBRANCH  16  17
BRANCH  16  22
HETATM   22  C   UNK N   1      29.551  17.335   6.761  0.00  0.00    -0.012 A 
HETATM   23  C   UNK N   1      29.669  17.050   8.137  0.00  0.00     0.011 A 
HETATM   24  C   UNK N   1      30.910  16.873   8.748  0.00  0.00     0.002 A 
HETATM   25  C   UNK N   1      32.074  16.933   7.991  0.00  0.00     0.012 A 
HETATM   26  C   UNK N   1      32.002  17.154   6.618  0.00  0.00    -0.025 A 
HETATM   27  C   UNK N   1      30.746  17.364   5.988  0.00  0.00    -0.017 A 
HETATM   28  C   UNK N   1      33.179  17.161   5.866  0.00  0.00     0.012 A 
HETATM   29  C   UNK N   1      30.719  17.578   4.600  0.00  0.00     0.013 A 
HETATM   30  C   UNK N   1      31.900  17.561   3.853  0.00  0.00     0.001 A 
HETATM   31  C   UNK N   1      33.127  17.354   4.485  0.00  0.00     0.001 A 
ENDBRANCH  16  22
BRANCH  16  32
HETATM   32  O   UNK N   1      27.363  18.175   7.168  0.00  0.00    -0.384 OA
HETATM   33  H   UNK N   1      27.024  18.844   7.782  0.00  0.00     0.211 HD
ENDBRANCH  16  32
ENDBRANCH   1  16
BRANCH   1  34
HETATM   34  C   UNK N   1      28.130  15.511   4.594  0.00  0.00    -0.046 A 
HETATM   35  C   UNK N   1      28.901  14.428   5.036  0.00  0.00     0.008 A 
HETATM   36  C   UNK N   1      29.620  13.654   4.121  0.00  0.00     0.001 A 
HETATM   37  C   UNK N   1      29.571  13.960   2.759  0.00  0.00     0.000 A 
HETATM   38  C   UNK N   1      28.805  15.041   2.312  0.00  0.00     0.001 A 
HETATM   39  C   UNK N   1      28.091  15.823   3.228  0.00  0.00     0.008 A 
ENDBRANCH   1  34
TORSDOF 9
ENDMDL
MODEL 3
REMARK VINA RESULT:      -7.7      3.018      5.109
REMARK  9 active torsions:
REMARK  status: ('A' for Active; 'I' for Inactive)
REMARK    1  A    between atoms: C_8  and  C_12 
REMARK    2  A    between atoms: C_9  and  O_15 
REMARK    3  A    between atoms: C_12  and  C_13 
REMARK    4  A    between atoms: C_12  and  C_14 
REMARK    5  A    between atoms: C_13  and  C_17 
REMARK    6  A    between atoms: C_13  and  C_18 
REMARK    7  A    between atoms: C_13  and  O_37 
REMARK    8  A    between atoms: C_17  and  C_19 
REMARK    9  A    between atoms: C_19  and  N_20 
ROOT
HETATM    1  C   UNK N   1      27.572  15.888   5.655  0.00  0.00     0.095 C 
ENDROOT
BRANCH   1   2
HETATM    2  C   UNK N   1      26.120  15.599   6.089  0.00  0.00     0.005 A 
HETATM    3  C   UNK N   1      25.921  14.719   7.159  0.00  0.00     0.026 A 
HETATM    4  C   UNK N   1      24.660  14.316   7.545  0.00  0.00    -0.007 A 
HETATM    5  C   UNK N   1      24.507  13.370   8.559  0.00  0.00     0.032 A 
HETATM    6  C   UNK N   1      23.540  14.827   6.876  0.00  0.00     0.044 A 
HETATM    7  C   UNK N   1      23.231  12.928   8.910  0.00  0.00     0.011 A 
HETATM    8  C   UNK N   1      22.107  13.443   8.254  0.00  0.00     0.021 A 
HETATM    9 Br   UNK N   1      23.038  11.594  10.257  0.00  0.00    -0.051 Br
HETATM   10  C   UNK N   1      22.260  14.399   7.239  0.00  0.00     0.032 A 
HETATM   11  N   UNK N   1      23.716  15.718   5.859  0.00  0.00    -0.336 N 
HETATM   12  C   UNK N   1      24.958  16.109   5.441  0.00  0.00     0.149 A 
ATOM     13  HN  UNK N   1      22.893  16.104   5.396  1.00  0.00     0.168 HD
BRANCH  12  14
HETATM   14  O   UNK N   1      25.070  16.968   4.399  0.00  0.00    -0.340 OA
HETATM   15  C   UNK N   1      24.015  17.729   3.951  0.00  0.00     0.211 C 
ENDBRANCH  12  14
ENDBRANCH   1   2
BRANCH   1  16
HETATM   16  C   UNK N   1      28.193  17.304   5.977  0.00  0.00     0.099 C 
BRANCH  16  17
HETATM   17  C   UNK N   1      28.172  18.236   4.749  0.00  0.00     0.074 C 
BRANCH  17  18
HETATM   18  C   UNK N   1      28.039  19.729   4.988  0.00  0.00     0.274 C 
BRANCH  18  19
HETATM   19  N   UNK N   1      26.635  20.074   4.824  0.00  0.00     0.080 N 
HETATM   20  C   UNK N   1      26.346  21.198   5.697  0.00  0.00     0.309 C 
HETATM   21  C   UNK N   1      26.433  20.516   3.457  0.00  0.00     0.309 C 
ENDBRANCH  18  19
ENDBRANCH  17  18
ENDBRANCH  16  17
BRANCH  16  22
HETATM   22  C   UNK N   1      29.604  17.235   6.611  0.00  0.00    -0.012 A 
HETATM   23  C   UNK N   1      29.742  17.165   8.012  0.00  0.00     0.011 A 
HETATM   24  C   UNK N   1      30.990  17.206   8.632  0.00  0.00     0.002 A 
HETATM   25  C   UNK N   1      32.147  17.275   7.865  0.00  0.00     0.012 A 
HETATM   26  C   UNK N   1      32.062  17.287   6.474  0.00  0.00    -0.025 A 
HETATM   27  C   UNK N   1      30.795  17.274   5.831  0.00  0.00    -0.017 A 
HETATM   28  C   UNK N   1      33.237  17.305   5.719  0.00  0.00     0.012 A 
HETATM   29  C   UNK N   1      30.756  17.281   4.427  0.00  0.00     0.013 A 
HETATM   30  C   UNK N   1      31.937  17.277   3.680  0.00  0.00     0.001 A 
HETATM   31  C   UNK N   1      33.175  17.290   4.325  0.00  0.00     0.001 A 
ENDBRANCH  16  22
BRANCH  16  32
HETATM   32  O   UNK N   1      27.344  17.916   6.902  0.00  0.00    -0.384 OA
HETATM   33  H   UNK N   1      26.562  18.390   7.224  0.00  0.00     0.211 HD
ENDBRANCH  16  32
ENDBRANCH   1  16
BRANCH   1  34
HETATM   34  C   UNK N   1      28.176  15.110   4.513  0.00  0.00    -0.046 A 
HETATM   35  C   UNK N   1      29.114  14.108   4.795  0.00  0.00     0.008 A 
HETATM   36  C   UNK N   1      29.728  13.403   3.757  0.00  0.00     0.001 A 
HETATM   37  C   UNK N   1      29.405  13.696   2.430  0.00  0.00     0.000 A 
HETATM   38  C   UNK N   1      28.472  14.696   2.141  0.00  0.00     0.001 A 
HETATM   39  C   UNK N   1      27.862  15.410   3.180  0.00  0.00     0.008 A 
ENDBRANCH   1  34
TORSDOF 9
ENDMDL
MODEL 4
REMARK VINA RESULT:      -7.5      3.489      6.761
REMARK  9 active torsions:
REMARK  status: ('A' for Active; 'I' for Inactive)
REMARK    1  A    between atoms: C_8  and  C_12 
REMARK    2  A    between atoms: C_9  and  O_15 
REMARK    3  A    between atoms: C_12  and  C_13 
REMARK    4  A    between atoms: C_12  and  C_14 
REMARK    5  A    between atoms: C_13  and  C_17 
REMARK    6  A    between atoms: C_13  and  C_18 
REMARK    7  A    between atoms: C_13  and  O_37 
REMARK    8  A    between atoms: C_17  and  C_19 
REMARK    9  A    between atoms: C_19  and  N_20 
ROOT
HETATM    1  C   UNK N   1      27.051  16.725   4.724  0.00  0.00     0.095 C 
ENDROOT
BRANCH   1   2
HETATM    2  C   UNK N   1      26.277  16.063   3.565  0.00  0.00     0.005 A 
HETATM    3  C   UNK N   1      24.878  16.092   3.614  0.00  0.00     0.026 A 
HETATM    4  C   UNK N   1      24.104  15.434   2.682  0.00  0.00    -0.007 A 
HETATM    5  C   UNK N   1      22.715  15.413   2.815  0.00  0.00     0.032 A 
HETATM    6  C   UNK N   1      24.727  14.745   1.634  0.00  0.00     0.044 A 
HETATM    7  C   UNK N   1      21.940  14.702   1.899  0.00  0.00     0.011 A 
HETATM    8  C   UNK N   1      22.555  14.021   0.842  0.00  0.00     0.021 A 
HETATM    9 Br   UNK N   1      20.049  14.633   2.123  0.00  0.00    -0.051 Br
HETATM   10  C   UNK N   1      23.951  14.047   0.705  0.00  0.00     0.032 A 
HETATM   11  N   UNK N   1      26.087  14.742   1.549  0.00  0.00    -0.336 N 
HETATM   12  C   UNK N   1      26.876  15.365   2.477  0.00  0.00     0.149 A 
ATOM     13  HN  UNK N   1      26.531  14.261   0.766  1.00  0.00     0.168 HD
BRANCH  12  14
HETATM   14  O   UNK N   1      28.224  15.295   2.360  0.00  0.00    -0.340 OA
HETATM   15  C   UNK N   1      28.886  14.112   2.127  0.00  0.00     0.211 C 
ENDBRANCH  12  14
ENDBRANCH   1   2
BRANCH   1  16
HETATM   16  C   UNK N   1      27.373  15.866   6.010  0.00  0.00     0.099 C 
BRANCH  16  17
HETATM   17  C   UNK N   1      26.095  15.306   6.666  0.00  0.00     0.074 C 
BRANCH  17  18
HETATM   18  C   UNK N   1      25.808  13.822   6.518  0.00  0.00     0.274 C 
BRANCH  18  19
HETATM   19  N   UNK N   1      24.466  13.584   7.026  0.00  0.00     0.080 N 
HETATM   20  C   UNK N   1      24.570  13.281   8.443  0.00  0.00     0.309 C 
HETATM   21  C   UNK N   1      23.706  14.812   6.893  0.00  0.00     0.309 C 
ENDBRANCH  18  19
ENDBRANCH  17  18
ENDBRANCH  16  17
BRANCH  16  22
HETATM   22  C   UNK N   1      28.262  16.602   7.043  0.00  0.00    -0.012 A 
HETATM   23  C   UNK N   1      27.679  17.166   8.195  0.00  0.00     0.011 A 
HETATM   24  C   UNK N   1      28.420  17.926   9.099  0.00  0.00     0.002 A 
HETATM   25  C   UNK N   1      29.783  18.111   8.900  0.00  0.00     0.012 A 
HETATM   26  C   UNK N   1      30.414  17.523   7.806  0.00  0.00    -0.025 A 
HETATM   27  C   UNK N   1      29.665  16.770   6.863  0.00  0.00    -0.017 A 
HETATM   28  C   UNK N   1      31.794  17.678   7.651  0.00  0.00     0.012 A 
HETATM   29  C   UNK N   1      30.342  16.191   5.778  0.00  0.00     0.013 A 
HETATM   30  C   UNK N   1      31.726  16.333   5.642  0.00  0.00     0.001 A 
HETATM   31  C   UNK N   1      32.449  17.076   6.576  0.00  0.00     0.001 A 
ENDBRANCH  16  22
BRANCH  16  32
HETATM   32  O   UNK N   1      28.074  14.738   5.577  0.00  0.00    -0.384 OA
HETATM   33  H   UNK N   1      28.206  13.828   5.270  0.00  0.00     0.211 HD
ENDBRANCH  16  32
ENDBRANCH   1  16
BRANCH   1  34
HETATM   34  C   UNK N   1      27.010  18.224   4.885  0.00  0.00    -0.046 A 
HETATM   35  C   UNK N   1      28.156  18.971   4.578  0.00  0.00     0.008 A 
HETATM   36  C   UNK N   1      28.167  20.355   4.762  0.00  0.00     0.001 A 
HETATM   37  C   UNK N   1      27.031  21.002   5.254  0.00  0.00     0.000 A 
HETATM   38  C   UNK N   1      25.885  20.263   5.564  0.00  0.00     0.001 A 
HETATM   39  C   UNK N   1      25.875  18.874   5.389  0.00  0.00     0.008 A 
ENDBRANCH   1  34
TORSDOF 9
ENDMDL
MODEL 5
REMARK VINA RESULT:      -7.4      3.933      7.390
REMARK  9 active torsions:
REMARK  status: ('A' for Active; 'I' for Inactive)
REMARK    1  A    between atoms: C_8  and  C_12 
REMARK    2  A    between atoms: C_9  and  O_15 
REMARK    3  A    between atoms: C_12  and  C_13 
REMARK    4  A    between atoms: C_12  and  C_14 
REMARK    5  A    between atoms: C_13  and  C_17 
REMARK    6  A    between atoms: C_13  and  C_18 
REMARK    7  A    between atoms: C_13  and  O_37 
REMARK    8  A    between atoms: C_17  and  C_19 
REMARK    9  A    between atoms: C_19  and  N_20 
ROOT
HETATM    1  C   UNK N   1      27.038  15.949   4.654  0.00  0.00     0.095 C 
ENDROOT
BRANCH   1   2
HETATM    2  C   UNK N   1      28.572  16.039   4.515  0.00  0.00     0.005 A 
HETATM    3  C   UNK N   1      29.307  16.435   5.638  0.00  0.00     0.026 A 
HETATM    4  C   UNK N   1      30.668  16.649   5.579  0.00  0.00    -0.007 A 
HETATM    5  C   UNK N   1      31.350  17.128   6.698  0.00  0.00     0.032 A 
HETATM    6  C   UNK N   1      31.346  16.429   4.374  0.00  0.00     0.044 A 
HETATM    7  C   UNK N   1      32.718  17.392   6.617  0.00  0.00     0.011 A 
HETATM    8  C   UNK N   1      33.405  17.165   5.418  0.00  0.00     0.021 A 
HETATM    9 Br   UNK N   1      33.628  18.101   8.134  0.00  0.00    -0.051 Br
HETATM   10  C   UNK N   1      32.720  16.677   4.296  0.00  0.00     0.032 A 
HETATM   11  N   UNK N   1      30.652  16.003   3.282  0.00  0.00    -0.336 N 
HETATM   12  C   UNK N   1      29.298  15.812   3.309  0.00  0.00     0.149 A 
ATOM     13  HN  UNK N   1      31.159  15.821   2.416  1.00  0.00     0.168 HD
BRANCH  12  14
HETATM   14  O   UNK N   1      28.656  15.424   2.181  0.00  0.00    -0.340 OA
HETATM   15  C   UNK N   1      28.585  14.108   1.786  0.00  0.00     0.211 C 
ENDBRANCH  12  14
ENDBRANCH   1   2
BRANCH   1  16
HETATM   16  C   UNK N   1      26.166  17.208   4.269  0.00  0.00     0.099 C 
BRANCH  16  17
HETATM   17  C   UNK N   1      26.381  18.380   5.248  0.00  0.00     0.074 C 
BRANCH  17  18
HETATM   18  C   UNK N   1      26.849  19.708   4.681  0.00  0.00     0.274 C 
BRANCH  18  19
HETATM   19  N   UNK N   1      27.705  20.332   5.679  0.00  0.00     0.080 N 
HETATM   20  C   UNK N   1      27.068  21.565   6.106  0.00  0.00     0.309 C 
HETATM   21  C   UNK N   1      27.775  19.452   6.830  0.00  0.00     0.309 C 
ENDBRANCH  18  19
ENDBRANCH  17  18
ENDBRANCH  16  17
BRANCH  16  22
HETATM   22  C   UNK N   1      24.661  16.891   4.089  0.00  0.00    -0.012 A 
HETATM   23  C   UNK N   1      23.710  17.499   4.932  0.00  0.00     0.011 A 
HETATM   24  C   UNK N   1      22.357  17.166   4.877  0.00  0.00     0.002 A 
HETATM   25  C   UNK N   1      21.905  16.242   3.943  0.00  0.00     0.012 A 
HETATM   26  C   UNK N   1      22.800  15.658   3.049  0.00  0.00    -0.025 A 
HETATM   27  C   UNK N   1      24.185  15.968   3.114  0.00  0.00    -0.017 A 
HETATM   28  C   UNK N   1      22.319  14.770   2.085  0.00  0.00     0.012 A 
HETATM   29  C   UNK N   1      25.052  15.361   2.191  0.00  0.00     0.013 A 
HETATM   30  C   UNK N   1      24.559  14.490   1.215  0.00  0.00     0.001 A 
HETATM   31  C   UNK N   1      23.196  14.194   1.163  0.00  0.00     0.001 A 
ENDBRANCH  16  22
BRANCH  16  32
HETATM   32  O   UNK N   1      26.649  17.675   3.045  0.00  0.00    -0.384 OA
HETATM   33  H   UNK N   1      27.300  17.868   2.353  0.00  0.00     0.211 HD
ENDBRANCH  16  32
ENDBRANCH   1  16
BRANCH   1  34
HETATM   34  C   UNK N   1      26.436  14.957   5.618  0.00  0.00    -0.046 A 
HETATM   35  C   UNK N   1      26.206  13.644   5.185  0.00  0.00     0.008 A 
HETATM   36  C   UNK N   1      25.605  12.715   6.037  0.00  0.00     0.001 A 
HETATM   37  C   UNK N   1      25.231  13.094   7.328  0.00  0.00     0.000 A 
HETATM   38  C   UNK N   1      25.455  14.402   7.766  0.00  0.00     0.001 A 
HETATM   39  C   UNK N   1      26.049  15.338   6.910  0.00  0.00     0.008 A 
ENDBRANCH   1  34
TORSDOF 9
ENDMDL
MODEL 6
REMARK VINA RESULT:      -7.3     12.611     15.413
REMARK  9 active torsions:
REMARK  status: ('A' for Active; 'I' for Inactive)
REMARK    1  A    between atoms: C_8  and  C_12 
REMARK    2  A    between atoms: C_9  and  O_15 
REMARK    3  A    between atoms: C_12  and  C_13 
REMARK    4  A    between atoms: C_12  and  C_14 
REMARK    5  A    between atoms: C_13  and  C_17 
REMARK    6  A    between atoms: C_13  and  C_18 
REMARK    7  A    between atoms: C_13  and  O_37 
REMARK    8  A    between atoms: C_17  and  C_19 
REMARK    9  A    between atoms: C_19  and  N_20 
ROOT
HETATM    1  C   UNK N   1      27.027  24.524  -7.687  0.00  0.00     0.095 C 
ENDROOT
BRANCH   1   2
HETATM    2  C   UNK N   1      27.515  23.060  -7.708  0.00  0.00     0.005 A 
HETATM    3  C   UNK N   1      28.896  22.833  -7.691  0.00  0.00     0.026 A 
HETATM    4  C   UNK N   1      29.427  21.566  -7.818  0.00  0.00    -0.007 A 
HETATM    5  C   UNK N   1      30.809  21.390  -7.885  0.00  0.00     0.032 A 
HETATM    6  C   UNK N   1      28.564  20.468  -7.929  0.00  0.00     0.044 A 
HETATM    7  C   UNK N   1      31.338  20.112  -8.065  0.00  0.00     0.011 A 
HETATM    8  C   UNK N   1      30.483  19.008  -8.166  0.00  0.00     0.021 A 
HETATM    9 Br   UNK N   1      33.225  19.889  -8.213  0.00  0.00    -0.051 Br
HETATM   10  C   UNK N   1      29.093  19.185  -8.092  0.00  0.00     0.032 A 
HETATM   11  N   UNK N   1      27.217  20.669  -7.905  0.00  0.00    -0.336 N 
HETATM   12  C   UNK N   1      26.669  21.918  -7.809  0.00  0.00     0.149 A 
ATOM     13  HN  UNK N   1      26.597  19.860  -7.960  1.00  0.00     0.168 HD
BRANCH  12  14
HETATM   14  O   UNK N   1      25.321  22.058  -7.829  0.00  0.00    -0.340 OA
HETATM   15  C   UNK N   1      24.487  21.294  -7.047  0.00  0.00     0.211 C 
ENDBRANCH  12  14
ENDBRANCH   1   2
BRANCH   1  16
HETATM   16  C   UNK N   1      26.469  25.118  -6.334  0.00  0.00     0.099 C 
BRANCH  16  17
HETATM   17  C   UNK N   1      26.232  26.640  -6.426  0.00  0.00     0.074 C 
BRANCH  17  18
HETATM   18  C   UNK N   1      25.074  27.230  -5.643  0.00  0.00     0.274 C 
BRANCH  18  19
HETATM   19  N   UNK N   1      25.620  28.239  -4.748  0.00  0.00     0.080 N 
HETATM   20  C   UNK N   1      25.836  27.619  -3.453  0.00  0.00     0.309 C 
HETATM   21  C   UNK N   1      26.914  28.647  -5.262  0.00  0.00     0.309 C 
ENDBRANCH  18  19
ENDBRANCH  17  18
ENDBRANCH  16  17
BRANCH  16  22
HETATM   22  C   UNK N   1      27.325  24.754  -5.096  0.00  0.00    -0.012 A 
HETATM   23  C   UNK N   1      26.757  24.002  -4.047  0.00  0.00     0.011 A 
HETATM   24  C   UNK N   1      27.454  23.739  -2.869  0.00  0.00     0.002 A 
HETATM   25  C   UNK N   1      28.762  24.185  -2.719  0.00  0.00     0.012 A 
HETATM   26  C   UNK N   1      29.384  24.882  -3.752  0.00  0.00    -0.025 A 
HETATM   27  C   UNK N   1      28.676  25.181  -4.947  0.00  0.00    -0.017 A 
HETATM   28  C   UNK N   1      30.715  25.278  -3.603  0.00  0.00     0.012 A 
HETATM   29  C   UNK N   1      29.343  25.881  -5.965  0.00  0.00     0.013 A 
HETATM   30  C   UNK N   1      30.681  26.254  -5.815  0.00  0.00     0.001 A 
HETATM   31  C   UNK N   1      31.365  25.954  -4.636  0.00  0.00     0.001 A 
ENDBRANCH  16  22
BRANCH  16  32
HETATM   32  O   UNK N   1      25.199  24.571  -6.146  0.00  0.00    -0.384 OA
HETATM   33  H   UNK N   1      24.370  24.128  -6.383  0.00  0.00     0.211 HD
ENDBRANCH  16  32
ENDBRANCH   1  16
BRANCH   1  34
HETATM   34  C   UNK N   1      26.573  25.174  -8.970  0.00  0.00    -0.046 A 
HETATM   35  C   UNK N   1      27.472  25.988  -9.673  0.00  0.00     0.008 A 
HETATM   36  C   UNK N   1      27.066  26.644 -10.838  0.00  0.00     0.001 A 
HETATM   37  C   UNK N   1      25.760  26.488 -11.307  0.00  0.00     0.000 A 
HETATM   38  C   UNK N   1      24.858  25.680 -10.609  0.00  0.00     0.001 A 
HETATM   39  C   UNK N   1      25.259  25.029  -9.436  0.00  0.00     0.008 A 
ENDBRANCH   1  34
TORSDOF 9
ENDMDL
MODEL 7
REMARK VINA RESULT:      -7.2      2.504      6.124
REMARK  9 active torsions:
REMARK  status: ('A' for Active; 'I' for Inactive)
REMARK    1  A    between atoms: C_8  and  C_12 
REMARK    2  A    between atoms: C_9  and  O_15 
REMARK    3  A    between atoms: C_12  and  C_13 
REMARK    4  A    between atoms: C_12  and  C_14 
REMARK    5  A    between atoms: C_13  and  C_17 
REMARK    6  A    between atoms: C_13  and  C_18 
REMARK    7  A    between atoms: C_13  and  O_37 
REMARK    8  A    between atoms: C_17  and  C_19 
REMARK    9  A    between atoms: C_19  and  N_20 
ROOT
HETATM    1  C   UNK N   1      21.494  16.025   3.859  0.00  0.00     0.095 C 
ENDROOT
BRANCH   1   2
HETATM    2  C   UNK N   1      22.503  17.190   3.765  0.00  0.00     0.005 A 
HETATM    3  C   UNK N   1      23.859  16.892   3.937  0.00  0.00     0.026 A 
HETATM    4  C   UNK N   1      24.821  17.880   3.978  0.00  0.00    -0.007 A 
HETATM    5  C   UNK N   1      26.151  17.551   4.239  0.00  0.00     0.032 A 
HETATM    6  C   UNK N   1      24.440  19.217   3.806  0.00  0.00     0.044 A 
HETATM    7  C   UNK N   1      27.111  18.560   4.331  0.00  0.00     0.011 A 
HETATM    8  C   UNK N   1      26.740  19.898   4.150  0.00  0.00     0.021 A 
HETATM    9 Br   UNK N   1      28.914  18.105   4.746  0.00  0.00    -0.051 Br
HETATM   10  C   UNK N   1      25.403  20.227   3.881  0.00  0.00     0.032 A 
HETATM   11  N   UNK N   1      23.128  19.519   3.596  0.00  0.00    -0.336 N 
HETATM   12  C   UNK N   1      22.154  18.559   3.579  0.00  0.00     0.149 A 
ATOM     13  HN  UNK N   1      22.865  20.493   3.445  1.00  0.00     0.168 HD
BRANCH  12  14
HETATM   14  O   UNK N   1      20.861  18.924   3.403  0.00  0.00    -0.340 OA
HETATM   15  C   UNK N   1      20.463  20.240   3.367  0.00  0.00     0.211 C 
ENDBRANCH  12  14
ENDBRANCH   1   2
BRANCH   1  16
HETATM   16  C   UNK N   1      20.957  15.601   5.283  0.00  0.00     0.099 C 
BRANCH  16  17
HETATM   17  C   UNK N   1      21.350  16.617   6.375  0.00  0.00     0.074 C 
BRANCH  17  18
HETATM   18  C   UNK N   1      20.241  17.398   7.055  0.00  0.00     0.274 C 
BRANCH  18  19
HETATM   19  N   UNK N   1      20.360  17.172   8.487  0.00  0.00     0.080 N 
HETATM   20  C   UNK N   1      19.382  18.010   9.156  0.00  0.00     0.309 C 
HETATM   21  C   UNK N   1      20.015  15.790   8.758  0.00  0.00     0.309 C 
ENDBRANCH  18  19
ENDBRANCH  17  18
ENDBRANCH  16  17
BRANCH  16  22
HETATM   22  C   UNK N   1      21.344  14.157   5.688  0.00  0.00    -0.012 A 
HETATM   23  C   UNK N   1      20.436  13.101   5.474  0.00  0.00     0.011 A 
HETATM   24  C   UNK N   1      20.698  11.804   5.916  0.00  0.00     0.002 A 
HETATM   25  C   UNK N   1      21.900  11.514   6.551  0.00  0.00     0.012 A 
HETATM   26  C   UNK N   1      22.852  12.514   6.732  0.00  0.00    -0.025 A 
HETATM   27  C   UNK N   1      22.587  13.845   6.311  0.00  0.00    -0.017 A 
HETATM   28  C   UNK N   1      24.075  12.192   7.325  0.00  0.00     0.012 A 
HETATM   29  C   UNK N   1      23.577  14.821   6.508  0.00  0.00     0.013 A 
HETATM   30  C   UNK N   1      24.805  14.485   7.083  0.00  0.00     0.001 A 
HETATM   31  C   UNK N   1      25.053  13.173   7.492  0.00  0.00     0.001 A 
ENDBRANCH  16  22
BRANCH  16  32
HETATM   32  O   UNK N   1      19.563  15.664   5.224  0.00  0.00    -0.384 OA
HETATM   33  H   UNK N   1      18.689  16.055   5.073  0.00  0.00     0.211 HD
ENDBRANCH  16  32
ENDBRANCH   1  16
BRANCH   1  34
HETATM   34  C   UNK N   1      21.450  14.989   2.764  0.00  0.00    -0.046 A 
HETATM   35  C   UNK N   1      22.576  14.184   2.547  0.00  0.00     0.008 A 
HETATM   36  C   UNK N   1      22.585  13.249   1.509  0.00  0.00     0.001 A 
HETATM   37  C   UNK N   1      21.467  13.113   0.684  0.00  0.00     0.000 A 
HETATM   38  C   UNK N   1      20.341  13.915   0.893  0.00  0.00     0.001 A 
HETATM   39  C   UNK N   1      20.334  14.859   1.927  0.00  0.00     0.008 A 
ENDBRANCH   1  34
TORSDOF 9
ENDMDL
MODEL 8
REMARK VINA RESULT:      -7.1     16.530     21.039
REMARK  9 active torsions:
REMARK  status: ('A' for Active; 'I' for Inactive)
REMARK    1  A    between atoms: C_8  and  C_12 
REMARK    2  A    between atoms: C_9  and  O_15 
REMARK    3  A    between atoms: C_12  and  C_13 
REMARK    4  A    between atoms: C_12  and  C_14 
REMARK    5  A    between atoms: C_13  and  C_17 
REMARK    6  A    between atoms: C_13  and  C_18 
REMARK    7  A    between atoms: C_13  and  O_37 
REMARK    8  A    between atoms: C_17  and  C_19 
REMARK    9  A    between atoms: C_19  and  N_20 
ROOT
HETATM    1  C   UNK N   1      35.613   9.775  20.107  0.00  0.00     0.095 C 
ENDROOT
BRANCH   1   2
HETATM    2  C   UNK N   1      35.294  10.607  18.847  0.00  0.00     0.005 A 
HETATM    3  C   UNK N   1      35.092   9.919  17.645  0.00  0.00     0.026 A 
HETATM    4  C   UNK N   1      34.910  10.582  16.449  0.00  0.00    -0.007 A 
HETATM    5  C   UNK N   1      34.800   9.861  15.259  0.00  0.00     0.032 A 
HETATM    6  C   UNK N   1      34.888  11.982  16.436  0.00  0.00     0.044 A 
HETATM    7  C   UNK N   1      34.668  10.539  14.047  0.00  0.00     0.011 A 
HETATM    8  C   UNK N   1      34.634  11.938  14.027  0.00  0.00     0.021 A 
HETATM    9 Br   UNK N   1      34.576   9.546  12.422  0.00  0.00    -0.051 Br
HETATM   10  C   UNK N   1      34.738  12.662  15.224  0.00  0.00     0.032 A 
HETATM   11  N   UNK N   1      35.041  12.666  17.605  0.00  0.00    -0.336 N 
HETATM   12  C   UNK N   1      35.251  12.031  18.798  0.00  0.00     0.149 A 
ATOM     13  HN  UNK N   1      34.997  13.685  17.588  1.00  0.00     0.168 HD
BRANCH  12  14
HETATM   14  O   UNK N   1      35.435  12.766  19.921  0.00  0.00    -0.340 OA
HETATM   15  C   UNK N   1      34.594  13.794  20.277  0.00  0.00     0.211 C 
ENDBRANCH  12  14
ENDBRANCH   1   2
BRANCH   1  16
HETATM   16  C   UNK N   1      34.465   9.524  21.161  0.00  0.00     0.099 C 
BRANCH  16  17
HETATM   17  C   UNK N   1      35.004   8.900  22.465  0.00  0.00     0.074 C 
BRANCH  17  18
HETATM   18  C   UNK N   1      34.010   8.571  23.563  0.00  0.00     0.274 C 
BRANCH  18  19
HETATM   19  N   UNK N   1      34.541   9.107  24.808  0.00  0.00     0.080 N 
HETATM   20  C   UNK N   1      35.922   9.490  24.577  0.00  0.00     0.309 C 
HETATM   21  C   UNK N   1      33.799  10.309  25.136  0.00  0.00     0.309 C 
ENDBRANCH  18  19
ENDBRANCH  17  18
ENDBRANCH  16  17
BRANCH  16  22
HETATM   22  C   UNK N   1      33.271   8.714  20.599  0.00  0.00    -0.012 A 
HETATM   23  C   UNK N   1      31.962   9.227  20.705  0.00  0.00     0.011 A 
HETATM   24  C   UNK N   1      30.848   8.490  20.308  0.00  0.00     0.002 A 
HETATM   25  C   UNK N   1      31.010   7.227  19.750  0.00  0.00     0.012 A 
HETATM   26  C   UNK N   1      32.289   6.703  19.572  0.00  0.00    -0.025 A 
HETATM   27  C   UNK N   1      33.431   7.433  19.998  0.00  0.00    -0.017 A 
HETATM   28  C   UNK N   1      32.435   5.454  18.963  0.00  0.00     0.012 A 
HETATM   29  C   UNK N   1      34.701   6.869  19.794  0.00  0.00     0.013 A 
HETATM   30  C   UNK N   1      34.839   5.629  19.165  0.00  0.00     0.001 A 
HETATM   31  C   UNK N   1      33.708   4.923  18.751  0.00  0.00     0.001 A 
ENDBRANCH  16  22
BRANCH  16  32
HETATM   32  O   UNK N   1      33.983  10.778  21.541  0.00  0.00    -0.384 OA
HETATM   33  H   UNK N   1      33.463  11.594  21.482  0.00  0.00     0.211 HD
ENDBRANCH  16  32
ENDBRANCH   1  16
BRANCH   1  34
HETATM   34  C   UNK N   1      37.037   9.686  20.597  0.00  0.00    -0.046 A 
HETATM   35  C   UNK N   1      37.832   8.611  20.179  0.00  0.00     0.008 A 
HETATM   36  C   UNK N   1      39.139   8.473  20.654  0.00  0.00     0.001 A 
HETATM   37  C   UNK N   1      39.658   9.411  21.548  0.00  0.00     0.000 A 
HETATM   38  C   UNK N   1      38.869  10.486  21.971  0.00  0.00     0.001 A 
HETATM   39  C   UNK N   1      37.556  10.620  21.504  0.00  0.00     0.008 A 
ENDBRANCH   1  34
TORSDOF 9
ENDMDL
MODEL 9
REMARK VINA RESULT:      -7.1      4.028      6.816
REMARK  9 active torsions:
REMARK  status: ('A' for Active; 'I' for Inactive)
REMARK    1  A    between atoms: C_8  and  C_12 
REMARK    2  A    between atoms: C_9  and  O_15 
REMARK    3  A    between atoms: C_12  and  C_13 
REMARK    4  A    between atoms: C_12  and  C_14 
REMARK    5  A    between atoms: C_13  and  C_17 
REMARK    6  A    between atoms: C_13  and  C_18 
REMARK    7  A    between atoms: C_13  and  O_37 
REMARK    8  A    between atoms: C_17  and  C_19 
REMARK    9  A    between atoms: C_19  and  N_20 
ROOT
HETATM    1  C   UNK N   1      27.720  15.597   4.528  0.00  0.00     0.095 C 
ENDROOT
BRANCH   1   2
HETATM    2  C   UNK N   1      26.259  15.966   4.861  0.00  0.00     0.005 A 
HETATM    3  C   UNK N   1      25.617  16.898   4.038  0.00  0.00     0.026 A 
HETATM    4  C   UNK N   1      24.353  17.370   4.321  0.00  0.00    -0.007 A 
HETATM    5  C   UNK N   1      23.782  18.364   3.526  0.00  0.00     0.032 A 
HETATM    6  C   UNK N   1      23.671  16.879   5.442  0.00  0.00     0.044 A 
HETATM    7  C   UNK N   1      22.524  18.874   3.847  0.00  0.00     0.011 A 
HETATM    8  C   UNK N   1      21.832  18.380   4.960  0.00  0.00     0.021 A 
HETATM    9 Br   UNK N   1      21.779  20.272   2.788  0.00  0.00    -0.051 Br
HETATM   10  C   UNK N   1      22.403  17.376   5.756  0.00  0.00     0.032 A 
HETATM   11  N   UNK N   1      24.266  15.939   6.230  0.00  0.00    -0.336 N 
HETATM   12  C   UNK N   1      25.530  15.478   5.984  0.00  0.00     0.149 A 
ATOM     13  HN  UNK N   1      23.750  15.568   7.028  1.00  0.00     0.168 HD
BRANCH  12  14
HETATM   14  O   UNK N   1      26.083  14.572   6.826  0.00  0.00    -0.340 OA
HETATM   15  C   UNK N   1      25.328  13.702   7.577  0.00  0.00     0.211 C 
ENDBRANCH  12  14
ENDBRANCH   1   2
BRANCH   1  16
HETATM   16  C   UNK N   1      28.843  16.689   4.730  0.00  0.00     0.099 C 
BRANCH  16  17
HETATM   17  C   UNK N   1      30.257  16.075   4.703  0.00  0.00     0.074 C 
BRANCH  17  18
HETATM   18  C   UNK N   1      31.444  17.019   4.653  0.00  0.00     0.274 C 
BRANCH  18  19
HETATM   19  N   UNK N   1      32.502  16.437   5.466  0.00  0.00     0.080 N 
HETATM   20  C   UNK N   1      33.114  15.365   4.702  0.00  0.00     0.309 C 
HETATM   21  C   UNK N   1      33.513  17.452   5.689  0.00  0.00     0.309 C 
ENDBRANCH  18  19
ENDBRANCH  17  18
ENDBRANCH  16  17
BRANCH  16  22
HETATM   22  C   UNK N   1      28.633  17.572   5.985  0.00  0.00    -0.012 A 
HETATM   23  C   UNK N   1      29.021  17.092   7.253  0.00  0.00     0.011 A 
HETATM   24  C   UNK N   1      28.758  17.805   8.422  0.00  0.00     0.002 A 
HETATM   25  C   UNK N   1      28.135  19.045   8.356  0.00  0.00     0.012 A 
HETATM   26  C   UNK N   1      27.787  19.586   7.120  0.00  0.00    -0.025 A 
HETATM   27  C   UNK N   1      28.024  18.857   5.924  0.00  0.00    -0.017 A 
HETATM   28  C   UNK N   1      27.207  20.856   7.071  0.00  0.00     0.012 A 
HETATM   29  C   UNK N   1      27.661  19.442   4.700  0.00  0.00     0.013 A 
HETATM   30  C   UNK N   1      27.102  20.722   4.658  0.00  0.00     0.001 A 
HETATM   31  C   UNK N   1      26.875  21.427   5.841  0.00  0.00     0.001 A 
ENDBRANCH  16  22
BRANCH  16  32
HETATM   32  O   UNK N   1      28.798  17.526   3.613  0.00  0.00    -0.384 OA
HETATM   33  H   UNK N   1      28.898  17.789   2.685  0.00  0.00     0.211 HD
ENDBRANCH  16  32
ENDBRANCH   1  16
BRANCH   1  34
HETATM   34  C   UNK N   1      28.001  14.487   3.546  0.00  0.00    -0.046 A 
HETATM   35  C   UNK N   1      28.122  13.175   4.023  0.00  0.00     0.008 A 
HETATM   36  C   UNK N   1      28.431  12.131   3.147  0.00  0.00     0.001 A 
HETATM   37  C   UNK N   1      28.618  12.394   1.789  0.00  0.00     0.000 A 
HETATM   38  C   UNK N   1      28.501  13.701   1.306  0.00  0.00     0.001 A 
HETATM   39  C   UNK N   1      28.201  14.750   2.184  0.00  0.00     0.008 A 
ENDBRANCH   1  34
TORSDOF 9
ENDMDL
