REMARK  8 active torsions:
REMARK  status: ('A' for Active; 'I' for Inactive)
REMARK    1  A    between atoms: C_3  and  O_16 
REMARK    2  A    between atoms: C_9  and  O_12 
REMARK    3  A    between atoms: C_10  and  O_14 
REMARK    4  A    between atoms: O_16  and  C_17 
REMARK    5  A    between atoms: C_20  and  N_23 
REMARK       I    between atoms: N_23  and  C_24 
REMARK    6  A    between atoms: C_24  and  C_25 
REMARK    7  A    between atoms: C_25  and  C_27 
REMARK       I    between atoms: C_27  and  N_28 
REMARK    8  A    between atoms: N_28  and  C_30 
ROOT
HETATM    1  C   UNK N   1      -4.763  -1.093  -0.151  0.00  0.00     0.076 A 
HETATM    2  C   UNK N   1      -4.461  -2.224  -0.916  0.00  0.00     0.039 A 
HETATM    3  C   UNK N   1      -3.434  -3.076  -0.513  0.00  0.00     0.032 A 
HETATM    4  C   UNK N   1      -2.751  -2.825   0.687  0.00  0.00     0.034 A 
HETATM    5  C   UNK N   1      -3.131  -1.761   1.499  0.00  0.00     0.032 A 
HETATM    6  C   UNK N   1      -4.139  -0.903   1.091  0.00  0.00     0.039 A 
ENDROOT
BRANCH   4   7
HETATM    7  N   UNK N   1      -1.481  -3.385   0.918  0.00  0.00    -0.326 N 
HETATM    8  C   UNK N   1      -0.460  -3.120   0.059  0.00  0.00     0.240 C 
HETATM    9  O   UNK N   1      -0.649  -2.456  -0.954  0.00  0.00    -0.272 OA
HETATM   10  H   UNK N   1      -1.332  -3.967   1.698  0.00  0.00     0.169 HD
BRANCH   8  11
HETATM   11  C   UNK N   1       0.927  -3.491   0.435  0.00  0.00     0.122 A 
HETATM   12  C   UNK N   1       1.446  -4.685  -0.339  0.00  0.00     0.031 A 
HETATM   13  C   UNK N   1       1.155  -4.807   1.146  0.00  0.00     0.031 A 
BRANCH  11  14
HETATM   14  C   UNK N   1       1.962  -2.423   0.621  0.00  0.00     0.240 C 
HETATM   15  N   UNK N   1       2.515  -1.788  -0.449  0.00  0.00    -0.326 N 
HETATM   16  H   UNK N   1       2.107  -1.904  -1.338  0.00  0.00     0.169 HD
HETATM   17  O   UNK N   1       2.289  -2.113   1.757  0.00  0.00    -0.272 OA
BRANCH  15  18
HETATM   18  C   UNK N   1       3.667  -0.964  -0.319  0.00  0.00     0.034 A 
HETATM   19  C   UNK N   1       4.754  -1.396   0.458  0.00  0.00     0.032 A 
HETATM   20  C   UNK N   1       5.893  -0.601   0.586  0.00  0.00     0.044 A 
HETATM   21  C   UNK N   1       5.952   0.638  -0.052  0.00  0.00     0.116 A 
HETATM   22  C   UNK N   1       4.875   1.075  -0.835  0.00  0.00     0.044 A 
HETATM   23  F   UNK N   1       7.053   1.414   0.087  0.00  0.00    -0.206 F 
HETATM   24  C   UNK N   1       3.738   0.268  -0.979  0.00  0.00     0.032 A 
ENDBRANCH  15  18
ENDBRANCH  11  14
ENDBRANCH   8  11
ENDBRANCH   4   7
BRANCH   1  25
HETATM   25  O   UNK N   1      -5.611  -0.168  -0.647  0.00  0.00    -0.310 OA
BRANCH  25  26
HETATM   26  C   UNK N   1      -5.491   1.184  -0.494  0.00  0.00     0.090 A 
HETATM   27  C   UNK N   1      -4.236   1.877  -0.397  0.00  0.00     0.027 A 
HETATM   28  C   UNK N   1      -4.262   3.283  -0.225  0.00  0.00     0.048 A 
HETATM   29  C   UNK N   1      -2.986   1.236  -0.482  0.00  0.00     0.056 A 
HETATM   30  N   UNK N   1      -5.439   3.950  -0.181  0.00  0.00    -0.365 N 
HETATM   31  C   UNK N   1      -3.068   3.997  -0.096  0.00  0.00     0.070 A 
HETATM   32  C   UNK N   1      -6.630   3.309  -0.304  0.00  0.00     0.091 A 
ATOM     33  HN  UNK N   1      -5.430   4.962  -0.052  1.00  0.00     0.165 HD
HETATM   34  C   UNK N   1      -6.669   1.926  -0.461  0.00  0.00     0.055 A 
HETATM   35  C   UNK N   1      -1.830   3.361  -0.140  0.00  0.00     0.103 A 
HETATM   36  C   UNK N   1      -1.782   1.961  -0.350  0.00  0.00     0.102 A 
BRANCH  35  37
HETATM   37  O   UNK N   1      -0.718   4.133   0.010  0.00  0.00    -0.353 OA
HETATM   38  C   UNK N   1       0.581   3.680   0.041  0.00  0.00     0.210 C 
ENDBRANCH  35  37
BRANCH  36  39
HETATM   39  O   UNK N   1      -0.597   1.323  -0.417  0.00  0.00    -0.353 OA
HETATM   40  C   UNK N   1      -0.138   0.796  -1.600  0.00  0.00     0.210 C 
ENDBRANCH  36  39
ENDBRANCH  25  26
ENDBRANCH   1  25
TORSDOF 8
