MODEL 1
REMARK VINA RESULT:      -6.5      0.000      0.000
REMARK  9 active torsions:
REMARK  status: ('A' for Active; 'I' for Inactive)
REMARK    1  A    between atoms: C_2  and  C_3 
REMARK    2  A    between atoms: C_2  and  N_11 
REMARK    3  A    between atoms: C_3  and  O_4 
REMARK    4  A    between atoms: O_4  and  C_5 
REMARK    5  A    between atoms: N_11  and  C_12 
REMARK    6  A    between atoms: C_12  and  C_14 
REMARK    7  A    between atoms: C_14  and  O_15 
REMARK    8  A    between atoms: C_14  and  C_16 
REMARK    9  A    between atoms: C_19  and  O_20 
ROOT
HETATM    1  C   UNK N   1      28.280  22.582  -7.450  0.00  0.00     0.106 C 
HETATM    2  C   UNK N   1      28.636  23.319  -8.736  0.00  0.00     0.035 C 
ENDROOT
BRANCH   1   3
HETATM    3  N   UNK N   1      27.156  21.679  -7.658  0.00  0.00    -0.409 N 
HETATM    4  H   UNK N   1      27.217  20.686  -7.886  0.00  0.00     0.154 HD
BRANCH   3   5
HETATM    5  C   UNK N   1      25.925  22.445  -7.482  0.00  0.00     0.097 C 
HETATM    6  C   UNK N   1      24.749  21.493  -7.444  0.00  0.00     0.034 C 
BRANCH   5   7
HETATM    7  C   UNK N   1      25.958  23.230  -6.176  0.00  0.00     0.200 C 
BRANCH   7   8
HETATM    8  O   UNK N   1      25.325  24.447  -6.316  0.00  0.00    -0.349 OA
BRANCH   8   9
HETATM    9  C   UNK N   1      25.508  25.478  -5.454  0.00  0.00     0.068 A 
HETATM   10  C   UNK N   1      24.994  26.761  -5.716  0.00  0.00     0.037 A 
HETATM   11  C   UNK N   1      25.198  27.804  -4.807  0.00  0.00     0.003 A 
HETATM   12  C   UNK N   1      25.913  27.574  -3.629  0.00  0.00     0.000 A 
HETATM   13  C   UNK N   1      26.427  26.302  -3.362  0.00  0.00     0.003 A 
HETATM   14  C   UNK N   1      26.225  25.258  -4.270  0.00  0.00     0.037 A 
ENDBRANCH   8   9
ENDBRANCH   7   8
ENDBRANCH   5   7
ENDBRANCH   3   5
ENDBRANCH   1   3
BRANCH   1  15
HETATM   15  C   UNK N   1      29.482  21.854  -6.834  0.00  0.00     0.173 C 
BRANCH  15  16
HETATM   16  O   UNK N   1      29.325  20.479  -7.033  0.00  0.00    -0.389 OA
HETATM   17  H   UNK N   1      30.003  19.862  -7.353  0.00  0.00     0.210 HD
ENDBRANCH  15  16
BRANCH  15  18
HETATM   18  C   UNK N   1      29.733  22.161  -5.370  0.00  0.00    -0.028 A 
HETATM   19  C   UNK N   1      30.409  21.237  -4.557  0.00  0.00     0.012 A 
HETATM   20  C   UNK N   1      30.660  21.524  -3.213  0.00  0.00     0.037 A 
HETATM   21  C   UNK N   1      30.237  22.737  -2.668  0.00  0.00     0.065 A 
HETATM   22  C   UNK N   1      29.563  23.665  -3.468  0.00  0.00     0.037 A 
HETATM   23  C   UNK N   1      29.314  23.381  -4.816  0.00  0.00     0.012 A 
BRANCH  21  24
HETATM   24  O   UNK N   1      30.478  23.010  -1.375  0.00  0.00    -0.361 OA
HETATM   25  H   UNK N   1      31.205  23.554  -1.139  0.00  0.00     0.217 HD
ENDBRANCH  21  24
ENDBRANCH  15  18
ENDBRANCH   1  15
TORSDOF 9
ENDMDL
MODEL 2
REMARK VINA RESULT:      -6.3     18.799     22.568
REMARK  9 active torsions:
REMARK  status: ('A' for Active; 'I' for Inactive)
REMARK    1  A    between atoms: C_2  and  C_3 
REMARK    2  A    between atoms: C_2  and  N_11 
REMARK    3  A    between atoms: C_3  and  O_4 
REMARK    4  A    between atoms: O_4  and  C_5 
REMARK    5  A    between atoms: N_11  and  C_12 
REMARK    6  A    between atoms: C_12  and  C_14 
REMARK    7  A    between atoms: C_14  and  O_15 
REMARK    8  A    between atoms: C_14  and  C_16 
REMARK    9  A    between atoms: C_19  and  O_20 
ROOT
HETATM    1  C   UNK N   1      36.498  13.771  10.879  0.00  0.00     0.106 C 
HETATM    2  C   UNK N   1      37.424  12.767  10.201  0.00  0.00     0.035 C 
ENDROOT
BRANCH   1   3
HETATM    3  N   UNK N   1      36.877  13.976  12.270  0.00  0.00    -0.409 N 
HETATM    4  H   UNK N   1      37.816  14.181  12.613  0.00  0.00     0.154 HD
BRANCH   3   5
HETATM    5  C   UNK N   1      35.676  13.835  13.089  0.00  0.00     0.097 C 
HETATM    6  C   UNK N   1      34.978  12.542  12.729  0.00  0.00     0.034 C 
BRANCH   5   7
HETATM    7  C   UNK N   1      36.032  13.801  14.570  0.00  0.00     0.200 C 
BRANCH   7   8
HETATM    8  O   UNK N   1      34.959  13.377  15.326  0.00  0.00    -0.349 OA
BRANCH   8   9
HETATM    9  C   UNK N   1      35.094  12.841  16.564  0.00  0.00     0.068 A 
HETATM   10  C   UNK N   1      35.060  13.639  17.723  0.00  0.00     0.037 A 
HETATM   11  C   UNK N   1      35.201  13.058  18.987  0.00  0.00     0.003 A 
HETATM   12  C   UNK N   1      35.374  11.676  19.105  0.00  0.00     0.000 A 
HETATM   13  C   UNK N   1      35.408  10.877  17.958  0.00  0.00     0.003 A 
HETATM   14  C   UNK N   1      35.268  11.457  16.694  0.00  0.00     0.037 A 
ENDBRANCH   8   9
ENDBRANCH   7   8
ENDBRANCH   5   7
ENDBRANCH   3   5
ENDBRANCH   1   3
BRANCH   1  15
HETATM   15  C   UNK N   1      36.408  15.099  10.117  0.00  0.00     0.173 C 
BRANCH  15  16
HETATM   16  O   UNK N   1      36.959  16.110  10.910  0.00  0.00    -0.389 OA
HETATM   17  H   UNK N   1      36.479  16.846  11.323  0.00  0.00     0.210 HD
ENDBRANCH  15  16
BRANCH  15  18
HETATM   18  C   UNK N   1      35.014  15.476   9.655  0.00  0.00    -0.028 A 
HETATM   19  C   UNK N   1      34.737  16.787   9.231  0.00  0.00     0.012 A 
HETATM   20  C   UNK N   1      33.460  17.135   8.787  0.00  0.00     0.037 A 
HETATM   21  C   UNK N   1      32.445  16.177   8.759  0.00  0.00     0.065 A 
HETATM   22  C   UNK N   1      32.710  14.868   9.177  0.00  0.00     0.037 A 
HETATM   23  C   UNK N   1      33.991  14.517   9.620  0.00  0.00     0.012 A 
BRANCH  21  24
HETATM   24  O   UNK N   1      31.218  16.513   8.331  0.00  0.00    -0.361 OA
HETATM   25  H   UNK N   1      30.519  15.890   8.376  0.00  0.00     0.217 HD
ENDBRANCH  21  24
ENDBRANCH  15  18
ENDBRANCH   1  15
TORSDOF 9
ENDMDL
MODEL 3
REMARK VINA RESULT:      -6.0     10.987     14.515
REMARK  9 active torsions:
REMARK  status: ('A' for Active; 'I' for Inactive)
REMARK    1  A    between atoms: C_2  and  C_3 
REMARK    2  A    between atoms: C_2  and  N_11 
REMARK    3  A    between atoms: C_3  and  O_4 
REMARK    4  A    between atoms: O_4  and  C_5 
REMARK    5  A    between atoms: N_11  and  C_12 
REMARK    6  A    between atoms: C_12  and  C_14 
REMARK    7  A    between atoms: C_14  and  O_15 
REMARK    8  A    between atoms: C_14  and  C_16 
REMARK    9  A    between atoms: C_19  and  O_20 
ROOT
HETATM    1  C   UNK N   1      27.953  19.496   6.399  0.00  0.00     0.106 C 
HETATM    2  C   UNK N   1      27.150  20.783   6.562  0.00  0.00     0.035 C 
ENDROOT
BRANCH   1   3
HETATM    3  N   UNK N   1      27.829  18.650   7.578  0.00  0.00    -0.409 N 
HETATM    4  H   UNK N   1      26.962  18.266   7.954  0.00  0.00     0.154 HD
BRANCH   3   5
HETATM    5  C   UNK N   1      29.167  18.448   8.129  0.00  0.00     0.097 C 
HETATM    6  C   UNK N   1      29.078  18.387   9.638  0.00  0.00     0.034 C 
BRANCH   5   7
HETATM    7  C   UNK N   1      29.768  17.142   7.623  0.00  0.00     0.200 C 
BRANCH   7   8
HETATM    8  O   UNK N   1      31.016  17.354   7.073  0.00  0.00    -0.349 OA
BRANCH   8   9
HETATM    9  C   UNK N   1      32.168  17.155   7.759  0.00  0.00     0.068 A 
HETATM   10  C   UNK N   1      33.208  18.103   7.749  0.00  0.00     0.037 A 
HETATM   11  C   UNK N   1      34.384  17.870   8.468  0.00  0.00     0.003 A 
HETATM   12  C   UNK N   1      34.532  16.692   9.204  0.00  0.00     0.000 A 
HETATM   13  C   UNK N   1      33.503  15.745   9.219  0.00  0.00     0.003 A 
HETATM   14  C   UNK N   1      32.326  15.976   8.499  0.00  0.00     0.037 A 
ENDBRANCH   8   9
ENDBRANCH   7   8
ENDBRANCH   5   7
ENDBRANCH   3   5
ENDBRANCH   1   3
BRANCH   1  15
HETATM   15  C   UNK N   1      27.595  18.734   5.117  0.00  0.00     0.173 C 
BRANCH  15  16
HETATM   16  O   UNK N   1      28.720  18.696   4.288  0.00  0.00    -0.389 OA
HETATM   17  H   UNK N   1      28.730  18.813   3.324  0.00  0.00     0.210 HD
ENDBRANCH  15  16
BRANCH  15  18
HETATM   18  C   UNK N   1      26.392  19.274   4.369  0.00  0.00    -0.028 A 
HETATM   19  C   UNK N   1      25.100  18.814   4.675  0.00  0.00     0.012 A 
HETATM   20  C   UNK N   1      23.986  19.321   4.002  0.00  0.00     0.037 A 
HETATM   21  C   UNK N   1      24.152  20.295   3.015  0.00  0.00     0.065 A 
HETATM   22  C   UNK N   1      25.432  20.762   2.703  0.00  0.00     0.037 A 
HETATM   23  C   UNK N   1      26.549  20.256   3.379  0.00  0.00     0.012 A 
BRANCH  21  24
HETATM   24  O   UNK N   1      23.080  20.782   2.369  0.00  0.00    -0.361 OA
HETATM   25  H   UNK N   1      22.436  20.195   2.021  0.00  0.00     0.217 HD
ENDBRANCH  21  24
ENDBRANCH  15  18
ENDBRANCH   1  15
TORSDOF 9
ENDMDL
MODEL 4
REMARK VINA RESULT:      -6.0     12.619     15.146
REMARK  9 active torsions:
REMARK  status: ('A' for Active; 'I' for Inactive)
REMARK    1  A    between atoms: C_2  and  C_3 
REMARK    2  A    between atoms: C_2  and  N_11 
REMARK    3  A    between atoms: C_3  and  O_4 
REMARK    4  A    between atoms: O_4  and  C_5 
REMARK    5  A    between atoms: N_11  and  C_12 
REMARK    6  A    between atoms: C_12  and  C_14 
REMARK    7  A    between atoms: C_14  and  O_15 
REMARK    8  A    between atoms: C_14  and  C_16 
REMARK    9  A    between atoms: C_19  and  O_20 
ROOT
HETATM    1  C   UNK N   1      28.213  18.852   7.351  0.00  0.00     0.106 C 
HETATM    2  C   UNK N   1      27.755  20.220   6.855  0.00  0.00     0.035 C 
ENDROOT
BRANCH   1   3
HETATM    3  N   UNK N   1      27.772  18.617   8.719  0.00  0.00    -0.409 N 
HETATM    4  H   UNK N   1      26.808  18.633   9.051  0.00  0.00     0.154 HD
BRANCH   3   5
HETATM    5  C   UNK N   1      28.956  18.355   9.534  0.00  0.00     0.097 C 
HETATM    6  C   UNK N   1      28.829  16.986  10.166  0.00  0.00     0.034 C 
BRANCH   5   7
HETATM    7  C   UNK N   1      30.218  18.382   8.680  0.00  0.00     0.200 C 
BRANCH   7   8
HETATM    8  O   UNK N   1      31.010  17.282   8.935  0.00  0.00    -0.349 OA
BRANCH   8   9
HETATM    9  C   UNK N   1      32.022  16.898   8.119  0.00  0.00     0.068 A 
HETATM   10  C   UNK N   1      32.760  17.831   7.367  0.00  0.00     0.037 A 
HETATM   11  C   UNK N   1      33.801  17.406   6.536  0.00  0.00     0.003 A 
HETATM   12  C   UNK N   1      34.116  16.047   6.450  0.00  0.00     0.000 A 
HETATM   13  C   UNK N   1      33.388  15.114   7.195  0.00  0.00     0.003 A 
HETATM   14  C   UNK N   1      32.346  15.538   8.026  0.00  0.00     0.037 A 
ENDBRANCH   8   9
ENDBRANCH   7   8
ENDBRANCH   5   7
ENDBRANCH   3   5
ENDBRANCH   1   3
BRANCH   1  15
HETATM   15  C   UNK N   1      27.787  17.712   6.417  0.00  0.00     0.173 C 
BRANCH  15  16
HETATM   16  O   UNK N   1      27.000  16.810   7.140  0.00  0.00    -0.389 OA
HETATM   17  H   UNK N   1      26.396  16.146   6.769  0.00  0.00     0.210 HD
ENDBRANCH  15  16
BRANCH  15  18
HETATM   18  C   UNK N   1      28.929  16.996   5.723  0.00  0.00    -0.028 A 
HETATM   19  C   UNK N   1      29.100  15.611   5.883  0.00  0.00     0.012 A 
HETATM   20  C   UNK N   1      30.139  14.942   5.231  0.00  0.00     0.037 A 
HETATM   21  C   UNK N   1      31.017  15.652   4.410  0.00  0.00     0.065 A 
HETATM   22  C   UNK N   1      30.856  17.031   4.242  0.00  0.00     0.037 A 
HETATM   23  C   UNK N   1      29.813  17.701   4.893  0.00  0.00     0.012 A 
BRANCH  21  24
HETATM   24  O   UNK N   1      32.015  15.008   3.783  0.00  0.00    -0.361 OA
HETATM   25  H   UNK N   1      31.831  14.246   3.269  0.00  0.00     0.217 HD
ENDBRANCH  21  24
ENDBRANCH  15  18
ENDBRANCH   1  15
TORSDOF 9
ENDMDL
MODEL 5
REMARK VINA RESULT:      -6.0     19.127     22.788
REMARK  9 active torsions:
REMARK  status: ('A' for Active; 'I' for Inactive)
REMARK    1  A    between atoms: C_2  and  C_3 
REMARK    2  A    between atoms: C_2  and  N_11 
REMARK    3  A    between atoms: C_3  and  O_4 
REMARK    4  A    between atoms: O_4  and  C_5 
REMARK    5  A    between atoms: N_11  and  C_12 
REMARK    6  A    between atoms: C_12  and  C_14 
REMARK    7  A    between atoms: C_14  and  O_15 
REMARK    8  A    between atoms: C_14  and  C_16 
REMARK    9  A    between atoms: C_19  and  O_20 
ROOT
HETATM    1  C   UNK N   1      36.366  11.568  11.116  0.00  0.00     0.106 C 
HETATM    2  C   UNK N   1      36.841  10.453  10.190  0.00  0.00     0.035 C 
ENDROOT
BRANCH   1   3
HETATM    3  N   UNK N   1      36.332  11.119  12.501  0.00  0.00    -0.409 N 
HETATM    4  H   UNK N   1      37.131  10.796  13.047  0.00  0.00     0.154 HD
BRANCH   3   5
HETATM    5  C   UNK N   1      34.953  11.214  12.971  0.00  0.00     0.097 C 
HETATM    6  C   UNK N   1      34.575   9.924  13.665  0.00  0.00     0.034 C 
BRANCH   5   7
HETATM    7  C   UNK N   1      34.795  12.363  13.959  0.00  0.00     0.200 C 
BRANCH   7   8
HETATM    8  O   UNK N   1      36.021  12.766  14.447  0.00  0.00    -0.349 OA
BRANCH   8   9
HETATM    9  C   UNK N   1      36.155  13.596  15.510  0.00  0.00     0.068 A 
HETATM   10  C   UNK N   1      35.411  13.410  16.691  0.00  0.00     0.037 A 
HETATM   11  C   UNK N   1      35.572  14.282  17.773  0.00  0.00     0.003 A 
HETATM   12  C   UNK N   1      36.477  15.343  17.686  0.00  0.00     0.000 A 
HETATM   13  C   UNK N   1      37.219  15.534  16.517  0.00  0.00     0.003 A 
HETATM   14  C   UNK N   1      37.059  14.664  15.434  0.00  0.00     0.037 A 
ENDBRANCH   8   9
ENDBRANCH   7   8
ENDBRANCH   5   7
ENDBRANCH   3   5
ENDBRANCH   1   3
BRANCH   1  15
HETATM   15  C   UNK N   1      37.186  12.855  10.959  0.00  0.00     0.173 C 
BRANCH  15  16
HETATM   16  O   UNK N   1      37.922  13.064  12.129  0.00  0.00    -0.389 OA
HETATM   17  H   UNK N   1      38.482  12.413  12.583  0.00  0.00     0.210 HD
ENDBRANCH  15  16
BRANCH  15  18
HETATM   18  C   UNK N   1      36.378  14.088  10.604  0.00  0.00    -0.028 A 
HETATM   19  C   UNK N   1      35.947  14.298   9.283  0.00  0.00     0.012 A 
HETATM   20  C   UNK N   1      35.186  15.422   8.954  0.00  0.00     0.037 A 
HETATM   21  C   UNK N   1      34.847  16.348   9.942  0.00  0.00     0.065 A 
HETATM   22  C   UNK N   1      35.268  16.149  11.260  0.00  0.00     0.037 A 
HETATM   23  C   UNK N   1      36.029  15.020  11.592  0.00  0.00     0.012 A 
BRANCH  21  24
HETATM   24  O   UNK N   1      34.115  17.428   9.623  0.00  0.00    -0.361 OA
HETATM   25  H   UNK N   1      33.366  17.339   9.067  0.00  0.00     0.217 HD
ENDBRANCH  21  24
ENDBRANCH  15  18
ENDBRANCH   1  15
TORSDOF 9
ENDMDL
MODEL 6
REMARK VINA RESULT:      -5.9      2.448      3.075
REMARK  9 active torsions:
REMARK  status: ('A' for Active; 'I' for Inactive)
REMARK    1  A    between atoms: C_2  and  C_3 
REMARK    2  A    between atoms: C_2  and  N_11 
REMARK    3  A    between atoms: C_3  and  O_4 
REMARK    4  A    between atoms: O_4  and  C_5 
REMARK    5  A    between atoms: N_11  and  C_12 
REMARK    6  A    between atoms: C_12  and  C_14 
REMARK    7  A    between atoms: C_14  and  O_15 
REMARK    8  A    between atoms: C_14  and  C_16 
REMARK    9  A    between atoms: C_19  and  O_20 
ROOT
HETATM    1  C   UNK N   1      26.551  23.211  -7.842  0.00  0.00     0.106 C 
HETATM    2  C   UNK N   1      26.787  21.821  -8.424  0.00  0.00     0.035 C 
ENDROOT
BRANCH   1   3
HETATM    3  N   UNK N   1      25.455  23.885  -8.526  0.00  0.00    -0.409 N 
HETATM    4  H   UNK N   1      24.462  23.682  -8.413  0.00  0.00     0.154 HD
BRANCH   3   5
HETATM    5  C   UNK N   1      26.029  24.902  -9.401  0.00  0.00     0.097 C 
HETATM    6  C   UNK N   1      24.969  25.383 -10.367  0.00  0.00     0.034 C 
BRANCH   5   7
HETATM    7  C   UNK N   1      26.527  26.094  -8.592  0.00  0.00     0.200 C 
BRANCH   7   8
HETATM    8  O   UNK N   1      25.618  26.442  -7.615  0.00  0.00    -0.349 OA
BRANCH   8   9
HETATM    9  C   UNK N   1      25.971  27.081  -6.473  0.00  0.00     0.068 A 
HETATM   10  C   UNK N   1      25.099  27.162  -5.371  0.00  0.00     0.037 A 
HETATM   11  C   UNK N   1      25.493  27.827  -4.205  0.00  0.00     0.003 A 
HETATM   12  C   UNK N   1      26.758  28.414  -4.129  0.00  0.00     0.000 A 
HETATM   13  C   UNK N   1      27.630  28.337  -5.219  0.00  0.00     0.003 A 
HETATM   14  C   UNK N   1      27.238  27.674  -6.386  0.00  0.00     0.037 A 
ENDBRANCH   8   9
ENDBRANCH   7   8
ENDBRANCH   5   7
ENDBRANCH   3   5
ENDBRANCH   1   3
BRANCH   1  15
HETATM   15  C   UNK N   1      26.339  23.187  -6.323  0.00  0.00     0.173 C 
BRANCH  15  16
HETATM   16  O   UNK N   1      25.082  23.727  -6.036  0.00  0.00    -0.389 OA
HETATM   17  H   UNK N   1      24.804  24.127  -5.196  0.00  0.00     0.210 HD
ENDBRANCH  15  16
BRANCH  15  18
HETATM   18  C   UNK N   1      27.420  23.879  -5.517  0.00  0.00    -0.028 A 
HETATM   19  C   UNK N   1      28.663  24.173  -6.102  0.00  0.00     0.012 A 
HETATM   20  C   UNK N   1      29.657  24.828  -5.369  0.00  0.00     0.037 A 
HETATM   21  C   UNK N   1      29.417  25.196  -4.044  0.00  0.00     0.065 A 
HETATM   22  C   UNK N   1      28.183  24.910  -3.451  0.00  0.00     0.037 A 
HETATM   23  C   UNK N   1      27.186  24.257  -4.186  0.00  0.00     0.012 A 
BRANCH  21  24
HETATM   24  O   UNK N   1      30.373  25.826  -3.341  0.00  0.00    -0.361 OA
HETATM   25  H   UNK N   1      30.199  26.112  -2.466  0.00  0.00     0.217 HD
ENDBRANCH  21  24
ENDBRANCH  15  18
ENDBRANCH   1  15
TORSDOF 9
ENDMDL
MODEL 7
REMARK VINA RESULT:      -5.9      3.508      7.178
REMARK  9 active torsions:
REMARK  status: ('A' for Active; 'I' for Inactive)
REMARK    1  A    between atoms: C_2  and  C_3 
REMARK    2  A    between atoms: C_2  and  N_11 
REMARK    3  A    between atoms: C_3  and  O_4 
REMARK    4  A    between atoms: O_4  and  C_5 
REMARK    5  A    between atoms: N_11  and  C_12 
REMARK    6  A    between atoms: C_12  and  C_14 
REMARK    7  A    between atoms: C_14  and  O_15 
REMARK    8  A    between atoms: C_14  and  C_16 
REMARK    9  A    between atoms: C_19  and  O_20 
ROOT
HETATM    1  C   UNK N   1      27.298  29.685  -3.598  0.00  0.00     0.106 C 
HETATM    2  C   UNK N   1      26.874  31.062  -3.101  0.00  0.00     0.035 C 
ENDROOT
BRANCH   1   3
HETATM    3  N   UNK N   1      28.143  29.012  -2.621  0.00  0.00    -0.409 N 
HETATM    4  H   UNK N   1      27.826  28.564  -1.761  0.00  0.00     0.154 HD
BRANCH   3   5
HETATM    5  C   UNK N   1      29.523  29.091  -3.089  0.00  0.00     0.097 C 
HETATM    6  C   UNK N   1      30.440  29.288  -1.902  0.00  0.00     0.034 C 
BRANCH   5   7
HETATM    7  C   UNK N   1      29.925  27.807  -3.807  0.00  0.00     0.200 C 
BRANCH   7   8
HETATM    8  O   UNK N   1      29.177  26.738  -3.361  0.00  0.00    -0.349 OA
BRANCH   8   9
HETATM    9  C   UNK N   1      28.774  25.730  -4.174  0.00  0.00     0.068 A 
HETATM   10  C   UNK N   1      29.451  25.432  -5.372  0.00  0.00     0.037 A 
HETATM   11  C   UNK N   1      29.013  24.385  -6.189  0.00  0.00     0.003 A 
HETATM   12  C   UNK N   1      27.900  23.627  -5.818  0.00  0.00     0.000 A 
HETATM   13  C   UNK N   1      27.223  23.917  -4.629  0.00  0.00     0.003 A 
HETATM   14  C   UNK N   1      27.659  24.964  -3.811  0.00  0.00     0.037 A 
ENDBRANCH   8   9
ENDBRANCH   7   8
ENDBRANCH   5   7
ENDBRANCH   3   5
ENDBRANCH   1   3
BRANCH   1  15
HETATM   15  C   UNK N   1      26.105  28.813  -4.009  0.00  0.00     0.173 C 
BRANCH  15  16
HETATM   16  O   UNK N   1      25.812  27.931  -2.964  0.00  0.00    -0.389 OA
HETATM   17  H   UNK N   1      25.139  28.055  -2.276  0.00  0.00     0.210 HD
ENDBRANCH  15  16
BRANCH  15  18
HETATM   18  C   UNK N   1      26.282  28.062  -5.314  0.00  0.00    -0.028 A 
HETATM   19  C   UNK N   1      25.394  27.032  -5.668  0.00  0.00     0.012 A 
HETATM   20  C   UNK N   1      25.541  26.350  -6.878  0.00  0.00     0.037 A 
HETATM   21  C   UNK N   1      26.578  26.691  -7.748  0.00  0.00     0.065 A 
HETATM   22  C   UNK N   1      27.468  27.715  -7.408  0.00  0.00     0.037 A 
HETATM   23  C   UNK N   1      27.319  28.401  -6.197  0.00  0.00     0.012 A 
BRANCH  21  24
HETATM   24  O   UNK N   1      26.718  26.034  -8.911  0.00  0.00    -0.361 OA
HETATM   25  H   UNK N   1      26.497  25.124  -8.965  0.00  0.00     0.217 HD
ENDBRANCH  21  24
ENDBRANCH  15  18
ENDBRANCH   1  15
TORSDOF 9
ENDMDL
MODEL 8
REMARK VINA RESULT:      -5.8     12.633     16.718
REMARK  9 active torsions:
REMARK  status: ('A' for Active; 'I' for Inactive)
REMARK    1  A    between atoms: C_2  and  C_3 
REMARK    2  A    between atoms: C_2  and  N_11 
REMARK    3  A    between atoms: C_3  and  O_4 
REMARK    4  A    between atoms: O_4  and  C_5 
REMARK    5  A    between atoms: N_11  and  C_12 
REMARK    6  A    between atoms: C_12  and  C_14 
REMARK    7  A    between atoms: C_14  and  O_15 
REMARK    8  A    between atoms: C_14  and  C_16 
REMARK    9  A    between atoms: C_19  and  O_20 
ROOT
HETATM    1  C   UNK N   1      33.913  17.264   8.492  0.00  0.00     0.106 C 
HETATM    2  C   UNK N   1      34.757  18.527   8.364  0.00  0.00     0.035 C 
ENDROOT
BRANCH   1   3
HETATM    3  N   UNK N   1      34.066  16.664   9.811  0.00  0.00    -0.409 N 
HETATM    4  H   UNK N   1      33.436  16.787  10.603  0.00  0.00     0.154 HD
BRANCH   3   5
HETATM    5  C   UNK N   1      35.282  15.856   9.799  0.00  0.00     0.097 C 
HETATM    6  C   UNK N   1      35.935  15.921  11.162  0.00  0.00     0.034 C 
BRANCH   5   7
HETATM    7  C   UNK N   1      34.962  14.400   9.481  0.00  0.00     0.200 C 
BRANCH   7   8
HETATM    8  O   UNK N   1      35.426  14.055   8.228  0.00  0.00    -0.349 OA
BRANCH   8   9
HETATM    9  C   UNK N   1      34.629  14.010   7.133  0.00  0.00     0.068 A 
HETATM   10  C   UNK N   1      33.241  13.798   7.237  0.00  0.00     0.037 A 
HETATM   11  C   UNK N   1      32.443  13.759   6.089  0.00  0.00     0.003 A 
HETATM   12  C   UNK N   1      33.023  13.933   4.830  0.00  0.00     0.000 A 
HETATM   13  C   UNK N   1      34.400  14.144   4.718  0.00  0.00     0.003 A 
HETATM   14  C   UNK N   1      35.199  14.183   5.865  0.00  0.00     0.037 A 
ENDBRANCH   8   9
ENDBRANCH   7   8
ENDBRANCH   5   7
ENDBRANCH   3   5
ENDBRANCH   1   3
BRANCH   1  15
HETATM   15  C   UNK N   1      32.437  17.502   8.149  0.00  0.00     0.173 C 
BRANCH  15  16
HETATM   16  O   UNK N   1      31.654  16.615   8.893  0.00  0.00    -0.389 OA
HETATM   17  H   UNK N   1      31.587  15.655   8.762  0.00  0.00     0.210 HD
ENDBRANCH  15  16
BRANCH  15  18
HETATM   18  C   UNK N   1      32.103  17.410   6.673  0.00  0.00    -0.028 A 
HETATM   19  C   UNK N   1      33.101  17.610   5.705  0.00  0.00     0.012 A 
HETATM   20  C   UNK N   1      32.802  17.508   4.344  0.00  0.00     0.037 A 
HETATM   21  C   UNK N   1      31.502  17.204   3.936  0.00  0.00     0.065 A 
HETATM   22  C   UNK N   1      30.500  17.001   4.891  0.00  0.00     0.037 A 
HETATM   23  C   UNK N   1      30.799  17.100   6.255  0.00  0.00     0.012 A 
BRANCH  21  24
HETATM   24  O   UNK N   1      31.217  17.106   2.628  0.00  0.00    -0.361 OA
HETATM   25  H   UNK N   1      30.333  16.959   2.351  0.00  0.00     0.217 HD
ENDBRANCH  21  24
ENDBRANCH  15  18
ENDBRANCH   1  15
TORSDOF 9
ENDMDL
MODEL 9
REMARK VINA RESULT:      -5.8      2.184      3.644
REMARK  9 active torsions:
REMARK  status: ('A' for Active; 'I' for Inactive)
REMARK    1  A    between atoms: C_2  and  C_3 
REMARK    2  A    between atoms: C_2  and  N_11 
REMARK    3  A    between atoms: C_3  and  O_4 
REMARK    4  A    between atoms: O_4  and  C_5 
REMARK    5  A    between atoms: N_11  and  C_12 
REMARK    6  A    between atoms: C_12  and  C_14 
REMARK    7  A    between atoms: C_14  and  O_15 
REMARK    8  A    between atoms: C_14  and  C_16 
REMARK    9  A    between atoms: C_19  and  O_20 
ROOT
HETATM    1  C   UNK N   1      30.137  23.577  -3.982  0.00  0.00     0.106 C 
HETATM    2  C   UNK N   1      31.402  24.398  -4.209  0.00  0.00     0.035 C 
ENDROOT
BRANCH   1   3
HETATM    3  N   UNK N   1      29.567  23.132  -5.247  0.00  0.00    -0.409 N 
HETATM    4  H   UNK N   1      29.832  22.292  -5.762  0.00  0.00     0.154 HD
BRANCH   3   5
HETATM    5  C   UNK N   1      28.549  24.099  -5.647  0.00  0.00     0.097 C 
HETATM    6  C   UNK N   1      28.820  24.546  -7.066  0.00  0.00     0.034 C 
BRANCH   5   7
HETATM    7  C   UNK N   1      27.159  23.478  -5.589  0.00  0.00     0.200 C 
BRANCH   7   8
HETATM    8  O   UNK N   1      26.409  24.040  -4.577  0.00  0.00    -0.349 OA
BRANCH   8   9
HETATM    9  C   UNK N   1      26.062  25.351  -4.558  0.00  0.00     0.068 A 
HETATM   10  C   UNK N   1      25.326  25.936  -5.606  0.00  0.00     0.037 A 
HETATM   11  C   UNK N   1      24.981  27.290  -5.557  0.00  0.00     0.003 A 
HETATM   12  C   UNK N   1      25.365  28.070  -4.463  0.00  0.00     0.000 A 
HETATM   13  C   UNK N   1      26.095  27.496  -3.418  0.00  0.00     0.003 A 
HETATM   14  C   UNK N   1      26.442  26.142  -3.466  0.00  0.00     0.037 A 
ENDBRANCH   8   9
ENDBRANCH   7   8
ENDBRANCH   5   7
ENDBRANCH   3   5
ENDBRANCH   1   3
BRANCH   1  15
HETATM   15  C   UNK N   1      30.360  22.404  -3.019  0.00  0.00     0.173 C 
BRANCH  15  16
HETATM   16  O   UNK N   1      30.548  22.910  -1.730  0.00  0.00    -0.389 OA
HETATM   17  H   UNK N   1      30.098  23.677  -1.340  0.00  0.00     0.210 HD
ENDBRANCH  15  16
BRANCH  15  18
HETATM   18  C   UNK N   1      31.491  21.469  -3.402  0.00  0.00    -0.028 A 
HETATM   19  C   UNK N   1      31.311  20.515  -4.417  0.00  0.00     0.012 A 
HETATM   20  C   UNK N   1      32.355  19.665  -4.787  0.00  0.00     0.037 A 
HETATM   21  C   UNK N   1      33.592  19.759  -4.145  0.00  0.00     0.065 A 
HETATM   22  C   UNK N   1      33.783  20.706  -3.134  0.00  0.00     0.037 A 
HETATM   23  C   UNK N   1      32.738  21.561  -2.765  0.00  0.00     0.012 A 
BRANCH  21  24
HETATM   24  O   UNK N   1      34.595  18.941  -4.502  0.00  0.00    -0.361 OA
HETATM   25  H   UNK N   1      34.429  18.220  -5.078  0.00  0.00     0.217 HD
ENDBRANCH  21  24
ENDBRANCH  15  18
ENDBRANCH   1  15
TORSDOF 9
ENDMDL
