MODEL 1
REMARK VINA RESULT:      -5.5      0.000      0.000
REMARK  8 active torsions:
REMARK  status: ('A' for Active; 'I' for Inactive)
REMARK    1  A    between atoms: C_12  and  C_6 
REMARK    2  A    between atoms: C_15  and  C_7 
REMARK    3  A    between atoms: N_20  and  C_8 
REMARK    4  A    between atoms: N_20  and  C_12 
REMARK    5  A    between atoms: C_17  and  C_15 
REMARK    6  A    between atoms: N_20  and  C_15 
REMARK    7  A    between atoms: N_18  and  C_16 
REMARK    8  A    between atoms: O_21  and  C_17 
ROOT
HETATM    1  C   UNK N   1      21.469  17.567   6.084  0.00  0.00     0.150 C 
HETATM    2  N   UNK N   1      21.980  17.471   4.902  0.00  0.00    -0.338 N 
ATOM      3  HN  UNK N   1      21.854  16.589   4.404  1.00  0.00     0.168 HD
ENDROOT
BRANCH   1   4
HETATM    4  C   UNK N   1      20.739  16.385   6.671  0.00  0.00     0.296 C 
BRANCH   4   5
HETATM    5  C   UNK N   1      20.088  15.331   5.786  0.00  0.00     0.040 C 
HETATM    6  C   UNK N   1      18.771  15.834   5.225  0.00  0.00     0.007 C 
ENDBRANCH   4   5
BRANCH   4   7
HETATM    7  N   UNK N   1      20.773  16.102   8.111  0.00  0.00     0.100 NA
BRANCH   7   8
HETATM    8  C   UNK N   1      19.473  16.284   8.779  0.00  0.00     0.269 C 
HETATM    9  C   UNK N   1      19.112  17.745   9.044  0.00  0.00     0.037 C 
ENDBRANCH   7   8
BRANCH   7  10
HETATM   10  C   UNK N   1      21.362  14.780   8.333  0.00  0.00     0.273 C 
BRANCH  10  11
HETATM   11  C   UNK N   1      20.699  14.080   9.509  0.00  0.00     0.026 C 
HETATM   12  C   UNK N   1      21.696  13.176  10.200  0.00  0.00     0.007 C 
ENDBRANCH  10  11
ENDBRANCH   7  10
ENDBRANCH   4   7
ENDBRANCH   1   4
BRANCH   1  13
HETATM   13  O   UNK N   1      21.510  18.728   6.770  0.00  0.00    -0.348 OA
HETATM   14  H   UNK N   1      21.903  19.578   6.808  0.00  0.00     0.219 HD
ENDBRANCH   1  13
BRANCH   2  15
HETATM   15  C   UNK N   1      22.709  18.506   4.238  0.00  0.00     0.045 A 
HETATM   16  C   UNK N   1      22.003  19.458   3.474  0.00  0.00    -0.035 A 
HETATM   17  C   UNK N   1      20.515  19.423   3.388  0.00  0.00     0.050 C 
HETATM   18  C   UNK N   1      22.693  20.464   2.790  0.00  0.00     0.009 A 
HETATM   19  C   UNK N   1      24.084  20.528   2.848  0.00  0.00     0.001 A 
HETATM   20  C   UNK N   1      24.795  19.585   3.588  0.00  0.00     0.009 A 
HETATM   21  C   UNK N   1      24.123  18.576   4.285  0.00  0.00    -0.035 A 
HETATM   22  C   UNK N   1      24.940  17.567   5.016  0.00  0.00     0.050 C 
ENDBRANCH   2  15
TORSDOF 8
ENDMDL
MODEL 2
REMARK VINA RESULT:      -5.5      6.184      8.690
REMARK  8 active torsions:
REMARK  status: ('A' for Active; 'I' for Inactive)
REMARK    1  A    between atoms: C_12  and  C_6 
REMARK    2  A    between atoms: C_15  and  C_7 
REMARK    3  A    between atoms: N_20  and  C_8 
REMARK    4  A    between atoms: N_20  and  C_12 
REMARK    5  A    between atoms: C_17  and  C_15 
REMARK    6  A    between atoms: N_20  and  C_15 
REMARK    7  A    between atoms: N_18  and  C_16 
REMARK    8  A    between atoms: O_21  and  C_17 
ROOT
HETATM    1  C   UNK N   1      28.628  17.792   6.880  0.00  0.00     0.150 C 
HETATM    2  N   UNK N   1      28.689  18.499   5.802  0.00  0.00    -0.338 N 
ATOM      3  HN  UNK N   1      29.611  18.807   5.491  1.00  0.00     0.168 HD
ENDROOT
BRANCH   1   4
HETATM    4  C   UNK N   1      29.899  17.473   7.627  0.00  0.00     0.296 C 
BRANCH   4   5
HETATM    5  C   UNK N   1      29.913  17.312   9.141  0.00  0.00     0.040 C 
HETATM    6  C   UNK N   1      29.634  18.636   9.829  0.00  0.00     0.007 C 
ENDBRANCH   4   5
BRANCH   4   7
HETATM    7  N   UNK N   1      31.137  17.130   6.921  0.00  0.00     0.100 NA
BRANCH   7   8
HETATM    8  C   UNK N   1      32.297  16.954   7.813  0.00  0.00     0.269 C 
HETATM    9  C   UNK N   1      33.362  18.039   7.664  0.00  0.00     0.037 C 
ENDBRANCH   7   8
BRANCH   7  10
HETATM   10  C   UNK N   1      30.897  15.980   6.046  0.00  0.00     0.273 C 
BRANCH  10  11
HETATM   11  C   UNK N   1      31.727  16.079   4.777  0.00  0.00     0.026 C 
HETATM   12  C   UNK N   1      31.714  17.502   4.261  0.00  0.00     0.007 C 
ENDBRANCH  10  11
ENDBRANCH   7  10
ENDBRANCH   4   7
ENDBRANCH   1   4
BRANCH   1  13
HETATM   13  O   UNK N   1      27.460  17.269   7.307  0.00  0.00    -0.348 OA
HETATM   14  H   UNK N   1      26.834  16.586   7.167  0.00  0.00     0.219 HD
ENDBRANCH   1  13
BRANCH   2  15
HETATM   15  C   UNK N   1      27.562  18.886   5.011  0.00  0.00     0.045 A 
HETATM   16  C   UNK N   1      26.947  20.130   5.258  0.00  0.00    -0.035 A 
HETATM   17  C   UNK N   1      27.481  21.059   6.295  0.00  0.00     0.050 C 
HETATM   18  C   UNK N   1      25.826  20.520   4.519  0.00  0.00     0.009 A 
HETATM   19  C   UNK N   1      25.300  19.679   3.540  0.00  0.00     0.001 A 
HETATM   20  C   UNK N   1      25.890  18.440   3.295  0.00  0.00     0.009 A 
HETATM   21  C   UNK N   1      27.016  18.034   4.018  0.00  0.00    -0.035 A 
HETATM   22  C   UNK N   1      27.570  16.679   3.748  0.00  0.00     0.050 C 
ENDBRANCH   2  15
TORSDOF 8
ENDMDL
MODEL 3
REMARK VINA RESULT:      -5.4     14.958     17.860
REMARK  8 active torsions:
REMARK  status: ('A' for Active; 'I' for Inactive)
REMARK    1  A    between atoms: C_12  and  C_6 
REMARK    2  A    between atoms: C_15  and  C_7 
REMARK    3  A    between atoms: N_20  and  C_8 
REMARK    4  A    between atoms: N_20  and  C_12 
REMARK    5  A    between atoms: C_17  and  C_15 
REMARK    6  A    between atoms: N_20  and  C_15 
REMARK    7  A    between atoms: N_18  and  C_16 
REMARK    8  A    between atoms: O_21  and  C_17 
ROOT
HETATM    1  C   UNK N   1      36.184  13.576  13.215  0.00  0.00     0.150 C 
HETATM    2  N   UNK N   1      36.873  13.472  14.301  0.00  0.00    -0.338 N 
ATOM      3  HN  UNK N   1      37.879  13.323  14.209  1.00  0.00     0.168 HD
ENDROOT
BRANCH   1   4
HETATM    4  C   UNK N   1      36.881  13.457  11.883  0.00  0.00     0.296 C 
BRANCH   4   5
HETATM    5  C   UNK N   1      37.875  12.338  11.601  0.00  0.00     0.040 C 
HETATM    6  C   UNK N   1      37.219  10.979  11.763  0.00  0.00     0.007 C 
ENDBRANCH   4   5
BRANCH   4   7
HETATM    7  N   UNK N   1      36.507  14.302  10.743  0.00  0.00     0.100 NA
BRANCH   7   8
HETATM    8  C   UNK N   1      36.496  15.742  11.054  0.00  0.00     0.269 C 
HETATM    9  C   UNK N   1      35.175  16.437  10.724  0.00  0.00     0.037 C 
ENDBRANCH   7   8
BRANCH   7  10
HETATM   10  C   UNK N   1      37.342  13.963   9.589  0.00  0.00     0.273 C 
BRANCH  10  11
HETATM   11  C   UNK N   1      36.489  13.692   8.361  0.00  0.00     0.026 C 
HETATM   12  C   UNK N   1      35.135  13.161   8.779  0.00  0.00     0.007 C 
ENDBRANCH  10  11
ENDBRANCH   7  10
ENDBRANCH   4   7
ENDBRANCH   1   4
BRANCH   1  13
HETATM   13  O   UNK N   1      34.867  13.866  13.248  0.00  0.00    -0.348 OA
HETATM   14  H   UNK N   1      34.073  13.754  13.734  0.00  0.00     0.219 HD
ENDBRANCH   1  13
BRANCH   2  15
HETATM   15  C   UNK N   1      36.334  13.548  15.623  0.00  0.00     0.045 A 
HETATM   16  C   UNK N   1      36.592  14.695  16.402  0.00  0.00    -0.035 A 
HETATM   17  C   UNK N   1      37.374  15.838  15.851  0.00  0.00     0.050 C 
HETATM   18  C   UNK N   1      36.102  14.783  17.709  0.00  0.00     0.009 A 
HETATM   19  C   UNK N   1      35.365  13.734  18.257  0.00  0.00     0.001 A 
HETATM   20  C   UNK N   1      35.115  12.589  17.503  0.00  0.00     0.009 A 
HETATM   21  C   UNK N   1      35.590  12.484  16.192  0.00  0.00    -0.035 A 
HETATM   22  C   UNK N   1      35.336  11.215  15.455  0.00  0.00     0.050 C 
ENDBRANCH   2  15
TORSDOF 8
ENDMDL
MODEL 4
REMARK VINA RESULT:      -5.4      6.246      8.761
REMARK  8 active torsions:
REMARK  status: ('A' for Active; 'I' for Inactive)
REMARK    1  A    between atoms: C_12  and  C_6 
REMARK    2  A    between atoms: C_15  and  C_7 
REMARK    3  A    between atoms: N_20  and  C_8 
REMARK    4  A    between atoms: N_20  and  C_12 
REMARK    5  A    between atoms: C_17  and  C_15 
REMARK    6  A    between atoms: N_20  and  C_15 
REMARK    7  A    between atoms: N_18  and  C_16 
REMARK    8  A    between atoms: O_21  and  C_17 
ROOT
HETATM    1  C   UNK N   1      29.469  17.584   5.431  0.00  0.00     0.150 C 
HETATM    2  N   UNK N   1      28.225  17.693   5.759  0.00  0.00    -0.338 N 
ATOM      3  HN  UNK N   1      27.908  17.184   6.584  1.00  0.00     0.168 HD
ENDROOT
BRANCH   1   4
HETATM    4  C   UNK N   1      30.377  16.709   6.259  0.00  0.00     0.296 C 
BRANCH   4   5
HETATM    5  C   UNK N   1      30.531  15.222   5.969  0.00  0.00     0.040 C 
HETATM    6  C   UNK N   1      30.297  14.931   4.498  0.00  0.00     0.007 C 
ENDBRANCH   4   5
BRANCH   4   7
HETATM    7  N   UNK N   1      31.283  17.277   7.263  0.00  0.00     0.100 NA
BRANCH   7   8
HETATM    8  C   UNK N   1      30.728  17.274   8.628  0.00  0.00     0.269 C 
HETATM    9  C   UNK N   1      30.181  18.629   9.078  0.00  0.00     0.037 C 
ENDBRANCH   7   8
BRANCH   7  10
HETATM   10  C   UNK N   1      32.590  16.625   7.165  0.00  0.00     0.273 C 
BRANCH  10  11
HETATM   11  C   UNK N   1      33.669  17.625   6.779  0.00  0.00     0.026 C 
HETATM   12  C   UNK N   1      34.265  18.246   8.024  0.00  0.00     0.007 C 
ENDBRANCH  10  11
ENDBRANCH   7  10
ENDBRANCH   4   7
ENDBRANCH   1   4
BRANCH   1  13
HETATM   13  O   UNK N   1      29.988  18.297   4.411  0.00  0.00    -0.348 OA
HETATM   14  H   UNK N   1      30.752  18.431   3.885  0.00  0.00     0.219 HD
ENDBRANCH   1  13
BRANCH   2  15
HETATM   15  C   UNK N   1      27.258  18.474   5.052  0.00  0.00     0.045 A 
HETATM   16  C   UNK N   1      26.965  19.776   5.506  0.00  0.00    -0.035 A 
HETATM   17  C   UNK N   1      27.680  20.360   6.677  0.00  0.00     0.050 C 
HETATM   18  C   UNK N   1      26.002  20.550   4.851  0.00  0.00     0.009 A 
HETATM   19  C   UNK N   1      25.315  20.038   3.752  0.00  0.00     0.001 A 
HETATM   20  C   UNK N   1      25.584  18.747   3.301  0.00  0.00     0.009 A 
HETATM   21  C   UNK N   1      26.549  17.959   3.938  0.00  0.00    -0.035 A 
HETATM   22  C   UNK N   1      26.755  16.570   3.443  0.00  0.00     0.050 C 
ENDBRANCH   2  15
TORSDOF 8
ENDMDL
MODEL 5
REMARK VINA RESULT:      -5.3      6.107      8.588
REMARK  8 active torsions:
REMARK  status: ('A' for Active; 'I' for Inactive)
REMARK    1  A    between atoms: C_12  and  C_6 
REMARK    2  A    between atoms: C_15  and  C_7 
REMARK    3  A    between atoms: N_20  and  C_8 
REMARK    4  A    between atoms: N_20  and  C_12 
REMARK    5  A    between atoms: C_17  and  C_15 
REMARK    6  A    between atoms: N_20  and  C_15 
REMARK    7  A    between atoms: N_18  and  C_16 
REMARK    8  A    between atoms: O_21  and  C_17 
ROOT
HETATM    1  C   UNK N   1      28.674  17.755   6.746  0.00  0.00     0.150 C 
HETATM    2  N   UNK N   1      28.650  18.384   5.620  0.00  0.00    -0.338 N 
ATOM      3  HN  UNK N   1      29.544  18.573   5.165  1.00  0.00     0.168 HD
ENDROOT
BRANCH   1   4
HETATM    4  C   UNK N   1      30.002  17.353   7.339  0.00  0.00     0.296 C 
BRANCH   4   5
HETATM    5  C   UNK N   1      30.218  17.298   8.845  0.00  0.00     0.040 C 
HETATM    6  C   UNK N   1      30.008  18.664   9.472  0.00  0.00     0.007 C 
ENDBRANCH   4   5
BRANCH   4   7
HETATM    7  N   UNK N   1      31.086  16.827   6.502  0.00  0.00     0.100 NA
BRANCH   7   8
HETATM    8  C   UNK N   1      32.405  17.404   6.814  0.00  0.00     0.269 C 
HETATM    9  C   UNK N   1      33.360  17.446   5.621  0.00  0.00     0.037 C 
ENDBRANCH   7   8
BRANCH   7  10
HETATM   10  C   UNK N   1      31.067  15.363   6.543  0.00  0.00     0.273 C 
BRANCH  10  11
HETATM   11  C   UNK N   1      30.270  14.797   5.379  0.00  0.00     0.026 C 
HETATM   12  C   UNK N   1      30.799  15.351   4.074  0.00  0.00     0.007 C 
ENDBRANCH  10  11
ENDBRANCH   7  10
ENDBRANCH   4   7
ENDBRANCH   1   4
BRANCH   1  13
HETATM   13  O   UNK N   1      27.534  17.385   7.365  0.00  0.00    -0.348 OA
HETATM   14  H   UNK N   1      27.038  16.653   7.676  0.00  0.00     0.219 HD
ENDBRANCH   1  13
BRANCH   2  15
HETATM   15  C   UNK N   1      27.464  18.836   4.959  0.00  0.00     0.045 A 
HETATM   16  C   UNK N   1      26.840  17.991   4.020  0.00  0.00    -0.035 A 
HETATM   17  C   UNK N   1      27.371  16.626   3.742  0.00  0.00     0.050 C 
HETATM   18  C   UNK N   1      25.696  18.419   3.338  0.00  0.00     0.009 A 
HETATM   19  C   UNK N   1      25.171  19.689   3.573  0.00  0.00     0.001 A 
HETATM   20  C   UNK N   1      25.786  20.540   4.489  0.00  0.00     0.009 A 
HETATM   21  C   UNK N   1      26.926  20.128   5.186  0.00  0.00    -0.035 A 
HETATM   22  C   UNK N   1      27.570  21.100   6.113  0.00  0.00     0.050 C 
ENDBRANCH   2  15
TORSDOF 8
ENDMDL
MODEL 6
REMARK VINA RESULT:      -5.3      6.177      8.729
REMARK  8 active torsions:
REMARK  status: ('A' for Active; 'I' for Inactive)
REMARK    1  A    between atoms: C_12  and  C_6 
REMARK    2  A    between atoms: C_15  and  C_7 
REMARK    3  A    between atoms: N_20  and  C_8 
REMARK    4  A    between atoms: N_20  and  C_12 
REMARK    5  A    between atoms: C_17  and  C_15 
REMARK    6  A    between atoms: N_20  and  C_15 
REMARK    7  A    between atoms: N_18  and  C_16 
REMARK    8  A    between atoms: O_21  and  C_17 
ROOT
HETATM    1  C   UNK N   1      29.419  17.577   5.460  0.00  0.00     0.150 C 
HETATM    2  N   UNK N   1      28.179  17.670   5.806  0.00  0.00    -0.338 N 
ATOM      3  HN  UNK N   1      27.879  17.152   6.632  1.00  0.00     0.168 HD
ENDROOT
BRANCH   1   4
HETATM    4  C   UNK N   1      30.348  16.707   6.270  0.00  0.00     0.296 C 
BRANCH   4   5
HETATM    5  C   UNK N   1      30.509  15.222   5.973  0.00  0.00     0.040 C 
HETATM    6  C   UNK N   1      30.277  14.936   4.501  0.00  0.00     0.007 C 
ENDBRANCH   4   5
BRANCH   4   7
HETATM    7  N   UNK N   1      31.267  17.280   7.259  0.00  0.00     0.100 NA
BRANCH   7   8
HETATM    8  C   UNK N   1      30.735  17.273   8.633  0.00  0.00     0.269 C 
HETATM    9  C   UNK N   1      30.222  18.633   9.105  0.00  0.00     0.037 C 
ENDBRANCH   7   8
BRANCH   7  10
HETATM   10  C   UNK N   1      32.577  16.636   7.139  0.00  0.00     0.273 C 
BRANCH  10  11
HETATM   11  C   UNK N   1      33.648  17.647   6.764  0.00  0.00     0.026 C 
HETATM   12  C   UNK N   1      34.245  18.255   8.015  0.00  0.00     0.007 C 
ENDBRANCH  10  11
ENDBRANCH   7  10
ENDBRANCH   4   7
ENDBRANCH   1   4
BRANCH   1  13
HETATM   13  O   UNK N   1      29.916  18.302   4.437  0.00  0.00    -0.348 OA
HETATM   14  H   UNK N   1      30.071  19.171   4.122  0.00  0.00     0.219 HD
ENDBRANCH   1  13
BRANCH   2  15
HETATM   15  C   UNK N   1      27.193  18.444   5.117  0.00  0.00     0.045 A 
HETATM   16  C   UNK N   1      26.508  17.867   4.028  0.00  0.00    -0.035 A 
HETATM   17  C   UNK N   1      26.766  16.457   3.619  0.00  0.00     0.050 C 
HETATM   18  C   UNK N   1      25.560  18.611   3.319  0.00  0.00     0.009 A 
HETATM   19  C   UNK N   1      25.292  19.932   3.674  0.00  0.00     0.001 A 
HETATM   20  C   UNK N   1      25.972  20.519   4.740  0.00  0.00     0.009 A 
HETATM   21  C   UNK N   1      26.918  19.790   5.466  0.00  0.00    -0.035 A 
HETATM   22  C   UNK N   1      27.649  20.487   6.561  0.00  0.00     0.050 C 
ENDBRANCH   2  15
TORSDOF 8
ENDMDL
MODEL 7
REMARK VINA RESULT:      -5.2      6.052      8.572
REMARK  8 active torsions:
REMARK  status: ('A' for Active; 'I' for Inactive)
REMARK    1  A    between atoms: C_12  and  C_6 
REMARK    2  A    between atoms: C_15  and  C_7 
REMARK    3  A    between atoms: N_20  and  C_8 
REMARK    4  A    between atoms: N_20  and  C_12 
REMARK    5  A    between atoms: C_17  and  C_15 
REMARK    6  A    between atoms: N_20  and  C_15 
REMARK    7  A    between atoms: N_18  and  C_16 
REMARK    8  A    between atoms: O_21  and  C_17 
ROOT
HETATM    1  C   UNK N   1      28.548  17.728   4.877  0.00  0.00     0.150 C 
HETATM    2  N   UNK N   1      28.575  16.997   5.940  0.00  0.00    -0.338 N 
ATOM      3  HN  UNK N   1      27.707  16.540   6.221  1.00  0.00     0.168 HD
ENDROOT
BRANCH   1   4
HETATM    4  C   UNK N   1      27.251  17.886   4.122  0.00  0.00     0.296 C 
BRANCH   4   5
HETATM    5  C   UNK N   1      26.502  16.682   3.567  0.00  0.00     0.040 C 
HETATM    6  C   UNK N   1      27.419  15.814   2.726  0.00  0.00     0.007 C 
ENDBRANCH   4   5
BRANCH   4   7
HETATM    7  N   UNK N   1      26.565  19.180   4.040  0.00  0.00     0.100 NA
BRANCH   7   8
HETATM    8  C   UNK N   1      25.367  19.160   3.183  0.00  0.00     0.269 C 
HETATM    9  C   UNK N   1      24.938  20.539   2.686  0.00  0.00     0.037 C 
ENDBRANCH   7   8
BRANCH   7  10
HETATM   10  C   UNK N   1      26.305  19.680   5.392  0.00  0.00     0.273 C 
BRANCH  10  11
HETATM   11  C   UNK N   1      27.143  20.913   5.686  0.00  0.00     0.026 C 
HETATM   12  C   UNK N   1      26.497  21.725   6.789  0.00  0.00     0.007 C 
ENDBRANCH  10  11
ENDBRANCH   7  10
ENDBRANCH   4   7
ENDBRANCH   1   4
BRANCH   1  13
HETATM   13  O   UNK N   1      29.672  18.291   4.387  0.00  0.00    -0.348 OA
HETATM   14  H   UNK N   1      30.300  18.974   4.513  0.00  0.00     0.219 HD
ENDBRANCH   1  13
BRANCH   2  15
HETATM   15  C   UNK N   1      29.730  16.779   6.755  0.00  0.00     0.045 A 
HETATM   16  C   UNK N   1      29.949  17.616   7.868  0.00  0.00    -0.035 A 
HETATM   17  C   UNK N   1      28.976  18.686   8.228  0.00  0.00     0.050 C 
HETATM   18  C   UNK N   1      31.085  17.444   8.665  0.00  0.00     0.009 A 
HETATM   19  C   UNK N   1      32.016  16.452   8.360  0.00  0.00     0.001 A 
HETATM   20  C   UNK N   1      31.818  15.627   7.254  0.00  0.00     0.009 A 
HETATM   21  C   UNK N   1      30.685  15.778   6.449  0.00  0.00    -0.035 A 
HETATM   22  C   UNK N   1      30.555  14.902   5.252  0.00  0.00     0.050 C 
ENDBRANCH   2  15
TORSDOF 8
ENDMDL
MODEL 8
REMARK VINA RESULT:      -5.2     15.846     18.395
REMARK  8 active torsions:
REMARK  status: ('A' for Active; 'I' for Inactive)
REMARK    1  A    between atoms: C_12  and  C_6 
REMARK    2  A    between atoms: C_15  and  C_7 
REMARK    3  A    between atoms: N_20  and  C_8 
REMARK    4  A    between atoms: N_20  and  C_12 
REMARK    5  A    between atoms: C_17  and  C_15 
REMARK    6  A    between atoms: N_20  and  C_15 
REMARK    7  A    between atoms: N_18  and  C_16 
REMARK    8  A    between atoms: O_21  and  C_17 
ROOT
HETATM    1  C   UNK N   1      36.270  12.907  14.674  0.00  0.00     0.150 C 
HETATM    2  N   UNK N   1      35.218  12.668  15.382  0.00  0.00    -0.338 N 
ATOM      3  HN  UNK N   1      34.313  12.921  14.983  1.00  0.00     0.168 HD
ENDROOT
BRANCH   1   4
HETATM    4  C   UNK N   1      36.118  13.555  13.320  0.00  0.00     0.296 C 
BRANCH   4   5
HETATM    5  C   UNK N   1      36.191  15.066  13.147  0.00  0.00     0.040 C 
HETATM    6  C   UNK N   1      35.728  15.475  11.761  0.00  0.00     0.007 C 
ENDBRANCH   4   5
BRANCH   4   7
HETATM    7  N   UNK N   1      36.071  12.756  12.090  0.00  0.00     0.100 NA
BRANCH   7   8
HETATM    8  C   UNK N   1      37.336  12.066  11.785  0.00  0.00     0.269 C 
HETATM    9  C   UNK N   1      38.233  12.822  10.805  0.00  0.00     0.037 C 
ENDBRANCH   7   8
BRANCH   7  10
HETATM   10  C   UNK N   1      34.915  11.858  12.136  0.00  0.00     0.273 C 
BRANCH  10  11
HETATM   11  C   UNK N   1      35.346  10.408  11.985  0.00  0.00     0.026 C 
HETATM   12  C   UNK N   1      34.132   9.526  11.787  0.00  0.00     0.007 C 
ENDBRANCH  10  11
ENDBRANCH   7  10
ENDBRANCH   4   7
ENDBRANCH   1   4
BRANCH   1  13
HETATM   13  O   UNK N   1      37.494  12.520  15.088  0.00  0.00    -0.348 OA
HETATM   14  H   UNK N   1      38.254  12.781  15.571  0.00  0.00     0.219 HD
ENDBRANCH   1  13
BRANCH   2  15
HETATM   15  C   UNK N   1      35.224  12.077  16.684  0.00  0.00     0.045 A 
HETATM   16  C   UNK N   1      35.071  10.681  16.802  0.00  0.00    -0.035 A 
HETATM   17  C   UNK N   1      34.951   9.816  15.593  0.00  0.00     0.050 C 
HETATM   18  C   UNK N   1      35.044  10.079  18.064  0.00  0.00     0.009 A 
HETATM   19  C   UNK N   1      35.156  10.856  19.216  0.00  0.00     0.001 A 
HETATM   20  C   UNK N   1      35.293  12.239  19.115  0.00  0.00     0.009 A 
HETATM   21  C   UNK N   1      35.329  12.858  17.862  0.00  0.00    -0.035 A 
HETATM   22  C   UNK N   1      35.425  14.344  17.818  0.00  0.00     0.050 C 
ENDBRANCH   2  15
TORSDOF 8
ENDMDL
MODEL 9
REMARK VINA RESULT:      -5.2     14.291     15.975
REMARK  8 active torsions:
REMARK  status: ('A' for Active; 'I' for Inactive)
REMARK    1  A    between atoms: C_12  and  C_6 
REMARK    2  A    between atoms: C_15  and  C_7 
REMARK    3  A    between atoms: N_20  and  C_8 
REMARK    4  A    between atoms: N_20  and  C_12 
REMARK    5  A    between atoms: C_17  and  C_15 
REMARK    6  A    between atoms: N_20  and  C_15 
REMARK    7  A    between atoms: N_18  and  C_16 
REMARK    8  A    between atoms: O_21  and  C_17 
ROOT
HETATM    1  C   UNK N   1      35.484  12.872  12.669  0.00  0.00     0.150 C 
HETATM    2  N   UNK N   1      34.536  13.381  11.957  0.00  0.00    -0.338 N 
ATOM      3  HN  UNK N   1      33.620  13.487  12.395  1.00  0.00     0.168 HD
ENDROOT
BRANCH   1   4
HETATM    4  C   UNK N   1      35.195  12.446  14.087  0.00  0.00     0.296 C 
BRANCH   4   5
HETATM    5  C   UNK N   1      34.986  10.982  14.451  0.00  0.00     0.040 C 
HETATM    6  C   UNK N   1      33.715  10.443  13.821  0.00  0.00     0.007 C 
ENDBRANCH   4   5
BRANCH   4   7
HETATM    7  N   UNK N   1      35.276  13.393  15.204  0.00  0.00     0.100 NA
BRANCH   7   8
HETATM    8  C   UNK N   1      34.492  12.986  16.382  0.00  0.00     0.269 C 
HETATM    9  C   UNK N   1      35.137  13.364  17.716  0.00  0.00     0.037 C 
ENDBRANCH   7   8
BRANCH   7  10
HETATM   10  C   UNK N   1      36.682  13.670  15.507  0.00  0.00     0.273 C 
BRANCH  10  11
HETATM   11  C   UNK N   1      37.054  15.090  15.115  0.00  0.00     0.026 C 
HETATM   12  C   UNK N   1      37.469  15.873  16.342  0.00  0.00     0.007 C 
ENDBRANCH  10  11
ENDBRANCH   7  10
ENDBRANCH   4   7
ENDBRANCH   1   4
BRANCH   1  13
HETATM   13  O   UNK N   1      36.744  12.785  12.196  0.00  0.00    -0.348 OA
HETATM   14  H   UNK N   1      37.295  12.360  11.568  0.00  0.00     0.219 HD
ENDBRANCH   1  13
BRANCH   2  15
HETATM   15  C   UNK N   1      34.671  13.809  10.599  0.00  0.00     0.045 A 
HETATM   16  C   UNK N   1      34.464  12.876   9.563  0.00  0.00    -0.035 A 
HETATM   17  C   UNK N   1      34.065  11.471   9.864  0.00  0.00     0.050 C 
HETATM   18  C   UNK N   1      34.618  13.259   8.228  0.00  0.00     0.009 A 
HETATM   19  C   UNK N   1      34.989  14.565   7.909  0.00  0.00     0.001 A 
HETATM   20  C   UNK N   1      35.210  15.494   8.923  0.00  0.00     0.009 A 
HETATM   21  C   UNK N   1      35.054  15.132  10.264  0.00  0.00    -0.035 A 
HETATM   22  C   UNK N   1      35.355  16.154  11.305  0.00  0.00     0.050 C 
ENDBRANCH   2  15
TORSDOF 8
ENDMDL
