MODEL 1
REMARK VINA RESULT:      -7.4      0.000      0.000
REMARK  4 active torsions:
REMARK  status: ('A' for Active; 'I' for Inactive)
REMARK    1  A    between atoms: C_14  and  C_9 
REMARK    2  A    between atoms: C_14  and  C_10 
REMARK       I    between atoms: N_21  and  C_15 
REMARK    3  A    between atoms: O_24  and  C_16 
REMARK    4  A    between atoms: O_25  and  C_16 
ROOT
HETATM    1  C   UNK N   1      32.469  17.281   6.501  0.00  0.00     0.018 A 
HETATM    2  C   UNK N   1      33.632  17.239   7.282  0.00  0.00     0.033 A 
HETATM    3  C   UNK N   1      31.278  15.886   8.120  0.00  0.00     0.048 A 
HETATM    4  C   UNK N   1      31.283  16.610   6.901  0.00  0.00     0.017 A 
HETATM    5  C   UNK N   1      33.581  16.505   8.454  0.00  0.00     0.076 A 
HETATM    6  C   UNK N   1      32.459  15.853   8.860  0.00  0.00     0.077 A 
HETATM    7  C   UNK N   1      34.000  15.516  10.281  0.00  0.00     0.686 A 
HETATM    8  C   UNK N   1      35.907  15.339  11.733  0.00  0.00     0.276 C 
HETATM    9  N   UNK N   1      34.566  16.309   9.336  0.00  0.00    -0.189 N 
ATOM     10  HN  UNK N   1      35.519  16.672   9.306  1.00  0.00     0.184 HD
HETATM   11  N   UNK N   1      32.702  15.216  10.017  0.00  0.00    -0.189 N 
HETATM   12  N   UNK N   1      34.689  15.030  11.427  0.00  0.00    -0.149 N 
ATOM     13  HN  UNK N   1      34.188  14.397  12.050  1.00  0.00     0.188 HD
HETATM   14  H   UNK N   1      32.086  14.662  10.549  0.00  0.00     0.184 HD
ENDROOT
BRANCH   4  15
HETATM   15  C   UNK N   1      30.052  16.665   6.056  0.00  0.00     0.192 C 
HETATM   16  O   UNK N   1      29.781  15.699   5.353  0.00  0.00    -0.287 OA
BRANCH  15  17
HETATM   17  C   UNK N   1      29.149  17.858   6.012  0.00  0.00     0.015 A 
HETATM   18  C   UNK N   1      28.830  18.451   4.780  0.00  0.00     0.018 A 
HETATM   19  C   UNK N   1      28.014  19.587   4.730  0.00  0.00     0.043 A 
HETATM   20  C   UNK N   1      27.521  20.150   5.910  0.00  0.00     0.116 A 
HETATM   21  C   UNK N   1      27.838  19.575   7.140  0.00  0.00     0.043 A 
HETATM   22  F   UNK N   1      26.737  21.253   5.865  0.00  0.00    -0.206 F 
HETATM   23  C   UNK N   1      28.645  18.438   7.188  0.00  0.00     0.018 A 
ENDBRANCH  15  17
ENDBRANCH   4  15
BRANCH   8  24
HETATM   24  O   UNK N   1      36.626  16.186  10.961  0.00  0.00    -0.326 OA
HETATM   25  H   UNK N   1      37.561  16.212  11.015  0.00  0.00     0.221 HD
ENDBRANCH   8  24
BRANCH   8  26
HETATM   26  O   UNK N   1      36.460  14.809  12.847  0.00  0.00    -0.321 OA
HETATM   27  C   UNK N   1      35.841  13.810  13.559  0.00  0.00     0.213 C 
ENDBRANCH   8  26
TORSDOF 4
ENDMDL
MODEL 2
REMARK VINA RESULT:      -7.4      4.911      9.800
REMARK  4 active torsions:
REMARK  status: ('A' for Active; 'I' for Inactive)
REMARK    1  A    between atoms: C_14  and  C_9 
REMARK    2  A    between atoms: C_14  and  C_10 
REMARK       I    between atoms: N_21  and  C_15 
REMARK    3  A    between atoms: O_24  and  C_16 
REMARK    4  A    between atoms: O_25  and  C_16 
ROOT
HETATM    1  C   UNK N   1      37.212  12.949  11.698  0.00  0.00     0.018 A 
HETATM    2  C   UNK N   1      37.019  13.422  10.393  0.00  0.00     0.033 A 
HETATM    3  C   UNK N   1      35.575  14.546  12.568  0.00  0.00     0.048 A 
HETATM    4  C   UNK N   1      36.503  13.499  12.799  0.00  0.00     0.017 A 
HETATM    5  C   UNK N   1      36.115  14.456  10.222  0.00  0.00     0.076 A 
HETATM    6  C   UNK N   1      35.423  15.001  11.259  0.00  0.00     0.077 A 
HETATM    7  C   UNK N   1      34.884  16.008   9.469  0.00  0.00     0.686 A 
HETATM    8  C   UNK N   1      34.436  16.936   7.297  0.00  0.00     0.276 C 
HETATM    9  N   UNK N   1      35.790  15.073   9.082  0.00  0.00    -0.189 N 
ATOM     10  HN  UNK N   1      36.140  14.885   8.143  1.00  0.00     0.184 HD
HETATM   11  N   UNK N   1      34.636  15.990  10.804  0.00  0.00    -0.189 N 
HETATM   12  N   UNK N   1      34.261  16.926   8.579  0.00  0.00    -0.149 N 
ATOM     13  HN  UNK N   1      33.633  17.624   8.978  1.00  0.00     0.188 HD
HETATM   14  H   UNK N   1      34.024  16.565  11.317  0.00  0.00     0.184 HD
ENDROOT
BRANCH   4  15
HETATM   15  C   UNK N   1      36.722  12.984  14.184  0.00  0.00     0.192 C 
HETATM   16  O   UNK N   1      36.987  11.797  14.331  0.00  0.00    -0.287 OA
BRANCH  15  17
HETATM   17  C   UNK N   1      36.608  13.848  15.400  0.00  0.00     0.015 A 
HETATM   18  C   UNK N   1      35.733  13.487  16.437  0.00  0.00     0.018 A 
HETATM   19  C   UNK N   1      35.593  14.305  17.565  0.00  0.00     0.043 A 
HETATM   20  C   UNK N   1      36.315  15.498  17.660  0.00  0.00     0.116 A 
HETATM   21  C   UNK N   1      37.180  15.871  16.633  0.00  0.00     0.043 A 
HETATM   22  F   UNK N   1      36.176  16.296  18.745  0.00  0.00    -0.206 F 
HETATM   23  C   UNK N   1      37.325  15.051  15.513  0.00  0.00     0.018 A 
ENDBRANCH  15  17
ENDBRANCH   4  15
BRANCH   8  24
HETATM   24  O   UNK N   1      35.243  16.030   6.697  0.00  0.00    -0.326 OA
HETATM   25  H   UNK N   1      35.991  15.683   7.141  0.00  0.00     0.221 HD
ENDBRANCH   8  24
BRANCH   8  26
HETATM   26  O   UNK N   1      33.795  17.864   6.552  0.00  0.00    -0.321 OA
HETATM   27  C   UNK N   1      33.209  17.549   5.350  0.00  0.00     0.213 C 
ENDBRANCH   8  26
TORSDOF 4
ENDMDL
MODEL 3
REMARK VINA RESULT:      -7.3      2.361      3.318
REMARK  4 active torsions:
REMARK  status: ('A' for Active; 'I' for Inactive)
REMARK    1  A    between atoms: C_14  and  C_9 
REMARK    2  A    between atoms: C_14  and  C_10 
REMARK       I    between atoms: N_21  and  C_15 
REMARK    3  A    between atoms: O_24  and  C_16 
REMARK    4  A    between atoms: O_25  and  C_16 
ROOT
HETATM    1  C   UNK N   1      32.770  15.476   8.428  0.00  0.00     0.018 A 
HETATM    2  C   UNK N   1      32.980  14.742   9.603  0.00  0.00     0.033 A 
HETATM    3  C   UNK N   1      34.764  16.826   8.861  0.00  0.00     0.048 A 
HETATM    4  C   UNK N   1      33.648  16.523   8.040  0.00  0.00     0.017 A 
HETATM    5  C   UNK N   1      34.073  15.087  10.378  0.00  0.00     0.076 A 
HETATM    6  C   UNK N   1      34.930  16.086  10.030  0.00  0.00     0.077 A 
HETATM    7  C   UNK N   1      35.561  15.251  11.878  0.00  0.00     0.686 A 
HETATM    8  C   UNK N   1      36.064  14.095  13.924  0.00  0.00     0.276 C 
HETATM    9  N   UNK N   1      34.453  14.545  11.538  0.00  0.00    -0.189 N 
ATOM     10  HN  UNK N   1      34.013  13.778  12.049  1.00  0.00     0.184 HD
HETATM   11  N   UNK N   1      35.882  16.209  10.970  0.00  0.00    -0.189 N 
HETATM   12  N   UNK N   1      36.312  15.030  13.066  0.00  0.00    -0.149 N 
ATOM     13  HN  UNK N   1      37.099  15.651  13.254  1.00  0.00     0.188 HD
HETATM   14  H   UNK N   1      36.634  16.843  10.994  0.00  0.00     0.184 HD
ENDROOT
BRANCH   4  15
HETATM   15  C   UNK N   1      33.409  17.296   6.784  0.00  0.00     0.192 C 
HETATM   16  O   UNK N   1      34.303  18.019   6.363  0.00  0.00    -0.287 OA
BRANCH  15  17
HETATM   17  C   UNK N   1      32.116  17.244   6.032  0.00  0.00     0.015 A 
HETATM   18  C   UNK N   1      32.124  17.162   4.630  0.00  0.00     0.018 A 
HETATM   19  C   UNK N   1      30.921  17.147   3.913  0.00  0.00     0.043 A 
HETATM   20  C   UNK N   1      29.700  17.228   4.590  0.00  0.00     0.116 A 
HETATM   21  C   UNK N   1      29.680  17.318   5.980  0.00  0.00     0.043 A 
HETATM   22  F   UNK N   1      28.536  17.222   3.899  0.00  0.00    -0.206 F 
HETATM   23  C   UNK N   1      30.879  17.325   6.694  0.00  0.00     0.018 A 
ENDBRANCH  15  17
ENDBRANCH   4  15
BRANCH   8  24
HETATM   24  O   UNK N   1      35.045  13.225  13.731  0.00  0.00    -0.326 OA
HETATM   25  H   UNK N   1      35.157  12.308  13.889  0.00  0.00     0.221 HD
ENDBRANCH   8  24
BRANCH   8  26
HETATM   26  O   UNK N   1      36.843  13.986  15.024  0.00  0.00    -0.321 OA
HETATM   27  C   UNK N   1      37.236  15.087  15.744  0.00  0.00     0.213 C 
ENDBRANCH   8  26
TORSDOF 4
ENDMDL
MODEL 4
REMARK VINA RESULT:      -7.3      2.149      3.340
REMARK  4 active torsions:
REMARK  status: ('A' for Active; 'I' for Inactive)
REMARK    1  A    between atoms: C_14  and  C_9 
REMARK    2  A    between atoms: C_14  and  C_10 
REMARK       I    between atoms: N_21  and  C_15 
REMARK    3  A    between atoms: O_24  and  C_16 
REMARK    4  A    between atoms: O_25  and  C_16 
ROOT
HETATM    1  C   UNK N   1      34.615  17.112   9.362  0.00  0.00     0.018 A 
HETATM    2  C   UNK N   1      35.400  16.850  10.493  0.00  0.00     0.033 A 
HETATM    3  C   UNK N   1      33.436  14.985   9.630  0.00  0.00     0.048 A 
HETATM    4  C   UNK N   1      33.630  16.192   8.913  0.00  0.00     0.017 A 
HETATM    5  C   UNK N   1      35.184  15.651  11.149  0.00  0.00     0.076 A 
HETATM    6  C   UNK N   1      34.247  14.752  10.740  0.00  0.00     0.077 A 
HETATM    7  C   UNK N   1      35.244  13.977  12.448  0.00  0.00     0.686 A 
HETATM    8  C   UNK N   1      36.505  13.371  14.402  0.00  0.00     0.276 C 
HETATM    9  N   UNK N   1      35.823  15.185  12.226  0.00  0.00    -0.189 N 
ATOM     10  HN  UNK N   1      36.570  15.632  12.757  1.00  0.00     0.184 HD
HETATM   11  N   UNK N   1      34.269  13.680  11.550  0.00  0.00    -0.189 N 
HETATM   12  N   UNK N   1      35.618  13.097  13.501  0.00  0.00    -0.149 N 
ATOM     13  HN  UNK N   1      35.156  12.189  13.550  1.00  0.00     0.188 HD
HETATM   14  H   UNK N   1      33.711  12.871  11.503  0.00  0.00     0.184 HD
ENDROOT
BRANCH   4  15
HETATM   15  C   UNK N   1      32.803  16.488   7.705  0.00  0.00     0.192 C 
HETATM   16  O   UNK N   1      33.243  16.181   6.604  0.00  0.00    -0.287 OA
BRANCH  15  17
HETATM   17  C   UNK N   1      31.470  17.164   7.779  0.00  0.00     0.015 A 
HETATM   18  C   UNK N   1      31.203  18.078   8.811  0.00  0.00     0.018 A 
HETATM   19  C   UNK N   1      29.949  18.692   8.910  0.00  0.00     0.043 A 
HETATM   20  C   UNK N   1      28.945  18.388   7.986  0.00  0.00     0.116 A 
HETATM   21  C   UNK N   1      29.195  17.475   6.962  0.00  0.00     0.043 A 
HETATM   22  F   UNK N   1      27.728  18.974   8.084  0.00  0.00    -0.206 F 
HETATM   23  C   UNK N   1      30.448  16.871   6.861  0.00  0.00     0.018 A 
ENDBRANCH  15  17
ENDBRANCH   4  15
BRANCH   8  24
HETATM   24  O   UNK N   1      37.146  14.563  14.409  0.00  0.00    -0.326 OA
HETATM   25  H   UNK N   1      38.023  14.637  14.728  0.00  0.00     0.221 HD
ENDBRANCH   8  24
BRANCH   8  26
HETATM   26  O   UNK N   1      36.784  12.451  15.353  0.00  0.00    -0.321 OA
HETATM   27  C   UNK N   1      35.846  12.055  16.275  0.00  0.00     0.213 C 
ENDBRANCH   8  26
TORSDOF 4
ENDMDL
MODEL 5
REMARK VINA RESULT:      -7.3      6.289     10.678
REMARK  4 active torsions:
REMARK  status: ('A' for Active; 'I' for Inactive)
REMARK    1  A    between atoms: C_14  and  C_9 
REMARK    2  A    between atoms: C_14  and  C_10 
REMARK       I    between atoms: N_21  and  C_15 
REMARK    3  A    between atoms: O_24  and  C_16 
REMARK    4  A    between atoms: O_25  and  C_16 
ROOT
HETATM    1  C   UNK N   1      27.666  20.052   4.434  0.00  0.00     0.018 A 
HETATM    2  C   UNK N   1      26.524  20.682   3.923  0.00  0.00     0.033 A 
HETATM    3  C   UNK N   1      26.399  18.005   4.869  0.00  0.00     0.048 A 
HETATM    4  C   UNK N   1      27.624  18.716   4.914  0.00  0.00     0.017 A 
HETATM    5  C   UNK N   1      25.348  19.952   3.916  0.00  0.00     0.076 A 
HETATM    6  C   UNK N   1      25.280  18.671   4.369  0.00  0.00     0.077 A 
HETATM    7  C   UNK N   1      23.350  19.274   3.721  0.00  0.00     0.686 A 
HETATM    8  C   UNK N   1      21.300  20.206   2.881  0.00  0.00     0.276 C 
HETATM    9  N   UNK N   1      24.143  20.353   3.499  0.00  0.00    -0.189 N 
ATOM     10  HN  UNK N   1      23.882  21.257   3.106  1.00  0.00     0.184 HD
HETATM   11  N   UNK N   1      24.020  18.221   4.257  0.00  0.00    -0.189 N 
HETATM   12  N   UNK N   1      21.956  19.240   3.438  0.00  0.00    -0.149 N 
ATOM     13  HN  UNK N   1      21.439  18.398   3.690  1.00  0.00     0.188 HD
HETATM   14  H   UNK N   1      23.665  17.336   4.504  0.00  0.00     0.184 HD
ENDROOT
BRANCH   4  15
HETATM   15  C   UNK N   1      28.852  18.059   5.456  0.00  0.00     0.192 C 
HETATM   16  O   UNK N   1      29.710  17.682   4.668  0.00  0.00    -0.287 OA
BRANCH  15  17
HETATM   17  C   UNK N   1      29.067  17.819   6.917  0.00  0.00     0.015 A 
HETATM   18  C   UNK N   1      30.225  17.156   7.356  0.00  0.00     0.018 A 
HETATM   19  C   UNK N   1      30.422  16.897   8.718  0.00  0.00     0.043 A 
HETATM   20  C   UNK N   1      29.457  17.284   9.652  0.00  0.00     0.116 A 
HETATM   21  C   UNK N   1      28.299  17.935   9.228  0.00  0.00     0.043 A 
HETATM   22  F   UNK N   1      29.640  17.028  10.969  0.00  0.00    -0.206 F 
HETATM   23  C   UNK N   1      28.109  18.200   7.871  0.00  0.00     0.018 A 
ENDBRANCH  15  17
ENDBRANCH   4  15
BRANCH   8  24
HETATM   24  O   UNK N   1      21.924  21.347   2.505  0.00  0.00    -0.326 OA
HETATM   25  H   UNK N   1      22.539  21.349   1.798  0.00  0.00     0.221 HD
ENDBRANCH   8  24
BRANCH   8  26
HETATM   26  O   UNK N   1      19.973  20.063   2.668  0.00  0.00    -0.321 OA
HETATM   27  C   UNK N   1      19.368  18.829   2.670  0.00  0.00     0.213 C 
ENDBRANCH   8  26
TORSDOF 4
ENDMDL
MODEL 6
REMARK VINA RESULT:      -7.3      6.449     11.973
REMARK  4 active torsions:
REMARK  status: ('A' for Active; 'I' for Inactive)
REMARK    1  A    between atoms: C_14  and  C_9 
REMARK    2  A    between atoms: C_14  and  C_10 
REMARK       I    between atoms: N_21  and  C_15 
REMARK    3  A    between atoms: O_24  and  C_16 
REMARK    4  A    between atoms: O_25  and  C_16 
ROOT
HETATM    1  C   UNK N   1      34.676  10.776  14.908  0.00  0.00     0.018 A 
HETATM    2  C   UNK N   1      34.238  11.614  13.874  0.00  0.00     0.033 A 
HETATM    3  C   UNK N   1      36.611  12.216  15.316  0.00  0.00     0.048 A 
HETATM    4  C   UNK N   1      35.861  11.057  15.639  0.00  0.00     0.017 A 
HETATM    5  C   UNK N   1      35.014  12.723  13.586  0.00  0.00     0.076 A 
HETATM    6  C   UNK N   1      36.152  13.016  14.270  0.00  0.00     0.077 A 
HETATM    7  C   UNK N   1      35.854  14.489  12.771  0.00  0.00     0.686 A 
HETATM    8  C   UNK N   1      35.246  16.027  11.026  0.00  0.00     0.276 C 
HETATM    9  N   UNK N   1      34.804  13.640  12.637  0.00  0.00    -0.189 N 
ATOM     10  HN  UNK N   1      34.034  13.690  11.969  1.00  0.00     0.184 HD
HETATM   11  N   UNK N   1      36.704  14.133  13.768  0.00  0.00    -0.189 N 
HETATM   12  N   UNK N   1      36.062  15.632  11.950  0.00  0.00    -0.149 N 
ATOM     13  HN  UNK N   1      36.911  16.177  12.098  1.00  0.00     0.188 HD
HETATM   14  H   UNK N   1      37.529  14.586  14.056  0.00  0.00     0.184 HD
ENDROOT
BRANCH   4  15
HETATM   15  C   UNK N   1      36.314  10.153  16.738  0.00  0.00     0.192 C 
HETATM   16  O   UNK N   1      37.307   9.461  16.555  0.00  0.00    -0.287 OA
BRANCH  15  17
HETATM   17  C   UNK N   1      35.593  10.038  18.045  0.00  0.00     0.015 A 
HETATM   18  C   UNK N   1      34.642   9.022  18.234  0.00  0.00     0.018 A 
HETATM   19  C   UNK N   1      33.938   8.925  19.440  0.00  0.00     0.043 A 
HETATM   20  C   UNK N   1      34.166   9.850  20.462  0.00  0.00     0.116 A 
HETATM   21  C   UNK N   1      35.101  10.868  20.283  0.00  0.00     0.043 A 
HETATM   22  F   UNK N   1      33.480   9.764  21.627  0.00  0.00    -0.206 F 
HETATM   23  C   UNK N   1      35.808  10.959  19.084  0.00  0.00     0.018 A 
ENDBRANCH  15  17
ENDBRANCH   4  15
BRANCH   8  24
HETATM   24  O   UNK N   1      34.092  15.362  10.785  0.00  0.00    -0.326 OA
HETATM   25  H   UNK N   1      33.271  15.812  10.767  0.00  0.00     0.221 HD
ENDBRANCH   8  24
BRANCH   8  26
HETATM   26  O   UNK N   1      35.554  17.127  10.302  0.00  0.00    -0.321 OA
HETATM   27  C   UNK N   1      34.828  17.490   9.194  0.00  0.00     0.213 C 
ENDBRANCH   8  26
TORSDOF 4
ENDMDL
MODEL 7
REMARK VINA RESULT:      -7.2      5.014      9.737
REMARK  4 active torsions:
REMARK  status: ('A' for Active; 'I' for Inactive)
REMARK    1  A    between atoms: C_14  and  C_9 
REMARK    2  A    between atoms: C_14  and  C_10 
REMARK       I    between atoms: N_21  and  C_15 
REMARK    3  A    between atoms: O_24  and  C_16 
REMARK    4  A    between atoms: O_25  and  C_16 
ROOT
HETATM    1  C   UNK N   1      36.640  13.535  11.597  0.00  0.00     0.018 A 
HETATM    2  C   UNK N   1      36.466  13.786  10.229  0.00  0.00     0.033 A 
HETATM    3  C   UNK N   1      35.355  15.536  12.174  0.00  0.00     0.048 A 
HETATM    4  C   UNK N   1      36.096  14.398  12.584  0.00  0.00     0.017 A 
HETATM    5  C   UNK N   1      35.750  14.917   9.879  0.00  0.00     0.076 A 
HETATM    6  C   UNK N   1      35.218  15.761  10.805  0.00  0.00     0.077 A 
HETATM    7  C   UNK N   1      34.773  16.500   8.865  0.00  0.00     0.686 A 
HETATM    8  C   UNK N   1      34.384  17.077   6.564  0.00  0.00     0.276 C 
HETATM    9  N   UNK N   1      35.480  15.362   8.649  0.00  0.00    -0.189 N 
ATOM     10  HN  UNK N   1      35.743  14.943   7.756  1.00  0.00     0.184 HD
HETATM   11  N   UNK N   1      34.594  16.775  10.183  0.00  0.00    -0.189 N 
HETATM   12  N   UNK N   1      34.275  17.336   7.827  0.00  0.00    -0.149 N 
ATOM     13  HN  UNK N   1      33.801  18.198   8.096  1.00  0.00     0.188 HD
HETATM   14  H   UNK N   1      34.120  17.537  10.587  0.00  0.00     0.184 HD
ENDROOT
BRANCH   4  15
HETATM   15  C   UNK N   1      36.292  14.117  14.038  0.00  0.00     0.192 C 
HETATM   16  O   UNK N   1      36.898  14.936  14.717  0.00  0.00    -0.287 OA
BRANCH  15  17
HETATM   17  C   UNK N   1      35.802  12.865  14.697  0.00  0.00     0.015 A 
HETATM   18  C   UNK N   1      34.573  12.304  14.310  0.00  0.00     0.018 A 
HETATM   19  C   UNK N   1      34.089  11.152  14.942  0.00  0.00     0.043 A 
HETATM   20  C   UNK N   1      34.820  10.559  15.976  0.00  0.00     0.116 A 
HETATM   21  C   UNK N   1      36.036  11.112  16.374  0.00  0.00     0.043 A 
HETATM   22  F   UNK N   1      34.350   9.450  16.594  0.00  0.00    -0.206 F 
HETATM   23  C   UNK N   1      36.521  12.255  15.738  0.00  0.00     0.018 A 
ENDBRANCH  15  17
ENDBRANCH   4  15
BRANCH   8  24
HETATM   24  O   UNK N   1      34.987  15.944   6.135  0.00  0.00    -0.326 OA
HETATM   25  H   UNK N   1      34.556  15.115   6.197  0.00  0.00     0.221 HD
ENDBRANCH   8  24
BRANCH   8  26
HETATM   26  O   UNK N   1      33.878  17.952   5.666  0.00  0.00    -0.321 OA
HETATM   27  C   UNK N   1      32.998  17.558   4.688  0.00  0.00     0.213 C 
ENDBRANCH   8  26
TORSDOF 4
ENDMDL
MODEL 8
REMARK VINA RESULT:      -7.1      6.462     10.638
REMARK  4 active torsions:
REMARK  status: ('A' for Active; 'I' for Inactive)
REMARK    1  A    between atoms: C_14  and  C_9 
REMARK    2  A    between atoms: C_14  and  C_10 
REMARK       I    between atoms: N_21  and  C_15 
REMARK    3  A    between atoms: O_24  and  C_16 
REMARK    4  A    between atoms: O_25  and  C_16 
ROOT
HETATM    1  C   UNK N   1      27.941  19.801   4.782  0.00  0.00     0.018 A 
HETATM    2  C   UNK N   1      26.849  20.530   4.292  0.00  0.00     0.033 A 
HETATM    3  C   UNK N   1      26.590  17.764   4.892  0.00  0.00     0.048 A 
HETATM    4  C   UNK N   1      27.832  18.419   5.090  0.00  0.00     0.017 A 
HETATM    5  C   UNK N   1      25.655  19.850   4.132  0.00  0.00     0.076 A 
HETATM    6  C   UNK N   1      25.523  18.527   4.419  0.00  0.00     0.077 A 
HETATM    7  C   UNK N   1      23.652  19.273   3.747  0.00  0.00     0.686 A 
HETATM    8  C   UNK N   1      21.683  20.375   2.920  0.00  0.00     0.276 C 
HETATM    9  N   UNK N   1      24.489  20.342   3.704  0.00  0.00    -0.189 N 
ATOM     10  HN  UNK N   1      24.277  21.296   3.412  1.00  0.00     0.184 HD
HETATM   11  N   UNK N   1      24.258  18.139   4.184  0.00  0.00    -0.189 N 
HETATM   12  N   UNK N   1      22.277  19.325   3.388  0.00  0.00    -0.149 N 
ATOM     13  HN  UNK N   1      21.722  18.478   3.506  1.00  0.00     0.188 HD
HETATM   14  H   UNK N   1      23.864  17.245   4.301  0.00  0.00     0.184 HD
ENDROOT
BRANCH   4  15
HETATM   15  C   UNK N   1      29.006  17.657   5.612  0.00  0.00     0.192 C 
HETATM   16  O   UNK N   1      28.995  17.292   6.781  0.00  0.00    -0.287 OA
BRANCH  15  17
HETATM   17  C   UNK N   1      30.207  17.341   4.776  0.00  0.00     0.015 A 
HETATM   18  C   UNK N   1      30.046  16.754   3.510  0.00  0.00     0.018 A 
HETATM   19  C   UNK N   1      31.162  16.424   2.733  0.00  0.00     0.043 A 
HETATM   20  C   UNK N   1      32.451  16.663   3.220  0.00  0.00     0.116 A 
HETATM   21  C   UNK N   1      32.624  17.237   4.479  0.00  0.00     0.043 A 
HETATM   22  F   UNK N   1      33.533  16.337   2.474  0.00  0.00    -0.206 F 
HETATM   23  C   UNK N   1      31.510  17.573   5.248  0.00  0.00     0.018 A 
ENDBRANCH  15  17
ENDBRANCH   4  15
BRANCH   8  24
HETATM   24  O   UNK N   1      22.361  21.529   2.722  0.00  0.00    -0.326 OA
HETATM   25  H   UNK N   1      23.292  21.530   2.622  0.00  0.00     0.221 HD
ENDBRANCH   8  24
BRANCH   8  26
HETATM   26  O   UNK N   1      20.366  20.307   2.620  0.00  0.00    -0.321 OA
HETATM   27  C   UNK N   1      19.662  19.131   2.711  0.00  0.00     0.213 C 
ENDBRANCH   8  26
TORSDOF 4
ENDMDL
MODEL 9
REMARK VINA RESULT:      -7.1      5.139     10.560
REMARK  4 active torsions:
REMARK  status: ('A' for Active; 'I' for Inactive)
REMARK    1  A    between atoms: C_14  and  C_9 
REMARK    2  A    between atoms: C_14  and  C_10 
REMARK       I    between atoms: N_21  and  C_15 
REMARK    3  A    between atoms: O_24  and  C_16 
REMARK    4  A    between atoms: O_25  and  C_16 
ROOT
HETATM    1  C   UNK N   1      36.499  13.979  14.209  0.00  0.00     0.018 A 
HETATM    2  C   UNK N   1      36.476  15.108  13.379  0.00  0.00     0.033 A 
HETATM    3  C   UNK N   1      34.935  12.808  12.737  0.00  0.00     0.048 A 
HETATM    4  C   UNK N   1      35.735  12.821  13.908  0.00  0.00     0.017 A 
HETATM    5  C   UNK N   1      35.666  15.052  12.258  0.00  0.00     0.076 A 
HETATM    6  C   UNK N   1      34.924  13.956  11.946  0.00  0.00     0.077 A 
HETATM    7  C   UNK N   1      34.588  15.453  10.478  0.00  0.00     0.686 A 
HETATM    8  C   UNK N   1      34.430  17.304   8.952  0.00  0.00     0.276 C 
HETATM    9  N   UNK N   1      35.473  16.009  11.345  0.00  0.00    -0.189 N 
ATOM     10  HN  UNK N   1      35.892  16.938  11.308  1.00  0.00     0.184 HD
HETATM   11  N   UNK N   1      34.229  14.189  10.820  0.00  0.00    -0.189 N 
HETATM   12  N   UNK N   1      34.071  16.120   9.333  0.00  0.00    -0.149 N 
ATOM     13  HN  UNK N   1      33.371  15.633   8.774  1.00  0.00     0.188 HD
HETATM   14  H   UNK N   1      33.608  13.585  10.353  0.00  0.00     0.184 HD
ENDROOT
BRANCH   4  15
HETATM   15  C   UNK N   1      35.771  11.626  14.803  0.00  0.00     0.192 C 
HETATM   16  O   UNK N   1      35.876  10.517  14.296  0.00  0.00    -0.287 OA
BRANCH  15  17
HETATM   17  C   UNK N   1      35.661  11.723  16.293  0.00  0.00     0.015 A 
HETATM   18  C   UNK N   1      35.932  10.600  17.091  0.00  0.00     0.018 A 
HETATM   19  C   UNK N   1      35.800  10.670  18.483  0.00  0.00     0.043 A 
HETATM   20  C   UNK N   1      35.381  11.858  19.089  0.00  0.00     0.116 A 
HETATM   21  C   UNK N   1      35.101  12.977  18.307  0.00  0.00     0.043 A 
HETATM   22  F   UNK N   1      35.244  11.926  20.435  0.00  0.00    -0.206 F 
HETATM   23  C   UNK N   1      35.241  12.908  16.920  0.00  0.00     0.018 A 
ENDBRANCH  15  17
ENDBRANCH   4  15
BRANCH   8  24
HETATM   24  O   UNK N   1      35.367  18.002   9.636  0.00  0.00    -0.326 OA
HETATM   25  H   UNK N   1      35.140  18.781  10.105  0.00  0.00     0.221 HD
ENDBRANCH   8  24
BRANCH   8  26
HETATM   26  O   UNK N   1      33.863  17.840   7.848  0.00  0.00    -0.321 OA
HETATM   27  C   UNK N   1      32.625  17.445   7.405  0.00  0.00     0.213 C 
ENDBRANCH   8  26
TORSDOF 4
ENDMDL
