MODEL 1
REMARK VINA RESULT:      -7.4      0.000      0.000
REMARK  1 active torsions:
REMARK  status: ('A' for Active; 'I' for Inactive)
REMARK    1  A    between atoms: C_17  and  O_20 
ROOT
HETATM    1  C   UNK N   1      30.778  22.609  -3.354  0.00  0.00     0.021 C 
HETATM    2  C   UNK N   1      29.902  21.982  -4.431  0.00  0.00     0.006 C 
HETATM    3  C   UNK N   1      30.864  21.226  -5.340  0.00  0.00     0.013 C 
HETATM    4  C   UNK N   1      31.854  20.597  -4.346  0.00  0.00     0.079 C 
HETATM    5  C   UNK N   1      31.777  21.528  -3.179  0.00  0.00     0.135 C 
HETATM    6  C   UNK N   1      29.854  22.881  -2.175  0.00  0.00     0.018 C 
HETATM    7  C   UNK N   1      28.852  23.968  -2.576  0.00  0.00     0.007 C 
HETATM    8  C   UNK N   1      28.109  23.785  -3.939  0.00  0.00     0.002 C 
HETATM    9  C   UNK N   1      28.880  22.954  -5.045  0.00  0.00    -0.004 C 
HETATM   10  C   UNK N   1      27.709  25.226  -4.433  0.00  0.00    -0.013 C 
HETATM   11  C   UNK N   1      27.316  25.210  -5.906  0.00  0.00    -0.034 C 
HETATM   12  C   UNK N   1      28.230  24.492  -6.881  0.00  0.00     0.038 C 
HETATM   13  C   UNK N   1      29.429  23.845  -6.160  0.00  0.00     0.010 C 
HETATM   14  C   UNK N   1      26.588  25.748  -3.513  0.00  0.00     0.022 C 
HETATM   15  C   UNK N   1      25.925  26.998  -4.061  0.00  0.00     0.087 C 
HETATM   16  C   UNK N   1      25.428  26.720  -5.441  0.00  0.00     0.182 C 
HETATM   17  C   UNK N   1      26.228  25.876  -6.361  0.00  0.00     0.114 C 
HETATM   18  O   UNK N   1      24.418  27.281  -5.842  0.00  0.00    -0.290 OA
HETATM   19  O   UNK N   1      32.567  21.488  -2.249  0.00  0.00    -0.297 OA
HETATM   20  C   UNK N   1      28.905  26.183  -4.342  0.00  0.00     0.020 C 
HETATM   21  C   UNK N   1      31.529  23.872  -3.784  0.00  0.00     0.024 C 
ENDROOT
BRANCH  17  22
HETATM   22  O   UNK N   1      25.894  25.820  -7.665  0.00  0.00    -0.357 OA
HETATM   23  H   UNK N   1      25.621  25.010  -8.051  0.00  0.00     0.218 HD
ENDBRANCH  17  22
TORSDOF 1
ENDMDL
MODEL 2
REMARK VINA RESULT:      -7.3      3.977      6.263
REMARK  1 active torsions:
REMARK  status: ('A' for Active; 'I' for Inactive)
REMARK    1  A    between atoms: C_17  and  O_20 
ROOT
HETATM    1  C   UNK N   1      27.672  28.486  -5.375  0.00  0.00     0.021 C 
HETATM    2  C   UNK N   1      26.226  28.067  -5.145  0.00  0.00     0.006 C 
HETATM    3  C   UNK N   1      25.938  28.409  -3.687  0.00  0.00     0.013 C 
HETATM    4  C   UNK N   1      26.641  29.764  -3.506  0.00  0.00     0.079 C 
HETATM    5  C   UNK N   1      27.717  29.711  -4.543  0.00  0.00     0.135 C 
HETATM    6  C   UNK N   1      27.813  28.676  -6.879  0.00  0.00     0.018 C 
HETATM    7  C   UNK N   1      27.663  27.315  -7.565  0.00  0.00     0.007 C 
HETATM    8  C   UNK N   1      26.441  26.436  -7.146  0.00  0.00     0.002 C 
HETATM    9  C   UNK N   1      25.893  26.663  -5.677  0.00  0.00    -0.004 C 
HETATM   10  C   UNK N   1      26.845  24.939  -7.418  0.00  0.00    -0.013 C 
HETATM   11  C   UNK N   1      25.894  23.979  -6.712  0.00  0.00    -0.034 C 
HETATM   12  C   UNK N   1      25.568  24.239  -5.254  0.00  0.00     0.038 C 
HETATM   13  C   UNK N   1      26.264  25.514  -4.738  0.00  0.00     0.010 C 
HETATM   14  C   UNK N   1      26.894  24.731  -8.944  0.00  0.00     0.022 C 
HETATM   15  C   UNK N   1      26.989  23.265  -9.325  0.00  0.00     0.087 C 
HETATM   16  C   UNK N   1      25.854  22.524  -8.699  0.00  0.00     0.182 C 
HETATM   17  C   UNK N   1      25.404  22.877  -7.330  0.00  0.00     0.114 C 
HETATM   18  O   UNK N   1      25.375  21.558  -9.274  0.00  0.00    -0.290 OA
HETATM   19  O   UNK N   1      28.628  30.522  -4.592  0.00  0.00    -0.297 OA
HETATM   20  C   UNK N   1      28.233  24.637  -6.836  0.00  0.00     0.020 C 
HETATM   21  C   UNK N   1      28.723  27.514  -4.831  0.00  0.00     0.024 C 
ENDROOT
BRANCH  17  22
HETATM   22  O   UNK N   1      24.545  22.063  -6.688  0.00  0.00    -0.357 OA
HETATM   23  H   UNK N   1      23.725  22.390  -6.375  0.00  0.00     0.218 HD
ENDBRANCH  17  22
TORSDOF 1
ENDMDL
MODEL 3
REMARK VINA RESULT:      -7.2     20.363     23.459
REMARK  1 active torsions:
REMARK  status: ('A' for Active; 'I' for Inactive)
REMARK    1  A    between atoms: C_17  and  O_20 
ROOT
HETATM    1  C   UNK N   1      35.515  10.912  15.909  0.00  0.00     0.021 C 
HETATM    2  C   UNK N   1      36.274  12.231  15.960  0.00  0.00     0.006 C 
HETATM    3  C   UNK N   1      35.524  13.086  16.974  0.00  0.00     0.013 C 
HETATM    4  C   UNK N   1      35.170  12.077  18.080  0.00  0.00     0.079 C 
HETATM    5  C   UNK N   1      35.139  10.781  17.336  0.00  0.00     0.135 C 
HETATM    6  C   UNK N   1      36.503   9.887  15.367  0.00  0.00     0.018 C 
HETATM    7  C   UNK N   1      36.823  10.235  13.910  0.00  0.00     0.007 C 
HETATM    8  C   UNK N   1      37.209  11.717  13.600  0.00  0.00     0.002 C 
HETATM    9  C   UNK N   1      36.607  12.811  14.575  0.00  0.00    -0.004 C 
HETATM   10  C   UNK N   1      36.833  11.976  12.093  0.00  0.00    -0.013 C 
HETATM   11  C   UNK N   1      36.815  13.469  11.782  0.00  0.00    -0.034 C 
HETATM   12  C   UNK N   1      36.074  14.388  12.734  0.00  0.00     0.038 C 
HETATM   13  C   UNK N   1      35.477  13.608  13.922  0.00  0.00     0.010 C 
HETATM   14  C   UNK N   1      37.823  11.187  11.214  0.00  0.00     0.022 C 
HETATM   15  C   UNK N   1      37.742  11.583   9.752  0.00  0.00     0.087 C 
HETATM   16  C   UNK N   1      37.949  13.058   9.635  0.00  0.00     0.182 C 
HETATM   17  C   UNK N   1      37.374  13.969  10.654  0.00  0.00     0.114 C 
HETATM   18  O   UNK N   1      38.496  13.512   8.641  0.00  0.00    -0.290 OA
HETATM   19  O   UNK N   1      34.698   9.751  17.822  0.00  0.00    -0.297 OA
HETATM   20  C   UNK N   1      35.410  11.483  11.795  0.00  0.00     0.020 C 
HETATM   21  C   UNK N   1      34.224  10.938  15.087  0.00  0.00     0.024 C 
ENDROOT
BRANCH  17  22
HETATM   22  O   UNK N   1      37.364  15.296  10.421  0.00  0.00    -0.357 OA
HETATM   23  H   UNK N   1      36.798  15.659   9.768  0.00  0.00     0.218 HD
ENDBRANCH  17  22
TORSDOF 1
ENDMDL
MODEL 4
REMARK VINA RESULT:      -7.2     22.088     25.648
REMARK  1 active torsions:
REMARK  status: ('A' for Active; 'I' for Inactive)
REMARK    1  A    between atoms: C_17  and  O_20 
ROOT
HETATM    1  C   UNK N   1      35.525  11.198  13.132  0.00  0.00     0.021 C 
HETATM    2  C   UNK N   1      34.758  12.339  13.787  0.00  0.00     0.006 C 
HETATM    3  C   UNK N   1      35.202  13.597  13.050  0.00  0.00     0.013 C 
HETATM    4  C   UNK N   1      35.269  13.131  11.586  0.00  0.00     0.079 C 
HETATM    5  C   UNK N   1      35.515  11.662  11.725  0.00  0.00     0.135 C 
HETATM    6  C   UNK N   1      34.731   9.936  13.440  0.00  0.00     0.018 C 
HETATM    7  C   UNK N   1      34.799   9.666  14.945  0.00  0.00     0.007 C 
HETATM    8  C   UNK N   1      34.485  10.864  15.899  0.00  0.00     0.002 C 
HETATM    9  C   UNK N   1      34.792  12.308  15.325  0.00  0.00    -0.004 C 
HETATM   10  C   UNK N   1      35.239  10.576  17.251  0.00  0.00    -0.013 C 
HETATM   11  C   UNK N   1      35.314  11.831  18.113  0.00  0.00    -0.034 C 
HETATM   12  C   UNK N   1      35.764  13.123  17.458  0.00  0.00     0.038 C 
HETATM   13  C   UNK N   1      36.041  12.926  15.954  0.00  0.00     0.010 C 
HETATM   14  C   UNK N   1      34.527   9.402  17.951  0.00  0.00     0.022 C 
HETATM   15  C   UNK N   1      34.982   9.222  19.386  0.00  0.00     0.087 C 
HETATM   16  C   UNK N   1      34.791  10.507  20.123  0.00  0.00     0.182 C 
HETATM   17  C   UNK N   1      35.064  11.797  19.444  0.00  0.00     0.114 C 
HETATM   18  O   UNK N   1      34.517  10.483  21.314  0.00  0.00    -0.290 OA
HETATM   19  O   UNK N   1      35.829  10.953  10.782  0.00  0.00    -0.297 OA
HETATM   20  C   UNK N   1      36.698  10.178  16.984  0.00  0.00     0.020 C 
HETATM   21  C   UNK N   1      36.986  11.064  13.569  0.00  0.00     0.024 C 
ENDROOT
BRANCH  17  22
HETATM   22  O   UNK N   1      35.113  12.928  20.174  0.00  0.00    -0.357 OA
HETATM   23  H   UNK N   1      34.533  13.050  20.900  0.00  0.00     0.218 HD
ENDBRANCH  17  22
TORSDOF 1
ENDMDL
MODEL 5
REMARK VINA RESULT:      -7.0      1.263      6.757
REMARK  1 active torsions:
REMARK  status: ('A' for Active; 'I' for Inactive)
REMARK    1  A    between atoms: C_17  and  O_20 
ROOT
HETATM    1  C   UNK N   1      27.717  24.507  -5.921  0.00  0.00     0.021 C 
HETATM    2  C   UNK N   1      27.600  23.882  -4.537  0.00  0.00     0.006 C 
HETATM    3  C   UNK N   1      26.989  24.967  -3.657  0.00  0.00     0.013 C 
HETATM    4  C   UNK N   1      25.930  25.598  -4.576  0.00  0.00     0.079 C 
HETATM    5  C   UNK N   1      26.474  25.314  -5.940  0.00  0.00     0.135 C 
HETATM    6  C   UNK N   1      27.788  23.340  -6.896  0.00  0.00     0.018 C 
HETATM    7  C   UNK N   1      29.104  22.589  -6.671  0.00  0.00     0.007 C 
HETATM    8  C   UNK N   1      29.465  22.211  -5.199  0.00  0.00     0.002 C 
HETATM    9  C   UNK N   1      28.875  23.156  -4.073  0.00  0.00    -0.004 C 
HETATM   10  C   UNK N   1      31.034  22.097  -5.133  0.00  0.00    -0.013 C 
HETATM   11  C   UNK N   1      31.523  22.101  -3.688  0.00  0.00    -0.034 C 
HETATM   12  C   UNK N   1      30.975  23.160  -2.751  0.00  0.00     0.038 C 
HETATM   13  C   UNK N   1      29.944  24.061  -3.459  0.00  0.00     0.010 C 
HETATM   14  C   UNK N   1      31.451  20.834  -5.910  0.00  0.00     0.022 C 
HETATM   15  C   UNK N   1      32.904  20.463  -5.676  0.00  0.00     0.087 C 
HETATM   16  C   UNK N   1      33.138  20.315  -4.208  0.00  0.00     0.182 C 
HETATM   17  C   UNK N   1      32.475  21.239  -3.256  0.00  0.00     0.114 C 
HETATM   18  O   UNK N   1      33.961  19.505  -3.808  0.00  0.00    -0.290 OA
HETATM   19  O   UNK N   1      26.023  25.827  -6.951  0.00  0.00    -0.297 OA
HETATM   20  C   UNK N   1      31.695  23.318  -5.788  0.00  0.00     0.020 C 
HETATM   21  C   UNK N   1      28.897  25.465  -6.102  0.00  0.00     0.024 C 
ENDROOT
BRANCH  17  22
HETATM   22  O   UNK N   1      32.866  21.250  -1.967  0.00  0.00    -0.357 OA
HETATM   23  H   UNK N   1      33.711  21.580  -1.731  0.00  0.00     0.218 HD
ENDBRANCH  17  22
TORSDOF 1
ENDMDL
MODEL 6
REMARK VINA RESULT:      -6.9     11.600     14.230
REMARK  1 active torsions:
REMARK  status: ('A' for Active; 'I' for Inactive)
REMARK    1  A    between atoms: C_17  and  O_20 
ROOT
HETATM    1  C   UNK N   1      33.754  15.488   7.118  0.00  0.00     0.021 C 
HETATM    2  C   UNK N   1      33.517  16.684   8.030  0.00  0.00     0.006 C 
HETATM    3  C   UNK N   1      34.059  16.264   9.391  0.00  0.00     0.013 C 
HETATM    4  C   UNK N   1      35.347  15.507   9.029  0.00  0.00     0.079 C 
HETATM    5  C   UNK N   1      35.061  15.025   7.643  0.00  0.00     0.135 C 
HETATM    6  C   UNK N   1      33.747  16.042   5.700  0.00  0.00     0.018 C 
HETATM    7  C   UNK N   1      32.335  16.536   5.372  0.00  0.00     0.007 C 
HETATM    8  C   UNK N   1      31.643  17.464   6.421  0.00  0.00     0.002 C 
HETATM    9  C   UNK N   1      32.099  17.273   7.926  0.00  0.00    -0.004 C 
HETATM   10  C   UNK N   1      30.090  17.283   6.232  0.00  0.00    -0.013 C 
HETATM   11  C   UNK N   1      29.324  17.842   7.426  0.00  0.00    -0.034 C 
HETATM   12  C   UNK N   1      29.791  17.457   8.817  0.00  0.00     0.038 C 
HETATM   13  C   UNK N   1      31.041  16.557   8.765  0.00  0.00     0.010 C 
HETATM   14  C   UNK N   1      29.695  17.943   4.896  0.00  0.00     0.022 C 
HETATM   15  C   UNK N   1      28.192  18.084   4.743  0.00  0.00     0.087 C 
HETATM   16  C   UNK N   1      27.652  18.835   5.916  0.00  0.00     0.182 C 
HETATM   17  C   UNK N   1      28.212  18.598   7.268  0.00  0.00     0.114 C 
HETATM   18  O   UNK N   1      26.677  19.558   5.771  0.00  0.00    -0.290 OA
HETATM   19  O   UNK N   1      35.763  14.207   7.069  0.00  0.00    -0.297 OA
HETATM   20  C   UNK N   1      29.721  15.794   6.173  0.00  0.00     0.020 C 
HETATM   21  C   UNK N   1      32.754  14.340   7.279  0.00  0.00     0.024 C 
ENDROOT
BRANCH  17  22
HETATM   22  O   UNK N   1      27.572  19.099   8.344  0.00  0.00    -0.357 OA
HETATM   23  H   UNK N   1      26.645  18.995   8.435  0.00  0.00     0.218 HD
ENDBRANCH  17  22
TORSDOF 1
ENDMDL
MODEL 7
REMARK VINA RESULT:      -6.7     12.941     17.025
REMARK  1 active torsions:
REMARK  status: ('A' for Active; 'I' for Inactive)
REMARK    1  A    between atoms: C_17  and  O_20 
ROOT
HETATM    1  C   UNK N   1      31.611  16.670   6.279  0.00  0.00     0.021 C 
HETATM    2  C   UNK N   1      33.046  17.134   6.062  0.00  0.00     0.006 C 
HETATM    3  C   UNK N   1      33.223  17.198   4.550  0.00  0.00     0.013 C 
HETATM    4  C   UNK N   1      31.885  17.787   4.072  0.00  0.00     0.079 C 
HETATM    5  C   UNK N   1      30.945  17.380   5.161  0.00  0.00     0.135 C 
HETATM    6  C   UNK N   1      31.241  17.115   7.687  0.00  0.00     0.018 C 
HETATM    7  C   UNK N   1      32.085  16.324   8.691  0.00  0.00     0.007 C 
HETATM    8  C   UNK N   1      33.624  16.255   8.429  0.00  0.00     0.002 C 
HETATM    9  C   UNK N   1      34.078  16.379   6.917  0.00  0.00    -0.004 C 
HETATM   10  C   UNK N   1      34.139  14.932   9.110  0.00  0.00    -0.013 C 
HETATM   11  C   UNK N   1      35.534  14.568   8.614  0.00  0.00    -0.034 C 
HETATM   12  C   UNK N   1      35.789  14.592   7.119  0.00  0.00     0.038 C 
HETATM   13  C   UNK N   1      34.536  15.039   6.339  0.00  0.00     0.010 C 
HETATM   14  C   UNK N   1      34.073  15.128  10.638  0.00  0.00     0.022 C 
HETATM   15  C   UNK N   1      34.808  14.038  11.394  0.00  0.00     0.087 C 
HETATM   16  C   UNK N   1      36.217  13.970  10.903  0.00  0.00     0.182 C 
HETATM   17  C   UNK N   1      36.509  14.160   9.461  0.00  0.00     0.114 C 
HETATM   18  O   UNK N   1      37.109  13.649  11.674  0.00  0.00    -0.290 OA
HETATM   19  O   UNK N   1      29.733  17.486   5.061  0.00  0.00    -0.297 OA
HETATM   20  C   UNK N   1      33.249  13.742   8.728  0.00  0.00     0.020 C 
HETATM   21  C   UNK N   1      31.378  15.170   6.083  0.00  0.00     0.024 C 
ENDROOT
BRANCH  17  22
HETATM   22  O   UNK N   1      37.739  13.871   8.994  0.00  0.00    -0.357 OA
HETATM   23  H   UNK N   1      37.948  14.009   8.091  0.00  0.00     0.218 HD
ENDBRANCH  17  22
TORSDOF 1
ENDMDL
MODEL 8
REMARK VINA RESULT:      -6.7      1.932      3.072
REMARK  1 active torsions:
REMARK  status: ('A' for Active; 'I' for Inactive)
REMARK    1  A    between atoms: C_17  and  O_20 
ROOT
HETATM    1  C   UNK N   1      30.381  22.962  -5.283  0.00  0.00     0.021 C 
HETATM    2  C   UNK N   1      30.066  23.326  -3.838  0.00  0.00     0.006 C 
HETATM    3  C   UNK N   1      29.763  22.002  -3.148  0.00  0.00     0.013 C 
HETATM    4  C   UNK N   1      30.814  21.053  -3.747  0.00  0.00     0.079 C 
HETATM    5  C   UNK N   1      31.103  21.686  -5.071  0.00  0.00     0.135 C 
HETATM    6  C   UNK N   1      31.196  24.124  -5.834  0.00  0.00     0.018 C 
HETATM    7  C   UNK N   1      30.299  25.363  -5.908  0.00  0.00     0.007 C 
HETATM    8  C   UNK N   1      29.467  25.718  -4.633  0.00  0.00     0.002 C 
HETATM    9  C   UNK N   1      29.084  24.502  -3.693  0.00  0.00    -0.004 C 
HETATM   10  C   UNK N   1      28.207  26.523  -5.125  0.00  0.00    -0.013 C 
HETATM   11  C   UNK N   1      27.146  26.600  -4.032  0.00  0.00    -0.034 C 
HETATM   12  C   UNK N   1      26.774  25.321  -3.307  0.00  0.00     0.038 C 
HETATM   13  C   UNK N   1      27.607  24.124  -3.808  0.00  0.00     0.010 C 
HETATM   14  C   UNK N   1      28.685  27.908  -5.602  0.00  0.00     0.022 C 
HETATM   15  C   UNK N   1      27.536  28.872  -5.827  0.00  0.00     0.087 C 
HETATM   16  C   UNK N   1      26.725  28.964  -4.577  0.00  0.00     0.182 C 
HETATM   17  C   UNK N   1      26.489  27.752  -3.756  0.00  0.00     0.114 C 
HETATM   18  O   UNK N   1      26.169  30.016  -4.295  0.00  0.00    -0.290 OA
HETATM   19  O   UNK N   1      31.747  21.126  -5.944  0.00  0.00    -0.297 OA
HETATM   20  C   UNK N   1      27.528  25.806  -6.300  0.00  0.00     0.020 C 
HETATM   21  C   UNK N   1      29.159  22.667  -6.158  0.00  0.00     0.024 C 
ENDROOT
BRANCH  17  22
HETATM   22  O   UNK N   1      25.575  27.792  -2.767  0.00  0.00    -0.357 OA
HETATM   23  H   UNK N   1      25.175  28.604  -2.523  0.00  0.00     0.218 HD
ENDBRANCH  17  22
TORSDOF 1
ENDMDL
MODEL 9
REMARK VINA RESULT:      -6.7     15.546     17.299
REMARK  1 active torsions:
REMARK  status: ('A' for Active; 'I' for Inactive)
REMARK    1  A    between atoms: C_17  and  O_20 
ROOT
HETATM    1  C   UNK N   1      23.821  12.534   9.672  0.00  0.00     0.021 C 
HETATM    2  C   UNK N   1      22.511  13.309   9.613  0.00  0.00     0.006 C 
HETATM    3  C   UNK N   1      21.566  12.571  10.554  0.00  0.00     0.013 C 
HETATM    4  C   UNK N   1      22.476  12.208  11.739  0.00  0.00     0.079 C 
HETATM    5  C   UNK N   1      23.829  12.160  11.106  0.00  0.00     0.135 C 
HETATM    6  C   UNK N   1      24.899  13.508   9.214  0.00  0.00     0.018 C 
HETATM    7  C   UNK N   1      24.676  13.828   7.734  0.00  0.00     0.007 C 
HETATM    8  C   UNK N   1      23.229  14.230   7.301  0.00  0.00     0.002 C 
HETATM    9  C   UNK N   1      22.052  13.644   8.183  0.00  0.00    -0.004 C 
HETATM   10  C   UNK N   1      23.091  13.853   5.778  0.00  0.00    -0.013 C 
HETATM   11  C   UNK N   1      21.629  13.852   5.345  0.00  0.00    -0.034 C 
HETATM   12  C   UNK N   1      20.626  13.125   6.220  0.00  0.00     0.038 C 
HETATM   13  C   UNK N   1      21.298  12.522   7.469  0.00  0.00     0.010 C 
HETATM   14  C   UNK N   1      23.962  14.832   4.966  0.00  0.00     0.022 C 
HETATM   15  C   UNK N   1      23.687  14.752   3.477  0.00  0.00     0.087 C 
HETATM   16  C   UNK N   1      22.230  14.976   3.238  0.00  0.00     0.182 C 
HETATM   17  C   UNK N   1      21.231  14.414   4.179  0.00  0.00     0.114 C 
HETATM   18  O   UNK N   1      21.866  15.525   2.209  0.00  0.00    -0.290 OA
HETATM   19  O   UNK N   1      24.810  11.708  11.675  0.00  0.00    -0.297 OA
HETATM   20  C   UNK N   1      23.591  12.424   5.525  0.00  0.00     0.020 C 
HETATM   21  C   UNK N   1      23.847  11.241   8.852  0.00  0.00     0.024 C 
ENDROOT
BRANCH  17  22
HETATM   22  O   UNK N   1      19.928  14.419   3.837  0.00  0.00    -0.357 OA
HETATM   23  H   UNK N   1      19.571  15.126   3.335  0.00  0.00     0.218 HD
ENDBRANCH  17  22
TORSDOF 1
ENDMDL
