REMARK  4 active torsions:
REMARK  status: ('A' for Active; 'I' for Inactive)
REMARK    1  A    between atoms: C_9  and  C_6 
REMARK    2  A    between atoms: C_13  and  C_6 
REMARK    3  A    between atoms: N_18  and  C_9 
REMARK    4  A    between atoms: O_19  and  C_14 
ROOT
HETATM    1  C   UNK N   1       1.164  -0.595   0.621  0.00  0.00     0.070 C 
HETATM    2  C   UNK N   1       0.917   0.925  -1.412  0.00  0.00     0.070 C 
HETATM    3  C   UNK N   1       2.516  -0.805  -0.068  0.00  0.00     0.275 C 
HETATM    4  C   UNK N   1       2.222   1.515  -0.878  0.00  0.00     0.275 C 
HETATM    5  C   UNK N   1      -0.841  -0.813  -0.917  0.00  0.00     0.162 A 
HETATM    6  C   UNK N   1      -1.873   0.718   0.309  0.00  0.00     0.258 A 
HETATM    7  C   UNK N   1       0.193   0.159  -0.298  0.00  0.00     0.090 A 
HETATM    8  N   UNK N   1      -2.086  -0.288  -0.432  0.00  0.00    -0.348 N 
ATOM      9  HN  UNK N   1      -3.006  -0.668  -0.651  1.00  0.00     0.163 HD
HETATM   10  N   UNK N   1       3.164   0.480  -0.406  0.00  0.00     0.088 N 
HETATM   11  O   UNK N   1      -0.582   1.027   0.444  0.00  0.00    -0.304 OA
ENDROOT
BRANCH  10  12
HETATM   12  C   UNK N   1       3.786   1.018   0.798  0.00  0.00     0.277 C 
BRANCH  12  13
HETATM   13  C   UNK N   1       5.046   0.248   1.190  0.00  0.00     0.068 C 
BRANCH  13  14
HETATM   14  C   UNK N   1       6.282   0.774   0.531  0.00  0.00    -0.057 A 
HETATM   15  C   UNK N   1       6.495   2.154   0.400  0.00  0.00     0.007 A 
HETATM   16  C   UNK N   1       7.680   2.632  -0.165  0.00  0.00     0.001 A 
HETATM   17  C   UNK N   1       8.668   1.735  -0.580  0.00  0.00     0.000 A 
HETATM   18  C   UNK N   1       8.467   0.359  -0.438  0.00  0.00     0.001 A 
HETATM   19  C   UNK N   1       7.276  -0.121   0.117  0.00  0.00     0.007 A 
ENDBRANCH  13  14
ENDBRANCH  12  13
ENDBRANCH  10  12
BRANCH   6  20
HETATM   20  O   UNK N   1      -2.864   1.416   0.891  0.00  0.00    -0.327 OA
HETATM   21  H   UNK N   1      -2.788   2.257   1.297  0.00  0.00     0.221 HD
ENDBRANCH   6  20
TORSDOF 4
