MODEL 1
REMARK VINA RESULT:      -5.5      0.000      0.000
REMARK  5 active torsions:
REMARK  status: ('A' for Active; 'I' for Inactive)
REMARK    1  A    between atoms: C_1  and  C_2 
REMARK    2  A    between atoms: C_2  and  C_3 
REMARK    3  A    between atoms: C_2  and  C_9 
REMARK    4  A    between atoms: C_3  and  C_4 
REMARK    5  A    between atoms: C_4  and  N_5 
ROOT
HETATM    1  C   UNK N   1      35.757  10.921  15.610  0.00  0.00     0.081 C 
HETATM    2  C   UNK N   1      34.469  10.916  14.900  0.00  0.00     0.074 C 
HETATM    3  N   UNK N   1      33.452  10.942  14.344  0.00  0.00    -0.196 NA
ENDROOT
BRANCH   1   4
HETATM    4  C   UNK N   1      35.428  11.521  16.979  0.00  0.00    -0.035 A 
HETATM    5  C   UNK N   1      35.529  10.745  18.148  0.00  0.00     0.009 A 
HETATM    6  C   UNK N   1      35.433  11.344  19.413  0.00  0.00     0.001 A 
HETATM    7  C   UNK N   1      35.243  12.724  19.524  0.00  0.00     0.000 A 
HETATM    8  C   UNK N   1      35.144  13.508  18.372  0.00  0.00     0.001 A 
HETATM    9  C   UNK N   1      35.257  12.913  17.113  0.00  0.00     0.009 A 
ENDBRANCH   1   4
BRANCH   1  10
HETATM   10  C   UNK N   1      36.630  11.822  14.702  0.00  0.00     0.065 C 
BRANCH  10  11
HETATM   11  C   UNK N   1      36.312  11.918  13.199  0.00  0.00     0.220 C 
HETATM   12  C   UNK N   1      37.363  11.159  12.407  0.00  0.00     0.043 C 
BRANCH  11  13
HETATM   13  N   UNK N   1      36.244  13.310  12.712  0.00  0.00     0.084 N 
HETATM   14  C   UNK N   1      35.001  13.523  11.990  0.00  0.00     0.309 C 
HETATM   15  C   UNK N   1      36.310  14.289  13.796  0.00  0.00     0.309 C 
ENDBRANCH  11  13
ENDBRANCH  10  11
ENDBRANCH   1  10
BRANCH   1  16
HETATM   16  C   UNK N   1      36.319   9.465  15.657  0.00  0.00     0.005 C 
HETATM   17  C   UNK N   1      35.703   8.534  14.624  0.00  0.00     0.011 C 
HETATM   18  C   UNK N   1      37.839   9.371  15.549  0.00  0.00     0.011 C 
ENDBRANCH   1  16
TORSDOF 5
ENDMDL
MODEL 2
REMARK VINA RESULT:      -5.5      6.499     10.570
REMARK  5 active torsions:
REMARK  status: ('A' for Active; 'I' for Inactive)
REMARK    1  A    between atoms: C_1  and  C_2 
REMARK    2  A    between atoms: C_2  and  C_3 
REMARK    3  A    between atoms: C_2  and  C_9 
REMARK    4  A    between atoms: C_3  and  C_4 
REMARK    5  A    between atoms: C_4  and  N_5 
ROOT
HETATM    1  C   UNK N   1      32.858  16.682   6.946  0.00  0.00     0.081 C 
HETATM    2  C   UNK N   1      33.870  17.699   7.269  0.00  0.00     0.074 C 
HETATM    3  N   UNK N   1      34.659  18.500   7.553  0.00  0.00    -0.196 NA
ENDROOT
BRANCH   1   4
HETATM    4  C   UNK N   1      31.537  17.312   7.394  0.00  0.00    -0.035 A 
HETATM    5  C   UNK N   1      30.324  16.958   6.775  0.00  0.00     0.009 A 
HETATM    6  C   UNK N   1      29.098  17.372   7.318  0.00  0.00     0.001 A 
HETATM    7  C   UNK N   1      29.070  18.135   8.488  0.00  0.00     0.000 A 
HETATM    8  C   UNK N   1      30.266  18.492   9.115  0.00  0.00     0.001 A 
HETATM    9  C   UNK N   1      31.486  18.066   8.583  0.00  0.00     0.009 A 
ENDBRANCH   1   4
BRANCH   1  10
HETATM   10  C   UNK N   1      33.321  15.475   7.799  0.00  0.00     0.065 C 
BRANCH  10  11
HETATM   11  C   UNK N   1      34.618  15.581   8.621  0.00  0.00     0.220 C 
HETATM   12  C   UNK N   1      35.481  14.356   8.368  0.00  0.00     0.043 C 
BRANCH  11  13
HETATM   13  N   UNK N   1      34.372  15.715  10.071  0.00  0.00     0.084 N 
HETATM   14  C   UNK N   1      34.456  14.411  10.710  0.00  0.00     0.309 C 
HETATM   15  C   UNK N   1      35.333  16.602  10.725  0.00  0.00     0.309 C 
ENDBRANCH  11  13
ENDBRANCH  10  11
ENDBRANCH   1  10
BRANCH   1  16
HETATM   16  C   UNK N   1      32.936  16.351   5.423  0.00  0.00     0.005 C 
HETATM   17  C   UNK N   1      32.989  17.579   4.528  0.00  0.00     0.011 C 
HETATM   18  C   UNK N   1      34.083  15.420   5.037  0.00  0.00     0.011 C 
ENDBRANCH   1  16
TORSDOF 5
ENDMDL
MODEL 3
REMARK VINA RESULT:      -5.3      1.501      2.124
REMARK  5 active torsions:
REMARK  status: ('A' for Active; 'I' for Inactive)
REMARK    1  A    between atoms: C_1  and  C_2 
REMARK    2  A    between atoms: C_2  and  C_3 
REMARK    3  A    between atoms: C_2  and  C_9 
REMARK    4  A    between atoms: C_3  and  C_4 
REMARK    5  A    between atoms: C_4  and  N_5 
ROOT
HETATM    1  C   UNK N   1      36.199  11.962  15.429  0.00  0.00     0.081 C 
HETATM    2  C   UNK N   1      34.860  11.822  14.835  0.00  0.00     0.074 C 
HETATM    3  N   UNK N   1      33.809  11.738  14.352  0.00  0.00    -0.196 NA
ENDROOT
BRANCH   1   4
HETATM    4  C   UNK N   1      36.152  13.315  16.143  0.00  0.00    -0.035 A 
HETATM    5  C   UNK N   1      35.386  13.486  17.312  0.00  0.00     0.009 A 
HETATM    6  C   UNK N   1      35.507  14.654  18.079  0.00  0.00     0.001 A 
HETATM    7  C   UNK N   1      36.399  15.659  17.693  0.00  0.00     0.000 A 
HETATM    8  C   UNK N   1      37.166  15.502  16.537  0.00  0.00     0.001 A 
HETATM    9  C   UNK N   1      37.058  14.331  15.782  0.00  0.00     0.009 A 
ENDBRANCH   1   4
BRANCH   1  10
HETATM   10  C   UNK N   1      37.117  11.920  14.183  0.00  0.00     0.065 C 
BRANCH  10  11
HETATM   11  C   UNK N   1      36.517  12.183  12.790  0.00  0.00     0.220 C 
HETATM   12  C   UNK N   1      37.025  11.136  11.812  0.00  0.00     0.043 C 
BRANCH  11  13
HETATM   13  N   UNK N   1      36.832  13.529  12.272  0.00  0.00     0.084 N 
HETATM   14  C   UNK N   1      37.290  13.435  10.895  0.00  0.00     0.309 C 
HETATM   15  C   UNK N   1      35.679  14.428  12.304  0.00  0.00     0.309 C 
ENDBRANCH  11  13
ENDBRANCH  10  11
ENDBRANCH   1  10
BRANCH   1  16
HETATM   16  C   UNK N   1      36.471  10.742  16.364  0.00  0.00     0.005 C 
HETATM   17  C   UNK N   1      35.210  10.050  16.856  0.00  0.00     0.011 C 
HETATM   18  C   UNK N   1      37.403   9.688  15.771  0.00  0.00     0.011 C 
ENDBRANCH   1  16
TORSDOF 5
ENDMDL
MODEL 4
REMARK VINA RESULT:      -5.1     23.485     26.546
REMARK  5 active torsions:
REMARK  status: ('A' for Active; 'I' for Inactive)
REMARK    1  A    between atoms: C_1  and  C_2 
REMARK    2  A    between atoms: C_2  and  C_3 
REMARK    3  A    between atoms: C_2  and  C_9 
REMARK    4  A    between atoms: C_3  and  C_4 
REMARK    5  A    between atoms: C_4  and  N_5 
ROOT
HETATM    1  C   UNK N   1      26.714  24.691  -5.772  0.00  0.00     0.081 C 
HETATM    2  C   UNK N   1      26.448  24.377  -4.360  0.00  0.00     0.074 C 
HETATM    3  N   UNK N   1      26.262  24.113  -3.246  0.00  0.00    -0.196 NA
ENDROOT
BRANCH   1   4
HETATM    4  C   UNK N   1      26.748  23.324  -6.459  0.00  0.00    -0.035 A 
HETATM    5  C   UNK N   1      25.558  22.697  -6.875  0.00  0.00     0.009 A 
HETATM    6  C   UNK N   1      25.600  21.553  -7.686  0.00  0.00     0.001 A 
HETATM    7  C   UNK N   1      26.828  21.028  -8.097  0.00  0.00     0.000 A 
HETATM    8  C   UNK N   1      28.017  21.640  -7.694  0.00  0.00     0.001 A 
HETATM    9  C   UNK N   1      27.975  22.789  -6.900  0.00  0.00     0.009 A 
ENDBRANCH   1   4
BRANCH   1  10
HETATM   10  C   UNK N   1      28.083  25.410  -5.696  0.00  0.00     0.065 C 
BRANCH  10  11
HETATM   11  C   UNK N   1      28.673  25.773  -4.321  0.00  0.00     0.220 C 
HETATM   12  C   UNK N   1      28.737  27.285  -4.179  0.00  0.00     0.043 C 
BRANCH  11  13
HETATM   13  N   UNK N   1      30.018  25.205  -4.104  0.00  0.00     0.084 N 
HETATM   14  C   UNK N   1      30.898  26.214  -3.537  0.00  0.00     0.309 C 
HETATM   15  C   UNK N   1      30.004  24.058  -3.196  0.00  0.00     0.309 C 
ENDBRANCH  11  13
ENDBRANCH  10  11
ENDBRANCH   1  10
BRANCH   1  16
HETATM   16  C   UNK N   1      25.605  25.655  -6.298  0.00  0.00     0.005 C 
HETATM   17  C   UNK N   1      25.215  26.743  -5.309  0.00  0.00     0.011 C 
HETATM   18  C   UNK N   1      25.924  26.311  -7.639  0.00  0.00     0.011 C 
ENDBRANCH   1  16
TORSDOF 5
ENDMDL
MODEL 5
REMARK VINA RESULT:      -5.0      1.674      3.173
REMARK  5 active torsions:
REMARK  status: ('A' for Active; 'I' for Inactive)
REMARK    1  A    between atoms: C_1  and  C_2 
REMARK    2  A    between atoms: C_2  and  C_3 
REMARK    3  A    between atoms: C_2  and  C_9 
REMARK    4  A    between atoms: C_3  and  C_4 
REMARK    5  A    between atoms: C_4  and  N_5 
ROOT
HETATM    1  C   UNK N   1      35.824  11.596  14.544  0.00  0.00     0.081 C 
HETATM    2  C   UNK N   1      35.599  12.928  13.963  0.00  0.00     0.074 C 
HETATM    3  N   UNK N   1      35.446  13.989  13.520  0.00  0.00    -0.196 NA
ENDROOT
BRANCH   1   4
HETATM    4  C   UNK N   1      35.800  11.837  16.056  0.00  0.00    -0.035 A 
HETATM    5  C   UNK N   1      35.310  13.046  16.584  0.00  0.00     0.009 A 
HETATM    6  C   UNK N   1      35.093  13.186  17.963  0.00  0.00     0.001 A 
HETATM    7  C   UNK N   1      35.355  12.120  18.827  0.00  0.00     0.000 A 
HETATM    8  C   UNK N   1      35.839  10.913  18.317  0.00  0.00     0.001 A 
HETATM    9  C   UNK N   1      36.039  10.769  16.942  0.00  0.00     0.009 A 
ENDBRANCH   1   4
BRANCH   1  10
HETATM   10  C   UNK N   1      37.213  11.218  13.973  0.00  0.00     0.065 C 
BRANCH  10  11
HETATM   11  C   UNK N   1      37.607   9.734  13.859  0.00  0.00     0.220 C 
HETATM   12  C   UNK N   1      38.764   9.442  14.799  0.00  0.00     0.043 C 
BRANCH  11  13
HETATM   13  N   UNK N   1      37.982   9.342  12.486  0.00  0.00     0.084 N 
HETATM   14  C   UNK N   1      37.153   8.232  12.043  0.00  0.00     0.309 C 
HETATM   15  C   UNK N   1      37.824  10.434  11.525  0.00  0.00     0.309 C 
ENDBRANCH  11  13
ENDBRANCH  10  11
ENDBRANCH   1  10
BRANCH   1  16
HETATM   16  C   UNK N   1      34.722  10.620  14.025  0.00  0.00     0.005 C 
HETATM   17  C   UNK N   1      33.413  10.705  14.794  0.00  0.00     0.011 C 
HETATM   18  C   UNK N   1      34.418  10.748  12.534  0.00  0.00     0.011 C 
ENDBRANCH   1  16
TORSDOF 5
ENDMDL
MODEL 6
REMARK VINA RESULT:      -5.0      1.841      2.913
REMARK  5 active torsions:
REMARK  status: ('A' for Active; 'I' for Inactive)
REMARK    1  A    between atoms: C_1  and  C_2 
REMARK    2  A    between atoms: C_2  and  C_3 
REMARK    3  A    between atoms: C_2  and  C_9 
REMARK    4  A    between atoms: C_3  and  C_4 
REMARK    5  A    between atoms: C_4  and  N_5 
ROOT
HETATM    1  C   UNK N   1      35.649  12.474  13.932  0.00  0.00     0.081 C 
HETATM    2  C   UNK N   1      34.544  11.556  14.246  0.00  0.00     0.074 C 
HETATM    3  N   UNK N   1      33.655  10.856  14.498  0.00  0.00    -0.196 NA
ENDROOT
BRANCH   1   4
HETATM    4  C   UNK N   1      35.758  13.368  15.170  0.00  0.00    -0.035 A 
HETATM    5  C   UNK N   1      35.006  13.089  16.327  0.00  0.00     0.009 A 
HETATM    6  C   UNK N   1      35.258  13.777  17.523  0.00  0.00     0.001 A 
HETATM    7  C   UNK N   1      36.267  14.742  17.581  0.00  0.00     0.000 A 
HETATM    8  C   UNK N   1      37.023  15.027  16.441  0.00  0.00     0.001 A 
HETATM    9  C   UNK N   1      36.783  14.330  15.254  0.00  0.00     0.009 A 
ENDBRANCH   1   4
BRANCH   1  10
HETATM   10  C   UNK N   1      35.130  13.190  12.661  0.00  0.00     0.065 C 
BRANCH  10  11
HETATM   11  C   UNK N   1      36.124  13.937  11.752  0.00  0.00     0.220 C 
HETATM   12  C   UNK N   1      35.874  15.432  11.846  0.00  0.00     0.043 C 
BRANCH  11  13
HETATM   13  N   UNK N   1      36.042  13.514  10.340  0.00  0.00     0.084 N 
HETATM   14  C   UNK N   1      34.829  12.741  10.123  0.00  0.00     0.309 C 
HETATM   15  C   UNK N   1      36.027  14.646   9.414  0.00  0.00     0.309 C 
ENDBRANCH  11  13
ENDBRANCH  10  11
ENDBRANCH   1  10
BRANCH   1  16
HETATM   16  C   UNK N   1      36.931  11.640  13.618  0.00  0.00     0.005 C 
HETATM   17  C   UNK N   1      37.535  10.958  14.836  0.00  0.00     0.011 C 
HETATM   18  C   UNK N   1      36.753  10.598  12.517  0.00  0.00     0.011 C 
ENDBRANCH   1  16
TORSDOF 5
ENDMDL
MODEL 7
REMARK VINA RESULT:      -5.0      1.761      3.633
REMARK  5 active torsions:
REMARK  status: ('A' for Active; 'I' for Inactive)
REMARK    1  A    between atoms: C_1  and  C_2 
REMARK    2  A    between atoms: C_2  and  C_3 
REMARK    3  A    between atoms: C_2  and  C_9 
REMARK    4  A    between atoms: C_3  and  C_4 
REMARK    5  A    between atoms: C_4  and  N_5 
ROOT
HETATM    1  C   UNK N   1      36.005  10.971  15.361  0.00  0.00     0.081 C 
HETATM    2  C   UNK N   1      36.425  12.073  14.483  0.00  0.00     0.074 C 
HETATM    3  N   UNK N   1      36.775  12.951  13.811  0.00  0.00    -0.196 NA
ENDROOT
BRANCH   1   4
HETATM    4  C   UNK N   1      35.570  11.666  16.653  0.00  0.00    -0.035 A 
HETATM    5  C   UNK N   1      35.555  10.968  17.876  0.00  0.00     0.009 A 
HETATM    6  C   UNK N   1      35.360  11.653  19.085  0.00  0.00     0.001 A 
HETATM    7  C   UNK N   1      35.186  13.039  19.087  0.00  0.00     0.000 A 
HETATM    8  C   UNK N   1      35.200  13.745  17.882  0.00  0.00     0.001 A 
HETATM    9  C   UNK N   1      35.411  13.065  16.679  0.00  0.00     0.009 A 
ENDBRANCH   1   4
BRANCH   1  10
HETATM   10  C   UNK N   1      37.303  10.135  15.482  0.00  0.00     0.065 C 
BRANCH  10  11
HETATM   11  C   UNK N   1      37.210   8.604  15.611  0.00  0.00     0.220 C 
HETATM   12  C   UNK N   1      37.701   8.179  16.985  0.00  0.00     0.043 C 
BRANCH  11  13
HETATM   13  N   UNK N   1      37.981   7.891  14.574  0.00  0.00     0.084 N 
HETATM   14  C   UNK N   1      38.723   8.844  13.765  0.00  0.00     0.309 C 
HETATM   15  C   UNK N   1      38.936   6.938  15.138  0.00  0.00     0.309 C 
ENDBRANCH  11  13
ENDBRANCH  10  11
ENDBRANCH   1  10
BRANCH   1  16
HETATM   16  C   UNK N   1      34.880  10.154  14.652  0.00  0.00     0.005 C 
HETATM   17  C   UNK N   1      33.502  10.788  14.753  0.00  0.00     0.011 C 
HETATM   18  C   UNK N   1      35.160   9.835  13.185  0.00  0.00     0.011 C 
ENDBRANCH   1  16
TORSDOF 5
ENDMDL
MODEL 8
REMARK VINA RESULT:      -5.0     22.121     25.352
REMARK  5 active torsions:
REMARK  status: ('A' for Active; 'I' for Inactive)
REMARK    1  A    between atoms: C_1  and  C_2 
REMARK    2  A    between atoms: C_2  and  C_3 
REMARK    3  A    between atoms: C_2  and  C_9 
REMARK    4  A    between atoms: C_3  and  C_4 
REMARK    5  A    between atoms: C_4  and  N_5 
ROOT
HETATM    1  C   UNK N   1      28.163  24.085  -5.027  0.00  0.00     0.081 C 
HETATM    2  C   UNK N   1      27.167  24.104  -3.945  0.00  0.00     0.074 C 
HETATM    3  N   UNK N   1      26.401  24.131  -3.075  0.00  0.00    -0.196 NA
ENDROOT
BRANCH   1   4
HETATM    4  C   UNK N   1      29.351  23.326  -4.430  0.00  0.00    -0.035 A 
HETATM    5  C   UNK N   1      29.924  23.731  -3.210  0.00  0.00     0.009 A 
HETATM    6  C   UNK N   1      30.867  22.920  -2.561  0.00  0.00     0.001 A 
HETATM    7  C   UNK N   1      31.241  21.694  -3.117  0.00  0.00     0.000 A 
HETATM    8  C   UNK N   1      30.679  21.278  -4.326  0.00  0.00     0.001 A 
HETATM    9  C   UNK N   1      29.727  22.078  -4.964  0.00  0.00     0.009 A 
ENDBRANCH   1   4
BRANCH   1  10
HETATM   10  C   UNK N   1      28.416  25.594  -5.267  0.00  0.00     0.065 C 
BRANCH  10  11
HETATM   11  C   UNK N   1      27.240  26.583  -5.176  0.00  0.00     0.220 C 
HETATM   12  C   UNK N   1      27.137  27.370  -6.471  0.00  0.00     0.043 C 
BRANCH  11  13
HETATM   13  N   UNK N   1      27.363  27.521  -4.043  0.00  0.00     0.084 N 
HETATM   14  C   UNK N   1      27.930  28.779  -4.499  0.00  0.00     0.309 C 
HETATM   15  C   UNK N   1      26.076  27.809  -3.409  0.00  0.00     0.309 C 
ENDBRANCH  11  13
ENDBRANCH  10  11
ENDBRANCH   1  10
BRANCH   1  16
HETATM   16  C   UNK N   1      27.533  23.417  -6.289  0.00  0.00     0.005 C 
HETATM   17  C   UNK N   1      26.013  23.443  -6.306  0.00  0.00     0.011 C 
HETATM   18  C   UNK N   1      28.042  23.972  -7.617  0.00  0.00     0.011 C 
ENDBRANCH   1  16
TORSDOF 5
ENDMDL
MODEL 9
REMARK VINA RESULT:      -5.0     16.630     18.849
REMARK  5 active torsions:
REMARK  status: ('A' for Active; 'I' for Inactive)
REMARK    1  A    between atoms: C_1  and  C_2 
REMARK    2  A    between atoms: C_2  and  C_3 
REMARK    3  A    between atoms: C_2  and  C_9 
REMARK    4  A    between atoms: C_3  and  C_4 
REMARK    5  A    between atoms: C_4  and  N_5 
ROOT
HETATM    1  C   UNK N   1      22.953  17.437   4.660  0.00  0.00     0.081 C 
HETATM    2  C   UNK N   1      22.136  18.063   5.711  0.00  0.00     0.074 C 
HETATM    3  N   UNK N   1      21.485  18.578   6.521  0.00  0.00    -0.196 NA
ENDROOT
BRANCH   1   4
HETATM    4  C   UNK N   1      23.954  18.525   4.266  0.00  0.00    -0.035 A 
HETATM    5  C   UNK N   1      25.336  18.335   4.457  0.00  0.00     0.009 A 
HETATM    6  C   UNK N   1      26.262  19.235   3.908  0.00  0.00     0.001 A 
HETATM    7  C   UNK N   1      25.820  20.328   3.157  0.00  0.00     0.000 A 
HETATM    8  C   UNK N   1      24.453  20.528   2.958  0.00  0.00     0.001 A 
HETATM    9  C   UNK N   1      23.531  19.622   3.490  0.00  0.00     0.009 A 
ENDBRANCH   1   4
BRANCH   1  10
HETATM   10  C   UNK N   1      21.897  17.107   3.576  0.00  0.00     0.065 C 
BRANCH  10  11
HETATM   11  C   UNK N   1      20.400  17.238   3.911  0.00  0.00     0.220 C 
HETATM   12  C   UNK N   1      19.802  15.857   4.113  0.00  0.00     0.043 C 
BRANCH  11  13
HETATM   13  N   UNK N   1      19.637  17.954   2.870  0.00  0.00     0.084 N 
HETATM   14  C   UNK N   1      19.893  19.383   2.961  0.00  0.00     0.309 C 
HETATM   15  C   UNK N   1      19.985  17.519   1.517  0.00  0.00     0.309 C 
ENDBRANCH  11  13
ENDBRANCH  10  11
ENDBRANCH   1  10
BRANCH   1  16
HETATM   16  C   UNK N   1      23.599  16.133   5.224  0.00  0.00     0.005 C 
HETATM   17  C   UNK N   1      22.911  15.595   6.469  0.00  0.00     0.011 C 
HETATM   18  C   UNK N   1      23.721  14.999   4.209  0.00  0.00     0.011 C 
ENDBRANCH   1  16
TORSDOF 5
ENDMDL
