MODEL 1
REMARK VINA RESULT:      -4.2      0.000      0.000
REMARK  4 active torsions:
REMARK  status: ('A' for Active; 'I' for Inactive)
REMARK    1  A    between atoms: C_5  and  C_3 
REMARK    2  A    between atoms: C_6  and  C_4 
REMARK    3  A    between atoms: O_9  and  C_5 
REMARK    4  A    between atoms: O_10  and  C_6 
ROOT
HETATM    1  C   UNK N   1      34.631  17.034   9.062  0.00  0.00     0.088 C 
HETATM    2  C   UNK N   1      35.177  16.986  10.286  0.00  0.00     0.088 C 
ENDROOT
BRANCH   1   3
HETATM    3  C   UNK N   1      34.763  18.222   8.202  0.00  0.00     0.282 C 
HETATM    4  O   UNK N   1      35.304  19.238   8.619  0.00  0.00    -0.260 OA
BRANCH   3   5
HETATM    5  O   UNK N   1      34.276  18.168   6.939  0.00  0.00    -0.323 OA
HETATM    6  C   UNK N   1      33.909  16.986   6.342  0.00  0.00     0.213 C 
ENDBRANCH   3   5
ENDBRANCH   1   3
BRANCH   2   7
HETATM    7  C   UNK N   1      35.045  15.797  11.146  0.00  0.00     0.282 C 
HETATM    8  O   UNK N   1      34.076  15.056  11.042  0.00  0.00    -0.260 OA
BRANCH   7   9
HETATM    9  O   UNK N   1      36.016  15.541  12.055  0.00  0.00    -0.323 OA
HETATM   10  C   UNK N   1      36.013  14.409  12.834  0.00  0.00     0.213 C 
ENDBRANCH   7   9
ENDBRANCH   2   7
TORSDOF 4
ENDMDL
MODEL 2
REMARK VINA RESULT:      -4.1      3.144      4.707
REMARK  4 active torsions:
REMARK  status: ('A' for Active; 'I' for Inactive)
REMARK    1  A    between atoms: C_5  and  C_3 
REMARK    2  A    between atoms: C_6  and  C_4 
REMARK    3  A    between atoms: O_9  and  C_5 
REMARK    4  A    between atoms: O_10  and  C_6 
ROOT
HETATM    1  C   UNK N   1      33.153  17.195   8.614  0.00  0.00     0.088 C 
HETATM    2  C   UNK N   1      32.048  17.797   8.149  0.00  0.00     0.088 C 
ENDROOT
BRANCH   1   3
HETATM    3  C   UNK N   1      34.467  17.860   8.586  0.00  0.00     0.282 C 
HETATM    4  O   UNK N   1      34.818  18.506   7.608  0.00  0.00    -0.260 OA
BRANCH   3   5
HETATM    5  O   UNK N   1      35.278  17.742   9.664  0.00  0.00    -0.323 OA
HETATM    6  C   UNK N   1      35.259  16.638  10.482  0.00  0.00     0.213 C 
ENDBRANCH   3   5
ENDBRANCH   1   3
BRANCH   2   7
HETATM    7  C   UNK N   1      30.734  17.132   8.176  0.00  0.00     0.282 C 
HETATM    8  O   UNK N   1      30.372  16.426   7.244  0.00  0.00    -0.260 OA
BRANCH   7   9
HETATM    9  O   UNK N   1      29.935  17.316   9.254  0.00  0.00    -0.323 OA
HETATM   10  C   UNK N   1      29.658  18.564   9.759  0.00  0.00     0.213 C 
ENDBRANCH   7   9
ENDBRANCH   2   7
TORSDOF 4
ENDMDL
MODEL 3
REMARK VINA RESULT:      -4.1      1.038      5.072
REMARK  4 active torsions:
REMARK  status: ('A' for Active; 'I' for Inactive)
REMARK    1  A    between atoms: C_5  and  C_3 
REMARK    2  A    between atoms: C_6  and  C_4 
REMARK    3  A    between atoms: O_9  and  C_5 
REMARK    4  A    between atoms: O_10  and  C_6 
ROOT
HETATM    1  C   UNK N   1      34.579  16.032   9.192  0.00  0.00     0.088 C 
HETATM    2  C   UNK N   1      33.953  17.182   8.907  0.00  0.00     0.088 C 
ENDROOT
BRANCH   1   3
HETATM    3  C   UNK N   1      33.975  15.019  10.075  0.00  0.00     0.282 C 
HETATM    4  O   UNK N   1      33.248  14.147   9.618  0.00  0.00    -0.260 OA
BRANCH   3   5
HETATM    5  O   UNK N   1      34.238  15.073  11.402  0.00  0.00    -0.323 OA
HETATM    6  C   UNK N   1      35.510  14.935  11.905  0.00  0.00     0.213 C 
ENDBRANCH   3   5
ENDBRANCH   1   3
BRANCH   2   7
HETATM    7  C   UNK N   1      34.557  18.195   8.024  0.00  0.00     0.282 C 
HETATM    8  O   UNK N   1      35.080  19.198   8.492  0.00  0.00    -0.260 OA
BRANCH   7   9
HETATM    9  O   UNK N   1      34.523  17.994   6.685  0.00  0.00    -0.323 OA
HETATM   10  C   UNK N   1      33.407  17.516   6.042  0.00  0.00     0.213 C 
ENDBRANCH   7   9
ENDBRANCH   2   7
TORSDOF 4
ENDMDL
MODEL 4
REMARK VINA RESULT:      -4.0     12.998     14.313
REMARK  4 active torsions:
REMARK  status: ('A' for Active; 'I' for Inactive)
REMARK    1  A    between atoms: C_5  and  C_3 
REMARK    2  A    between atoms: C_6  and  C_4 
REMARK    3  A    between atoms: O_9  and  C_5 
REMARK    4  A    between atoms: O_10  and  C_6 
ROOT
HETATM    1  C   UNK N   1      22.107  12.751  10.486  0.00  0.00     0.088 C 
HETATM    2  C   UNK N   1      21.913  13.784   9.653  0.00  0.00     0.088 C 
ENDROOT
BRANCH   1   3
HETATM    3  C   UNK N   1      23.420  12.094  10.611  0.00  0.00     0.282 C 
HETATM    4  O   UNK N   1      24.065  11.794   9.614  0.00  0.00    -0.260 OA
BRANCH   3   5
HETATM    5  O   UNK N   1      23.899  11.828  11.849  0.00  0.00    -0.323 OA
HETATM    6  C   UNK N   1      23.117  11.920  12.975  0.00  0.00     0.213 C 
ENDBRANCH   3   5
ENDBRANCH   1   3
BRANCH   2   7
HETATM    7  C   UNK N   1      20.600  14.441   9.529  0.00  0.00     0.282 C 
HETATM    8  O   UNK N   1      19.581  13.875   9.902  0.00  0.00    -0.260 OA
BRANCH   7   9
HETATM    9  O   UNK N   1      20.543  15.684   8.993  0.00  0.00    -0.323 OA
HETATM   10  C   UNK N   1      19.357  16.357   8.822  0.00  0.00     0.213 C 
ENDBRANCH   7   9
ENDBRANCH   2   7
TORSDOF 4
ENDMDL
MODEL 5
REMARK VINA RESULT:      -4.0      3.432      5.186
REMARK  4 active torsions:
REMARK  status: ('A' for Active; 'I' for Inactive)
REMARK    1  A    between atoms: C_5  and  C_3 
REMARK    2  A    between atoms: C_6  and  C_4 
REMARK    3  A    between atoms: O_9  and  C_5 
REMARK    4  A    between atoms: O_10  and  C_6 
ROOT
HETATM    1  C   UNK N   1      31.797  18.283   8.274  0.00  0.00     0.088 C 
HETATM    2  C   UNK N   1      32.969  17.641   8.378  0.00  0.00     0.088 C 
ENDROOT
BRANCH   1   3
HETATM    3  C   UNK N   1      30.562  17.741   8.867  0.00  0.00     0.282 C 
HETATM    4  O   UNK N   1      30.538  16.609   9.332  0.00  0.00    -0.260 OA
BRANCH   3   5
HETATM    5  O   UNK N   1      29.454  18.520   8.887  0.00  0.00    -0.323 OA
HETATM    6  C   UNK N   1      28.215  18.026   9.217  0.00  0.00     0.213 C 
ENDBRANCH   3   5
ENDBRANCH   1   3
BRANCH   2   7
HETATM    7  C   UNK N   1      34.204  18.182   7.785  0.00  0.00     0.282 C 
HETATM    8  O   UNK N   1      34.888  18.991   8.399  0.00  0.00    -0.260 OA
BRANCH   7   9
HETATM    9  O   UNK N   1      34.567  17.769   6.548  0.00  0.00    -0.323 OA
HETATM   10  C   UNK N   1      34.179  16.555   6.035  0.00  0.00     0.213 C 
ENDBRANCH   7   9
ENDBRANCH   2   7
TORSDOF 4
ENDMDL
MODEL 6
REMARK VINA RESULT:      -4.0      2.944      4.048
REMARK  4 active torsions:
REMARK  status: ('A' for Active; 'I' for Inactive)
REMARK    1  A    between atoms: C_5  and  C_3 
REMARK    2  A    between atoms: C_6  and  C_4 
REMARK    3  A    between atoms: O_9  and  C_5 
REMARK    4  A    between atoms: O_10  and  C_6 
ROOT
HETATM    1  C   UNK N   1      32.276  17.946   8.437  0.00  0.00     0.088 C 
HETATM    2  C   UNK N   1      33.482  17.361   8.433  0.00  0.00     0.088 C 
ENDROOT
BRANCH   1   3
HETATM    3  C   UNK N   1      31.060  17.216   8.039  0.00  0.00     0.282 C 
HETATM    4  O   UNK N   1      31.126  16.273   7.262  0.00  0.00    -0.260 OA
BRANCH   3   5
HETATM    5  O   UNK N   1      29.869  17.608   8.550  0.00  0.00    -0.323 OA
HETATM    6  C   UNK N   1      29.766  18.594   9.501  0.00  0.00     0.213 C 
ENDBRANCH   3   5
ENDBRANCH   1   3
BRANCH   2   7
HETATM    7  C   UNK N   1      34.698  18.092   8.831  0.00  0.00     0.282 C 
HETATM    8  O   UNK N   1      35.058  19.087   8.216  0.00  0.00    -0.260 OA
BRANCH   7   9
HETATM    9  O   UNK N   1      35.410  17.641   9.891  0.00  0.00    -0.323 OA
HETATM   10  C   UNK N   1      35.215  16.391  10.430  0.00  0.00     0.213 C 
ENDBRANCH   7   9
ENDBRANCH   2   7
TORSDOF 4
ENDMDL
MODEL 7
REMARK VINA RESULT:      -3.9      3.481      4.665
REMARK  4 active torsions:
REMARK  status: ('A' for Active; 'I' for Inactive)
REMARK    1  A    between atoms: C_5  and  C_3 
REMARK    2  A    between atoms: C_6  and  C_4 
REMARK    3  A    between atoms: O_9  and  C_5 
REMARK    4  A    between atoms: O_10  and  C_6 
ROOT
HETATM    1  C   UNK N   1      32.935  17.803   8.361  0.00  0.00     0.088 C 
HETATM    2  C   UNK N   1      31.842  18.578   8.321  0.00  0.00     0.088 C 
ENDROOT
BRANCH   1   3
HETATM    3  C   UNK N   1      34.221  18.247   7.796  0.00  0.00     0.282 C 
HETATM    4  O   UNK N   1      34.919  19.054   8.395  0.00  0.00    -0.260 OA
BRANCH   3   5
HETATM    5  O   UNK N   1      34.614  17.746   6.602  0.00  0.00    -0.323 OA
HETATM    6  C   UNK N   1      33.790  16.970   5.822  0.00  0.00     0.213 C 
ENDBRANCH   3   5
ENDBRANCH   1   3
BRANCH   2   7
HETATM    7  C   UNK N   1      30.556  18.134   8.886  0.00  0.00     0.282 C 
HETATM    8  O   UNK N   1      30.034  18.748   9.807  0.00  0.00    -0.260 OA
BRANCH   7   9
HETATM    9  O   UNK N   1      29.964  17.032   8.367  0.00  0.00    -0.323 OA
HETATM   10  C   UNK N   1      29.680  16.912   7.028  0.00  0.00     0.213 C 
ENDBRANCH   7   9
ENDBRANCH   2   7
TORSDOF 4
ENDMDL
MODEL 8
REMARK VINA RESULT:      -3.9     12.287     14.648
REMARK  4 active torsions:
REMARK  status: ('A' for Active; 'I' for Inactive)
REMARK    1  A    between atoms: C_5  and  C_3 
REMARK    2  A    between atoms: C_6  and  C_4 
REMARK    3  A    between atoms: O_9  and  C_5 
REMARK    4  A    between atoms: O_10  and  C_6 
ROOT
HETATM    1  C   UNK N   1      23.293  19.968   3.280  0.00  0.00     0.088 C 
HETATM    2  C   UNK N   1      22.249  20.567   2.688  0.00  0.00     0.088 C 
ENDROOT
BRANCH   1   3
HETATM    3  C   UNK N   1      24.680  20.375   2.999  0.00  0.00     0.282 C 
HETATM    4  O   UNK N   1      25.000  20.777   1.888  0.00  0.00    -0.260 OA
BRANCH   3   5
HETATM    5  O   UNK N   1      25.595  20.297   3.994  0.00  0.00    -0.323 OA
HETATM    6  C   UNK N   1      26.929  20.070   3.751  0.00  0.00     0.213 C 
ENDBRANCH   3   5
ENDBRANCH   1   3
BRANCH   2   7
HETATM    7  C   UNK N   1      20.862  20.160   2.969  0.00  0.00     0.282 C 
HETATM    8  O   UNK N   1      20.221  20.702   3.861  0.00  0.00    -0.260 OA
BRANCH   7   9
HETATM    9  O   UNK N   1      20.309  19.175   2.222  0.00  0.00    -0.323 OA
HETATM   10  C   UNK N   1      19.783  18.035   2.782  0.00  0.00     0.213 C 
ENDBRANCH   7   9
ENDBRANCH   2   7
TORSDOF 4
ENDMDL
MODEL 9
REMARK VINA RESULT:      -3.9      6.669      9.224
REMARK  4 active torsions:
REMARK  status: ('A' for Active; 'I' for Inactive)
REMARK    1  A    between atoms: C_5  and  C_3 
REMARK    2  A    between atoms: C_6  and  C_4 
REMARK    3  A    between atoms: O_9  and  C_5 
REMARK    4  A    between atoms: O_10  and  C_6 
ROOT
HETATM    1  C   UNK N   1      34.845  13.083  17.258  0.00  0.00     0.088 C 
HETATM    2  C   UNK N   1      35.423  13.360  16.080  0.00  0.00     0.088 C 
ENDROOT
BRANCH   1   3
HETATM    3  C   UNK N   1      35.244  13.771  18.497  0.00  0.00     0.282 C 
HETATM    4  O   UNK N   1      35.315  14.993  18.537  0.00  0.00    -0.260 OA
BRANCH   3   5
HETATM    5  O   UNK N   1      35.531  13.027  19.591  0.00  0.00    -0.323 OA
HETATM    6  C   UNK N   1      35.338  11.667  19.626  0.00  0.00     0.213 C 
ENDBRANCH   3   5
ENDBRANCH   1   3
BRANCH   2   7
HETATM    7  C   UNK N   1      35.024  12.672  14.840  0.00  0.00     0.282 C 
HETATM    8  O   UNK N   1      34.825  13.305  13.812  0.00  0.00    -0.260 OA
BRANCH   7   9
HETATM    9  O   UNK N   1      34.881  11.326  14.861  0.00  0.00    -0.323 OA
HETATM   10  C   UNK N   1      33.675  10.711  14.625  0.00  0.00     0.213 C 
ENDBRANCH   7   9
ENDBRANCH   2   7
TORSDOF 4
ENDMDL
