MODEL 1
REMARK VINA RESULT:      -7.8      0.000      0.000
REMARK  7 active torsions:
REMARK  status: ('A' for Active; 'I' for Inactive)
REMARK    1  A    between atoms: C_17  and  C_15 
REMARK    2  A    between atoms: C_18  and  C_15 
REMARK    3  A    between atoms: C_21  and  C_16 
REMARK    4  A    between atoms: N_22  and  C_16 
REMARK    5  A    between atoms: C_21  and  C_19 
REMARK    6  A    between atoms: O_23  and  C_20 
REMARK    7  A    between atoms: O_24  and  C_21 
ROOT
HETATM    1  C   UNK N   1      37.305  12.272  13.976  0.00  0.00     0.035 C 
HETATM    2  C   UNK N   1      36.778  14.636  14.416  0.00  0.00     0.035 C 
HETATM    3  C   UNK N   1      36.475  12.368  12.688  0.00  0.00     0.273 C 
HETATM    4  C   UNK N   1      35.954  14.651  13.133  0.00  0.00     0.273 C 
HETATM    5  C   UNK N   1      36.762  13.237  15.026  0.00  0.00    -0.007 C 
HETATM    6  N   UNK N   1      36.485  13.724  12.115  0.00  0.00     0.095 N 
ENDROOT
BRANCH   6   7
HETATM    7  C   UNK N   1      35.543  13.737  10.972  0.00  0.00     0.252 C 
HETATM    8  C   UNK N   1      34.710  12.455  10.863  0.00  0.00     0.046 C 
BRANCH   7   9
HETATM    9  C   UNK N   1      34.625  14.984  10.860  0.00  0.00     0.184 C 
BRANCH   9  10
HETATM   10  C   UNK N   1      34.602  15.742   9.549  0.00  0.00    -0.027 A 
HETATM   11  C   UNK N   1      34.433  15.065   8.329  0.00  0.00     0.012 A 
HETATM   12  C   UNK N   1      34.304  15.780   7.134  0.00  0.00     0.037 A 
HETATM   13  C   UNK N   1      34.333  17.178   7.146  0.00  0.00     0.065 A 
HETATM   14  C   UNK N   1      34.504  17.859   8.355  0.00  0.00     0.037 A 
HETATM   15  C   UNK N   1      34.627  17.145   9.548  0.00  0.00     0.012 A 
BRANCH  13  16
HETATM   16  O   UNK N   1      34.195  17.865   6.002  0.00  0.00    -0.361 OA
HETATM   17  H   UNK N   1      33.895  17.548   5.174  0.00  0.00     0.217 HD
ENDBRANCH  13  16
ENDBRANCH   9  10
BRANCH   9  18
HETATM   18  O   UNK N   1      33.336  14.720  11.332  0.00  0.00    -0.389 OA
HETATM   19  H   UNK N   1      32.700  14.241  10.778  0.00  0.00     0.210 HD
ENDBRANCH   9  18
ENDBRANCH   7   9
ENDBRANCH   6   7
BRANCH   5  20
HETATM   20  C   UNK N   1      35.369  12.771  15.490  0.00  0.00     0.043 C 
BRANCH  20  21
HETATM   21  C   UNK N   1      35.273  12.396  16.937  0.00  0.00    -0.058 A 
HETATM   22  C   UNK N   1      35.190  13.398  17.912  0.00  0.00     0.007 A 
HETATM   23  C   UNK N   1      35.145  13.056  19.267  0.00  0.00     0.001 A 
HETATM   24  C   UNK N   1      35.196  11.713  19.654  0.00  0.00     0.000 A 
HETATM   25  C   UNK N   1      35.294  10.711  18.685  0.00  0.00     0.001 A 
HETATM   26  C   UNK N   1      35.336  11.053  17.330  0.00  0.00     0.007 A 
ENDBRANCH  20  21
ENDBRANCH   5  20
TORSDOF 7
ENDMDL
MODEL 2
REMARK VINA RESULT:      -7.3     11.826     15.914
REMARK  7 active torsions:
REMARK  status: ('A' for Active; 'I' for Inactive)
REMARK    1  A    between atoms: C_17  and  C_15 
REMARK    2  A    between atoms: C_18  and  C_15 
REMARK    3  A    between atoms: C_21  and  C_16 
REMARK    4  A    between atoms: N_22  and  C_16 
REMARK    5  A    between atoms: C_21  and  C_19 
REMARK    6  A    between atoms: O_23  and  C_20 
REMARK    7  A    between atoms: O_24  and  C_21 
ROOT
HETATM    1  C   UNK N   1      23.581  15.854   4.993  0.00  0.00     0.035 C 
HETATM    2  C   UNK N   1      21.331  16.757   4.558  0.00  0.00     0.035 C 
HETATM    3  C   UNK N   1      23.164  15.628   6.453  0.00  0.00     0.273 C 
HETATM    4  C   UNK N   1      20.995  16.520   6.027  0.00  0.00     0.273 C 
HETATM    5  C   UNK N   1      22.823  17.043   4.407  0.00  0.00    -0.007 C 
HETATM    6  N   UNK N   1      21.721  15.367   6.590  0.00  0.00     0.095 N 
ENDROOT
BRANCH   6   7
HETATM    7  C   UNK N   1      21.409  15.311   8.037  0.00  0.00     0.252 C 
HETATM    8  C   UNK N   1      20.299  16.283   8.452  0.00  0.00     0.046 C 
BRANCH   7   9
HETATM    9  C   UNK N   1      21.132  13.900   8.620  0.00  0.00     0.184 C 
BRANCH   9  10
HETATM   10  C   UNK N   1      22.220  13.234   9.436  0.00  0.00    -0.027 A 
HETATM   11  C   UNK N   1      23.564  13.296   9.031  0.00  0.00     0.012 A 
HETATM   12  C   UNK N   1      24.574  12.774   9.845  0.00  0.00     0.037 A 
HETATM   13  C   UNK N   1      24.253  12.192  11.075  0.00  0.00     0.065 A 
HETATM   14  C   UNK N   1      22.919  12.123  11.484  0.00  0.00     0.037 A 
HETATM   15  C   UNK N   1      21.911  12.649  10.674  0.00  0.00     0.012 A 
BRANCH  13  16
HETATM   16  O   UNK N   1      25.223  11.703  11.863  0.00  0.00    -0.361 OA
HETATM   17  H   UNK N   1      25.879  11.073  11.642  0.00  0.00     0.217 HD
ENDBRANCH  13  16
ENDBRANCH   9  10
BRANCH   9  18
HETATM   18  O   UNK N   1      19.890  13.840   9.260  0.00  0.00    -0.389 OA
HETATM   19  H   UNK N   1      19.803  14.114  10.186  0.00  0.00     0.210 HD
ENDBRANCH   9  18
ENDBRANCH   7   9
ENDBRANCH   6   7
BRANCH   5  20
HETATM   20  C   UNK N   1      23.284  18.343   5.092  0.00  0.00     0.043 C 
BRANCH  20  21
HETATM   21  C   UNK N   1      24.395  19.069   4.397  0.00  0.00    -0.058 A 
HETATM   22  C   UNK N   1      25.699  18.993   4.899  0.00  0.00     0.007 A 
HETATM   23  C   UNK N   1      26.732  19.704   4.282  0.00  0.00     0.001 A 
HETATM   24  C   UNK N   1      26.464  20.505   3.166  0.00  0.00     0.000 A 
HETATM   25  C   UNK N   1      25.160  20.595   2.670  0.00  0.00     0.001 A 
HETATM   26  C   UNK N   1      24.128  19.881   3.287  0.00  0.00     0.007 A 
ENDBRANCH  20  21
ENDBRANCH   5  20
TORSDOF 7
ENDMDL
MODEL 3
REMARK VINA RESULT:      -7.2      2.938      4.766
REMARK  7 active torsions:
REMARK  status: ('A' for Active; 'I' for Inactive)
REMARK    1  A    between atoms: C_17  and  C_15 
REMARK    2  A    between atoms: C_18  and  C_15 
REMARK    3  A    between atoms: C_21  and  C_16 
REMARK    4  A    between atoms: N_22  and  C_16 
REMARK    5  A    between atoms: C_21  and  C_19 
REMARK    6  A    between atoms: O_23  and  C_20 
REMARK    7  A    between atoms: O_24  and  C_21 
ROOT
HETATM    1  C   UNK N   1      36.577  14.711   9.732  0.00  0.00     0.035 C 
HETATM    2  C   UNK N   1      35.368  16.516  10.891  0.00  0.00     0.035 C 
HETATM    3  C   UNK N   1      35.414  14.627   8.735  0.00  0.00     0.273 C 
HETATM    4  C   UNK N   1      34.242  16.362   9.874  0.00  0.00     0.273 C 
HETATM    5  C   UNK N   1      36.070  15.176  11.095  0.00  0.00    -0.007 C 
HETATM    6  N   UNK N   1      34.734  15.921   8.555  0.00  0.00     0.095 N 
ENDROOT
BRANCH   6   7
HETATM    7  C   UNK N   1      33.550  15.692   7.695  0.00  0.00     0.252 C 
HETATM    8  C   UNK N   1      32.478  14.825   8.363  0.00  0.00     0.046 C 
BRANCH   7   9
HETATM    9  C   UNK N   1      32.903  16.961   7.076  0.00  0.00     0.184 C 
BRANCH   9  10
HETATM   10  C   UNK N   1      31.537  17.386   7.574  0.00  0.00    -0.027 A 
HETATM   11  C   UNK N   1      31.405  18.168   8.734  0.00  0.00     0.012 A 
HETATM   12  C   UNK N   1      30.151  18.647   9.126  0.00  0.00     0.037 A 
HETATM   13  C   UNK N   1      29.018  18.357   8.360  0.00  0.00     0.065 A 
HETATM   14  C   UNK N   1      29.140  17.576   7.208  0.00  0.00     0.037 A 
HETATM   15  C   UNK N   1      30.393  17.103   6.813  0.00  0.00     0.012 A 
BRANCH  13  16
HETATM   16  O   UNK N   1      27.817  18.828   8.728  0.00  0.00    -0.361 OA
HETATM   17  H   UNK N   1      27.309  19.495   8.312  0.00  0.00     0.217 HD
ENDBRANCH  13  16
ENDBRANCH   9  10
BRANCH   9  18
HETATM   18  O   UNK N   1      33.801  18.032   7.039  0.00  0.00    -0.389 OA
HETATM   19  H   UNK N   1      34.661  17.934   6.603  0.00  0.00     0.210 HD
ENDBRANCH   9  18
ENDBRANCH   7   9
ENDBRANCH   6   7
BRANCH   5  20
HETATM   20  C   UNK N   1      35.174  14.088  11.716  0.00  0.00     0.043 C 
BRANCH  20  21
HETATM   21  C   UNK N   1      35.536  13.687  13.113  0.00  0.00    -0.058 A 
HETATM   22  C   UNK N   1      34.908  12.586  13.707  0.00  0.00     0.007 A 
HETATM   23  C   UNK N   1      35.208  12.233  15.026  0.00  0.00     0.001 A 
HETATM   24  C   UNK N   1      36.129  12.987  15.761  0.00  0.00     0.000 A 
HETATM   25  C   UNK N   1      36.748  14.095  15.177  0.00  0.00     0.001 A 
HETATM   26  C   UNK N   1      36.449  14.446  13.857  0.00  0.00     0.007 A 
ENDBRANCH  20  21
ENDBRANCH   5  20
TORSDOF 7
ENDMDL
MODEL 4
REMARK VINA RESULT:      -7.2      3.130      8.833
REMARK  7 active torsions:
REMARK  status: ('A' for Active; 'I' for Inactive)
REMARK    1  A    between atoms: C_17  and  C_15 
REMARK    2  A    between atoms: C_18  and  C_15 
REMARK    3  A    between atoms: C_21  and  C_16 
REMARK    4  A    between atoms: N_22  and  C_16 
REMARK    5  A    between atoms: C_21  and  C_19 
REMARK    6  A    between atoms: O_23  and  C_20 
REMARK    7  A    between atoms: O_24  and  C_21 
ROOT
HETATM    1  C   UNK N   1      36.443  14.483  11.893  0.00  0.00     0.035 C 
HETATM    2  C   UNK N   1      35.493  12.645  10.557  0.00  0.00     0.035 C 
HETATM    3  C   UNK N   1      35.846  13.827  13.146  0.00  0.00     0.273 C 
HETATM    4  C   UNK N   1      34.914  12.062  11.842  0.00  0.00     0.273 C 
HETATM    5  C   UNK N   1      35.584  14.164  10.672  0.00  0.00    -0.007 C 
HETATM    6  N   UNK N   1      35.749  12.363  13.021  0.00  0.00     0.095 N 
ENDROOT
BRANCH   6   7
HETATM    7  C   UNK N   1      35.031  11.855  14.213  0.00  0.00     0.252 C 
HETATM    8  C   UNK N   1      33.941  10.834  13.870  0.00  0.00     0.046 C 
BRANCH   7   9
HETATM    9  C   UNK N   1      35.921  11.323  15.368  0.00  0.00     0.184 C 
BRANCH   9  10
HETATM   10  C   UNK N   1      35.705  11.885  16.757  0.00  0.00    -0.027 A 
HETATM   11  C   UNK N   1      35.458  13.256  16.949  0.00  0.00     0.012 A 
HETATM   12  C   UNK N   1      35.152  13.749  18.221  0.00  0.00     0.037 A 
HETATM   13  C   UNK N   1      35.081  12.878  19.313  0.00  0.00     0.065 A 
HETATM   14  C   UNK N   1      35.327  11.515  19.132  0.00  0.00     0.037 A 
HETATM   15  C   UNK N   1      35.627  11.022  17.861  0.00  0.00     0.012 A 
BRANCH  13  16
HETATM   16  O   UNK N   1      34.773  13.349  20.531  0.00  0.00    -0.361 OA
HETATM   17  H   UNK N   1      34.412  12.878  21.255  0.00  0.00     0.217 HD
ENDBRANCH  13  16
ENDBRANCH   9  10
BRANCH   9  18
HETATM   18  O   UNK N   1      35.978   9.926  15.374  0.00  0.00    -0.389 OA
HETATM   19  H   UNK N   1      35.197   9.406  15.617  0.00  0.00     0.210 HD
ENDBRANCH   9  18
ENDBRANCH   7   9
ENDBRANCH   6   7
BRANCH   5  20
HETATM   20  C   UNK N   1      34.219  14.866  10.799  0.00  0.00     0.043 C 
BRANCH  20  21
HETATM   21  C   UNK N   1      33.879  15.802   9.680  0.00  0.00    -0.058 A 
HETATM   22  C   UNK N   1      34.692  16.914   9.431  0.00  0.00     0.007 A 
HETATM   23  C   UNK N   1      34.355  17.817   8.417  0.00  0.00     0.001 A 
HETATM   24  C   UNK N   1      33.198  17.619   7.657  0.00  0.00     0.000 A 
HETATM   25  C   UNK N   1      32.376  16.517   7.912  0.00  0.00     0.001 A 
HETATM   26  C   UNK N   1      32.714  15.614   8.924  0.00  0.00     0.007 A 
ENDBRANCH  20  21
ENDBRANCH   5  20
TORSDOF 7
ENDMDL
MODEL 5
REMARK VINA RESULT:      -7.1     19.369     23.358
REMARK  7 active torsions:
REMARK  status: ('A' for Active; 'I' for Inactive)
REMARK    1  A    between atoms: C_17  and  C_15 
REMARK    2  A    between atoms: C_18  and  C_15 
REMARK    3  A    between atoms: C_21  and  C_16 
REMARK    4  A    between atoms: N_22  and  C_16 
REMARK    5  A    between atoms: C_21  and  C_19 
REMARK    6  A    between atoms: O_23  and  C_20 
REMARK    7  A    between atoms: O_24  and  C_21 
ROOT
HETATM    1  C   UNK N   1      26.713  26.725  -7.662  0.00  0.00     0.035 C 
HETATM    2  C   UNK N   1      25.203  26.570  -5.723  0.00  0.00     0.035 C 
HETATM    3  C   UNK N   1      27.090  25.255  -7.435  0.00  0.00     0.273 C 
HETATM    4  C   UNK N   1      25.640  25.119  -5.548  0.00  0.00     0.273 C 
HETATM    5  C   UNK N   1      26.340  27.383  -6.336  0.00  0.00    -0.007 C 
HETATM    6  N   UNK N   1      25.993  24.481  -6.830  0.00  0.00     0.095 N 
ENDROOT
BRANCH   6   7
HETATM    7  C   UNK N   1      26.511  23.128  -6.523  0.00  0.00     0.252 C 
HETATM    8  C   UNK N   1      25.815  22.020  -7.320  0.00  0.00     0.046 C 
BRANCH   7   9
HETATM    9  C   UNK N   1      28.052  22.956  -6.599  0.00  0.00     0.184 C 
BRANCH   9  10
HETATM   10  C   UNK N   1      28.843  22.989  -5.308  0.00  0.00    -0.027 A 
HETATM   11  C   UNK N   1      28.578  23.959  -4.326  0.00  0.00     0.012 A 
HETATM   12  C   UNK N   1      29.236  23.916  -3.093  0.00  0.00     0.037 A 
HETATM   13  C   UNK N   1      30.159  22.901  -2.824  0.00  0.00     0.065 A 
HETATM   14  C   UNK N   1      30.431  21.935  -3.796  0.00  0.00     0.037 A 
HETATM   15  C   UNK N   1      29.769  21.973  -5.025  0.00  0.00     0.012 A 
BRANCH  13  16
HETATM   16  O   UNK N   1      30.780  22.851  -1.636  0.00  0.00    -0.361 OA
HETATM   17  H   UNK N   1      31.170  22.108  -1.222  0.00  0.00     0.217 HD
ENDBRANCH  13  16
ENDBRANCH   9  10
BRANCH   9  18
HETATM   18  O   UNK N   1      28.412  21.870  -7.403  0.00  0.00    -0.389 OA
HETATM   19  H   UNK N   1      28.241  20.963  -7.104  0.00  0.00     0.210 HD
ENDBRANCH   9  18
ENDBRANCH   7   9
ENDBRANCH   6   7
BRANCH   5  20
HETATM   20  C   UNK N   1      27.587  27.492  -5.439  0.00  0.00     0.043 C 
BRANCH  20  21
HETATM   21  C   UNK N   1      27.529  28.567  -4.397  0.00  0.00    -0.058 A 
HETATM   22  C   UNK N   1      26.705  29.682  -4.591  0.00  0.00     0.007 A 
HETATM   23  C   UNK N   1      26.681  30.710  -3.644  0.00  0.00     0.001 A 
HETATM   24  C   UNK N   1      27.489  30.634  -2.505  0.00  0.00     0.000 A 
HETATM   25  C   UNK N   1      28.323  29.529  -2.314  0.00  0.00     0.001 A 
HETATM   26  C   UNK N   1      28.346  28.500  -3.261  0.00  0.00     0.007 A 
ENDBRANCH  20  21
ENDBRANCH   5  20
TORSDOF 7
ENDMDL
MODEL 6
REMARK VINA RESULT:      -7.1      2.511      9.395
REMARK  7 active torsions:
REMARK  status: ('A' for Active; 'I' for Inactive)
REMARK    1  A    between atoms: C_17  and  C_15 
REMARK    2  A    between atoms: C_18  and  C_15 
REMARK    3  A    between atoms: C_21  and  C_16 
REMARK    4  A    between atoms: N_22  and  C_16 
REMARK    5  A    between atoms: C_21  and  C_19 
REMARK    6  A    between atoms: O_23  and  C_20 
REMARK    7  A    between atoms: O_24  and  C_21 
ROOT
HETATM    1  C   UNK N   1      32.893  15.683   8.977  0.00  0.00     0.035 C 
HETATM    2  C   UNK N   1      34.831  17.078   9.578  0.00  0.00     0.035 C 
HETATM    3  C   UNK N   1      33.587  14.496   9.659  0.00  0.00     0.273 C 
HETATM    4  C   UNK N   1      35.467  15.849  10.221  0.00  0.00     0.273 C 
HETATM    5  C   UNK N   1      33.934  16.652   8.420  0.00  0.00    -0.007 C 
HETATM    6  N   UNK N   1      34.462  14.918  10.766  0.00  0.00     0.095 N 
ENDROOT
BRANCH   6   7
HETATM    7  C   UNK N   1      35.185  13.720  11.250  0.00  0.00     0.252 C 
HETATM    8  C   UNK N   1      35.714  12.836  10.116  0.00  0.00     0.046 C 
BRANCH   7   9
HETATM    9  C   UNK N   1      36.304  13.977  12.296  0.00  0.00     0.184 C 
BRANCH   9  10
HETATM   10  C   UNK N   1      36.030  13.620  13.742  0.00  0.00    -0.027 A 
HETATM   11  C   UNK N   1      36.713  14.267  14.785  0.00  0.00     0.012 A 
HETATM   12  C   UNK N   1      36.378  14.011  16.118  0.00  0.00     0.037 A 
HETATM   13  C   UNK N   1      35.351  13.111  16.423  0.00  0.00     0.065 A 
HETATM   14  C   UNK N   1      34.670  12.460  15.392  0.00  0.00     0.037 A 
HETATM   15  C   UNK N   1      35.000  12.721  14.060  0.00  0.00     0.012 A 
BRANCH  13  16
HETATM   16  O   UNK N   1      35.020  12.875  17.701  0.00  0.00    -0.361 OA
HETATM   17  H   UNK N   1      35.549  12.995  18.464  0.00  0.00     0.217 HD
ENDBRANCH  13  16
ENDBRANCH   9  10
BRANCH   9  18
HETATM   18  O   UNK N   1      37.539  13.484  11.862  0.00  0.00    -0.389 OA
HETATM   19  H   UNK N   1      38.256  13.336  12.498  0.00  0.00     0.210 HD
ENDBRANCH   9  18
ENDBRANCH   7   9
ENDBRANCH   6   7
BRANCH   5  20
HETATM   20  C   UNK N   1      34.689  15.989   7.253  0.00  0.00     0.043 C 
BRANCH  20  21
HETATM   21  C   UNK N   1      34.108  16.239   5.895  0.00  0.00    -0.058 A 
HETATM   22  C   UNK N   1      33.445  17.444   5.632  0.00  0.00     0.007 A 
HETATM   23  C   UNK N   1      32.861  17.665   4.381  0.00  0.00     0.001 A 
HETATM   24  C   UNK N   1      32.926  16.678   3.391  0.00  0.00     0.000 A 
HETATM   25  C   UNK N   1      33.575  15.469   3.655  0.00  0.00     0.001 A 
HETATM   26  C   UNK N   1      34.161  15.249   4.905  0.00  0.00     0.007 A 
ENDBRANCH  20  21
ENDBRANCH   5  20
TORSDOF 7
ENDMDL
MODEL 7
REMARK VINA RESULT:      -7.0     18.743     23.022
REMARK  7 active torsions:
REMARK  status: ('A' for Active; 'I' for Inactive)
REMARK    1  A    between atoms: C_17  and  C_15 
REMARK    2  A    between atoms: C_18  and  C_15 
REMARK    3  A    between atoms: C_21  and  C_16 
REMARK    4  A    between atoms: N_22  and  C_16 
REMARK    5  A    between atoms: C_21  and  C_19 
REMARK    6  A    between atoms: O_23  and  C_20 
REMARK    7  A    between atoms: O_24  and  C_21 
ROOT
HETATM    1  C   UNK N   1      25.593  23.533  -5.663  0.00  0.00     0.035 C 
HETATM    2  C   UNK N   1      27.298  24.821  -4.439  0.00  0.00     0.035 C 
HETATM    3  C   UNK N   1      26.633  23.276  -6.761  0.00  0.00     0.273 C 
HETATM    4  C   UNK N   1      28.272  24.540  -5.579  0.00  0.00     0.273 C 
HETATM    5  C   UNK N   1      25.870  24.868  -4.977  0.00  0.00    -0.007 C 
HETATM    6  N   UNK N   1      28.009  23.246  -6.235  0.00  0.00     0.095 N 
ENDROOT
BRANCH   6   7
HETATM    7  C   UNK N   1      28.930  23.140  -7.390  0.00  0.00     0.252 C 
HETATM    8  C   UNK N   1      29.364  24.502  -7.942  0.00  0.00     0.046 C 
BRANCH   7   9
HETATM    9  C   UNK N   1      30.168  22.223  -7.192  0.00  0.00     0.184 C 
BRANCH   9  10
HETATM   10  C   UNK N   1      30.711  22.045  -5.790  0.00  0.00    -0.027 A 
HETATM   11  C   UNK N   1      30.320  20.951  -5.000  0.00  0.00     0.012 A 
HETATM   12  C   UNK N   1      30.908  20.734  -3.749  0.00  0.00     0.037 A 
HETATM   13  C   UNK N   1      31.898  21.603  -3.279  0.00  0.00     0.065 A 
HETATM   14  C   UNK N   1      32.291  22.695  -4.057  0.00  0.00     0.037 A 
HETATM   15  C   UNK N   1      31.708  22.908  -5.308  0.00  0.00     0.012 A 
BRANCH  13  16
HETATM   16  O   UNK N   1      32.473  21.387  -2.086  0.00  0.00    -0.361 OA
HETATM   17  H   UNK N   1      32.109  20.945  -1.345  0.00  0.00     0.217 HD
ENDBRANCH  13  16
ENDBRANCH   9  10
BRANCH   9  18
HETATM   18  O   UNK N   1      30.015  21.000  -7.851  0.00  0.00    -0.389 OA
HETATM   19  H   UNK N   1      30.746  20.629  -8.368  0.00  0.00     0.210 HD
ENDBRANCH   9  18
ENDBRANCH   7   9
ENDBRANCH   6   7
BRANCH   5  20
HETATM   20  C   UNK N   1      25.610  26.023  -5.962  0.00  0.00     0.043 C 
BRANCH  20  21
HETATM   21  C   UNK N   1      26.097  27.366  -5.511  0.00  0.00    -0.058 A 
HETATM   22  C   UNK N   1      27.080  28.035  -6.249  0.00  0.00     0.007 A 
HETATM   23  C   UNK N   1      27.572  29.268  -5.810  0.00  0.00     0.001 A 
HETATM   24  C   UNK N   1      27.091  29.832  -4.623  0.00  0.00     0.000 A 
HETATM   25  C   UNK N   1      26.119  29.161  -3.876  0.00  0.00     0.001 A 
HETATM   26  C   UNK N   1      25.627  27.929  -4.317  0.00  0.00     0.007 A 
ENDBRANCH  20  21
ENDBRANCH   5  20
TORSDOF 7
ENDMDL
MODEL 8
REMARK VINA RESULT:      -7.0      9.559     14.666
REMARK  7 active torsions:
REMARK  status: ('A' for Active; 'I' for Inactive)
REMARK    1  A    between atoms: C_17  and  C_15 
REMARK    2  A    between atoms: C_18  and  C_15 
REMARK    3  A    between atoms: C_21  and  C_16 
REMARK    4  A    between atoms: N_22  and  C_16 
REMARK    5  A    between atoms: C_21  and  C_19 
REMARK    6  A    between atoms: O_23  and  C_20 
REMARK    7  A    between atoms: O_24  and  C_21 
ROOT
HETATM    1  C   UNK N   1      25.948  20.219   3.160  0.00  0.00     0.035 C 
HETATM    2  C   UNK N   1      25.843  17.858   3.852  0.00  0.00     0.035 C 
HETATM    3  C   UNK N   1      26.595  20.545   4.513  0.00  0.00     0.273 C 
HETATM    4  C   UNK N   1      26.473  18.260   5.182  0.00  0.00     0.273 C 
HETATM    5  C   UNK N   1      25.018  19.016   3.298  0.00  0.00    -0.007 C 
HETATM    6  N   UNK N   1      27.378  19.417   5.047  0.00  0.00     0.095 N 
ENDROOT
BRANCH   6   7
HETATM    7  C   UNK N   1      27.829  19.787   6.408  0.00  0.00     0.252 C 
HETATM    8  C   UNK N   1      26.973  20.883   7.051  0.00  0.00     0.046 C 
BRANCH   7   9
HETATM    9  C   UNK N   1      28.028  18.610   7.402  0.00  0.00     0.184 C 
BRANCH   9  10
HETATM   10  C   UNK N   1      29.400  17.976   7.498  0.00  0.00    -0.027 A 
HETATM   11  C   UNK N   1      29.894  17.169   6.459  0.00  0.00     0.012 A 
HETATM   12  C   UNK N   1      31.202  16.677   6.505  0.00  0.00     0.037 A 
HETATM   13  C   UNK N   1      32.033  16.992   7.585  0.00  0.00     0.065 A 
HETATM   14  C   UNK N   1      31.549  17.791   8.623  0.00  0.00     0.037 A 
HETATM   15  C   UNK N   1      30.245  18.288   8.574  0.00  0.00     0.012 A 
BRANCH  13  16
HETATM   16  O   UNK N   1      33.293  16.532   7.623  0.00  0.00    -0.361 OA
HETATM   17  H   UNK N   1      34.079  17.021   7.757  0.00  0.00     0.217 HD
ENDBRANCH  13  16
ENDBRANCH   9  10
BRANCH   9  18
HETATM   18  O   UNK N   1      27.502  18.905   8.663  0.00  0.00    -0.389 OA
HETATM   19  H   UNK N   1      27.316  18.192   9.294  0.00  0.00     0.210 HD
ENDBRANCH   9  18
ENDBRANCH   7   9
ENDBRANCH   6   7
BRANCH   5  20
HETATM   20  C   UNK N   1      23.804  19.393   4.168  0.00  0.00     0.043 C 
BRANCH  20  21
HETATM   21  C   UNK N   1      22.469  19.191   3.519  0.00  0.00    -0.058 A 
HETATM   22  C   UNK N   1      21.806  17.966   3.658  0.00  0.00     0.007 A 
HETATM   23  C   UNK N   1      20.581  17.755   3.018  0.00  0.00     0.001 A 
HETATM   24  C   UNK N   1      20.019  18.763   2.227  0.00  0.00     0.000 A 
HETATM   25  C   UNK N   1      20.685  19.982   2.075  0.00  0.00     0.001 A 
HETATM   26  C   UNK N   1      21.909  20.194   2.716  0.00  0.00     0.007 A 
ENDBRANCH  20  21
ENDBRANCH   5  20
TORSDOF 7
ENDMDL
MODEL 9
REMARK VINA RESULT:      -6.9      2.054      2.978
REMARK  7 active torsions:
REMARK  status: ('A' for Active; 'I' for Inactive)
REMARK    1  A    between atoms: C_17  and  C_15 
REMARK    2  A    between atoms: C_18  and  C_15 
REMARK    3  A    between atoms: C_21  and  C_16 
REMARK    4  A    between atoms: N_22  and  C_16 
REMARK    5  A    between atoms: C_21  and  C_19 
REMARK    6  A    between atoms: O_23  and  C_20 
REMARK    7  A    between atoms: O_24  and  C_21 
ROOT
HETATM    1  C   UNK N   1      33.862  10.790  14.730  0.00  0.00     0.035 C 
HETATM    2  C   UNK N   1      35.383   8.926  14.204  0.00  0.00     0.035 C 
HETATM    3  C   UNK N   1      34.418  11.535  13.509  0.00  0.00     0.273 C 
HETATM    4  C   UNK N   1      35.901   9.734  13.019  0.00  0.00     0.273 C 
HETATM    5  C   UNK N   1      34.928   9.868  15.316  0.00  0.00    -0.007 C 
HETATM    6  N   UNK N   1      34.867  10.618  12.448  0.00  0.00     0.095 N 
ENDROOT
BRANCH   6   7
HETATM    7  C   UNK N   1      35.515  11.432  11.393  0.00  0.00     0.252 C 
HETATM    8  C   UNK N   1      36.455  10.619  10.497  0.00  0.00     0.046 C 
BRANCH   7   9
HETATM    9  C   UNK N   1      34.565  12.302  10.526  0.00  0.00     0.184 C 
BRANCH   9  10
HETATM   10  C   UNK N   1      34.897  13.769  10.350  0.00  0.00    -0.027 A 
HETATM   11  C   UNK N   1      34.811  14.381   9.088  0.00  0.00     0.012 A 
HETATM   12  C   UNK N   1      35.012  15.758   8.953  0.00  0.00     0.037 A 
HETATM   13  C   UNK N   1      35.295  16.539  10.077  0.00  0.00     0.065 A 
HETATM   14  C   UNK N   1      35.386  15.939  11.336  0.00  0.00     0.037 A 
HETATM   15  C   UNK N   1      35.178  14.565  11.471  0.00  0.00     0.012 A 
BRANCH  13  16
HETATM   16  O   UNK N   1      35.475  17.863   9.950  0.00  0.00    -0.361 OA
HETATM   17  H   UNK N   1      34.852  18.544  10.105  0.00  0.00     0.217 HD
ENDBRANCH  13  16
ENDBRANCH   9  10
BRANCH   9  18
HETATM   18  O   UNK N   1      34.270  11.685   9.306  0.00  0.00    -0.389 OA
HETATM   19  H   UNK N   1      33.654  10.936   9.274  0.00  0.00     0.210 HD
ENDBRANCH   9  18
ENDBRANCH   7   9
ENDBRANCH   6   7
BRANCH   5  20
HETATM   20  C   UNK N   1      36.064  10.710  15.927  0.00  0.00     0.043 C 
BRANCH  20  21
HETATM   21  C   UNK N   1      35.706  11.447  17.181  0.00  0.00    -0.058 A 
HETATM   22  C   UNK N   1      35.438  12.820  17.129  0.00  0.00     0.007 A 
HETATM   23  C   UNK N   1      35.147  13.524  18.302  0.00  0.00     0.001 A 
HETATM   24  C   UNK N   1      35.135  12.860  19.533  0.00  0.00     0.000 A 
HETATM   25  C   UNK N   1      35.416  11.492  19.591  0.00  0.00     0.001 A 
HETATM   26  C   UNK N   1      35.705  10.789  18.417  0.00  0.00     0.007 A 
ENDBRANCH  20  21
ENDBRANCH   5  20
TORSDOF 7
ENDMDL
