MODEL 1
REMARK VINA RESULT:      -7.4      0.000      0.000
REMARK  11 active torsions:
REMARK  status: ('A' for Active; 'I' for Inactive)
REMARK    1  A    between atoms: C_1  and  C_2 
REMARK    2  A    between atoms: C_1  and  C_3 
REMARK    3  A    between atoms: C_1  and  C_28 
REMARK    4  A    between atoms: C_1  and  O_33 
REMARK    5  A    between atoms: C_3  and  O_4 
REMARK    6  A    between atoms: C_6  and  O_4 
REMARK    7  A    between atoms: N_11  and  C_14 
REMARK    8  A    between atoms: C_14  and  C_19 
REMARK    9  A    between atoms: C_19  and  C_20 
REMARK   10  A    between atoms: C_20  and  O_21 
REMARK   11  A    between atoms: O_21  and  C_22 
ROOT
HETATM    1  C   UNK N   1      36.016  14.441  12.415  0.00  0.00     0.162 C 
HETATM    2  C   UNK N   1      36.665  13.218  11.750  0.00  0.00     0.020 C 
HETATM    3  C   UNK N   1      35.086  15.169  11.407  0.00  0.00     0.270 C 
HETATM    4  C   UNK N   1      37.431  13.727  10.522  0.00  0.00     0.035 C 
HETATM    5  C   UNK N   1      35.548  12.301  11.243  0.00  0.00     0.035 C 
HETATM    6  N   UNK N   1      35.090  14.482  10.111  0.00  0.00    -0.065 N 
HETATM    7  C   UNK N   1      36.474  14.526   9.607  0.00  0.00     0.238 C 
HETATM    8  C   UNK N   1      34.631  13.085  10.283  0.00  0.00     0.238 C 
ENDROOT
BRANCH   1   9
HETATM    9  O   UNK N   1      35.416  14.106  13.620  0.00  0.00    -0.311 OA
BRANCH   9  10
HETATM   10  C   UNK N   1      36.019  13.525  14.697  0.00  0.00     0.305 C 
HETATM   11  O   UNK N   1      36.990  14.045  15.222  0.00  0.00    -0.261 OA
BRANCH  10  12
HETATM   12  C   UNK N   1      35.436  12.233  15.235  0.00  0.00     0.213 C 
BRANCH  12  13
HETATM   13  C   UNK N   1      35.417  12.277  16.751  0.00  0.00     0.032 A 
HETATM   14  C   UNK N   1      35.604  11.185  17.601  0.00  0.00     0.019 A 
HETATM   15  C   UNK N   1      35.459  11.515  18.979  0.00  0.00     0.008 A 
HETATM   16  C   UNK N   1      35.156  12.862  19.218  0.00  0.00     0.050 A 
HETATM   17  S   UNK N   1      35.080  13.581  17.726  0.00  0.00    -0.102 SA
ENDBRANCH  12  13
BRANCH  12  18
HETATM   18  C   UNK N   1      36.142  10.995  14.690  0.00  0.00     0.032 A 
HETATM   19  S   UNK N   1      35.414   9.666  14.019  0.00  0.00    -0.102 SA
HETATM   20  C   UNK N   1      36.743   8.862  13.431  0.00  0.00     0.050 A 
HETATM   21  C   UNK N   1      37.846   9.670  13.733  0.00  0.00     0.008 A 
HETATM   22  C   UNK N   1      37.511  10.868  14.420  0.00  0.00     0.019 A 
ENDBRANCH  12  18
BRANCH  12  23
HETATM   23  O   UNK N   1      34.114  12.161  14.795  0.00  0.00    -0.370 OA
HETATM   24  H   UNK N   1      33.206  11.905  14.569  0.00  0.00     0.212 HD
ENDBRANCH  12  23
ENDBRANCH  10  12
ENDBRANCH   9  10
ENDBRANCH   1   9
BRANCH   6  25
HETATM   25  C   UNK N   1      34.160  15.189   9.224  0.00  0.00     0.239 C 
BRANCH  25  26
HETATM   26  C   UNK N   1      34.847  15.811   8.006  0.00  0.00     0.055 C 
BRANCH  26  27
HETATM   27  C   UNK N   1      34.496  17.286   7.977  0.00  0.00     0.177 C 
BRANCH  27  28
HETATM   28  O   UNK N   1      34.307  17.788   6.703  0.00  0.00    -0.351 OA
BRANCH  28  29
HETATM   29  C   UNK N   1      33.211  17.549   5.939  0.00  0.00     0.068 A 
HETATM   30  C   UNK N   1      33.257  17.587   4.537  0.00  0.00     0.037 A 
HETATM   31  C   UNK N   1      32.102  17.386   3.779  0.00  0.00     0.003 A 
HETATM   32  C   UNK N   1      30.885  17.147   4.420  0.00  0.00     0.000 A 
HETATM   33  C   UNK N   1      30.832  17.090   5.816  0.00  0.00     0.003 A 
HETATM   34  C   UNK N   1      31.993  17.283   6.572  0.00  0.00     0.037 A 
ENDBRANCH  28  29
ENDBRANCH  27  28
ENDBRANCH  26  27
ENDBRANCH  25  26
ENDBRANCH   6  25
TORSDOF 11
ENDMDL
MODEL 2
REMARK VINA RESULT:      -7.1      1.532      2.080
REMARK  11 active torsions:
REMARK  status: ('A' for Active; 'I' for Inactive)
REMARK    1  A    between atoms: C_1  and  C_2 
REMARK    2  A    between atoms: C_1  and  C_3 
REMARK    3  A    between atoms: C_1  and  C_28 
REMARK    4  A    between atoms: C_1  and  O_33 
REMARK    5  A    between atoms: C_3  and  O_4 
REMARK    6  A    between atoms: C_6  and  O_4 
REMARK    7  A    between atoms: N_11  and  C_14 
REMARK    8  A    between atoms: C_14  and  C_19 
REMARK    9  A    between atoms: C_19  and  C_20 
REMARK   10  A    between atoms: C_20  and  O_21 
REMARK   11  A    between atoms: O_21  and  C_22 
ROOT
HETATM    1  C   UNK N   1      36.065  14.560  12.485  0.00  0.00     0.162 C 
HETATM    2  C   UNK N   1      36.495  13.315  11.695  0.00  0.00     0.020 C 
HETATM    3  C   UNK N   1      35.215  15.499  11.586  0.00  0.00     0.270 C 
HETATM    4  C   UNK N   1      37.278  13.806  10.472  0.00  0.00     0.035 C 
HETATM    5  C   UNK N   1      35.232  12.617  11.179  0.00  0.00     0.035 C 
HETATM    6  N   UNK N   1      35.063  14.929  10.242  0.00  0.00    -0.065 N 
HETATM    7  C   UNK N   1      36.417  14.810   9.672  0.00  0.00     0.238 C 
HETATM    8  C   UNK N   1      34.406  13.606  10.331  0.00  0.00     0.238 C 
ENDROOT
BRANCH   1   9
HETATM    9  O   UNK N   1      35.470  14.218  13.690  0.00  0.00    -0.311 OA
BRANCH   9  10
HETATM   10  C   UNK N   1      36.051  13.541  14.722  0.00  0.00     0.305 C 
HETATM   11  O   UNK N   1      37.065  13.964  15.253  0.00  0.00    -0.261 OA
BRANCH  10  12
HETATM   12  C   UNK N   1      35.391  12.264  15.204  0.00  0.00     0.213 C 
BRANCH  12  13
HETATM   13  C   UNK N   1      35.313  12.273  16.719  0.00  0.00     0.032 A 
HETATM   14  C   UNK N   1      35.055  13.391  17.515  0.00  0.00     0.019 A 
HETATM   15  C   UNK N   1      35.116  13.112  18.911  0.00  0.00     0.008 A 
HETATM   16  C   UNK N   1      35.424  11.780  19.217  0.00  0.00     0.050 A 
HETATM   17  S   UNK N   1      35.607  11.011  17.760  0.00  0.00    -0.102 SA
ENDBRANCH  12  13
BRANCH  12  18
HETATM   18  C   UNK N   1      36.062  11.008  14.657  0.00  0.00     0.032 A 
HETATM   19  S   UNK N   1      35.296   9.653  14.091  0.00  0.00    -0.102 SA
HETATM   20  C   UNK N   1      36.583   8.831  13.438  0.00  0.00     0.050 A 
HETATM   21  C   UNK N   1      37.701   9.654  13.628  0.00  0.00     0.008 A 
HETATM   22  C   UNK N   1      37.409  10.876  14.292  0.00  0.00     0.019 A 
ENDBRANCH  12  18
BRANCH  12  23
HETATM   23  O   UNK N   1      34.085  12.262  14.711  0.00  0.00    -0.370 OA
HETATM   24  H   UNK N   1      33.162  12.072  14.484  0.00  0.00     0.212 HD
ENDBRANCH  12  23
ENDBRANCH  10  12
ENDBRANCH   9  10
ENDBRANCH   1   9
BRANCH   6  25
HETATM   25  C   UNK N   1      34.216  15.836   9.462  0.00  0.00     0.239 C 
BRANCH  25  26
HETATM   26  C   UNK N   1      32.879  15.211   9.057  0.00  0.00     0.055 C 
BRANCH  26  27
HETATM   27  C   UNK N   1      32.586  15.626   7.628  0.00  0.00     0.177 C 
BRANCH  27  28
HETATM   28  O   UNK N   1      32.129  16.927   7.510  0.00  0.00    -0.351 OA
BRANCH  28  29
HETATM   29  C   UNK N   1      30.893  17.342   7.888  0.00  0.00     0.068 A 
HETATM   30  C   UNK N   1      29.740  17.008   7.160  0.00  0.00     0.037 A 
HETATM   31  C   UNK N   1      28.488  17.491   7.545  0.00  0.00     0.003 A 
HETATM   32  C   UNK N   1      28.379  18.318   8.666  0.00  0.00     0.000 A 
HETATM   33  C   UNK N   1      29.518  18.641   9.407  0.00  0.00     0.003 A 
HETATM   34  C   UNK N   1      30.770  18.148   9.024  0.00  0.00     0.037 A 
ENDBRANCH  28  29
ENDBRANCH  27  28
ENDBRANCH  26  27
ENDBRANCH  25  26
ENDBRANCH   6  25
TORSDOF 11
ENDMDL
MODEL 3
REMARK VINA RESULT:      -7.1      3.242     10.509
REMARK  11 active torsions:
REMARK  status: ('A' for Active; 'I' for Inactive)
REMARK    1  A    between atoms: C_1  and  C_2 
REMARK    2  A    between atoms: C_1  and  C_3 
REMARK    3  A    between atoms: C_1  and  C_28 
REMARK    4  A    between atoms: C_1  and  O_33 
REMARK    5  A    between atoms: C_3  and  O_4 
REMARK    6  A    between atoms: C_6  and  O_4 
REMARK    7  A    between atoms: N_11  and  C_14 
REMARK    8  A    between atoms: C_14  and  C_19 
REMARK    9  A    between atoms: C_19  and  C_20 
REMARK   10  A    between atoms: C_20  and  O_21 
REMARK   11  A    between atoms: O_21  and  C_22 
ROOT
HETATM    1  C   UNK N   1      34.970  14.842   9.227  0.00  0.00     0.162 C 
HETATM    2  C   UNK N   1      36.138  15.528   9.950  0.00  0.00     0.020 C 
HETATM    3  C   UNK N   1      34.542  13.561   9.993  0.00  0.00     0.270 C 
HETATM    4  C   UNK N   1      37.276  14.504  10.041  0.00  0.00     0.035 C 
HETATM    5  C   UNK N   1      35.694  15.844  11.382  0.00  0.00     0.035 C 
HETATM    6  N   UNK N   1      35.372  13.373  11.189  0.00  0.00    -0.065 N 
HETATM    7  C   UNK N   1      36.763  13.215  10.724  0.00  0.00     0.238 C 
HETATM    8  C   UNK N   1      35.239  14.547  12.080  0.00  0.00     0.238 C 
ENDROOT
BRANCH   1   9
HETATM    9  O   UNK N   1      33.939  15.733   8.967  0.00  0.00    -0.311 OA
BRANCH   9  10
HETATM   10  C   UNK N   1      33.742  16.437   7.816  0.00  0.00     0.305 C 
HETATM   11  O   UNK N   1      34.608  17.180   7.384  0.00  0.00    -0.261 OA
BRANCH  10  12
HETATM   12  C   UNK N   1      32.429  16.254   7.079  0.00  0.00     0.213 C 
BRANCH  12  13
HETATM   13  C   UNK N   1      32.663  16.384   5.585  0.00  0.00     0.032 A 
HETATM   14  C   UNK N   1      32.307  17.479   4.796  0.00  0.00     0.019 A 
HETATM   15  C   UNK N   1      32.584  17.288   3.412  0.00  0.00     0.008 A 
HETATM   16  C   UNK N   1      33.154  16.045   3.108  0.00  0.00     0.050 A 
HETATM   17  S   UNK N   1      33.290  15.242   4.552  0.00  0.00    -0.102 SA
ENDBRANCH  12  13
BRANCH  12  18
HETATM   18  C   UNK N   1      31.332  17.185   7.586  0.00  0.00     0.032 A 
HETATM   19  S   UNK N   1      29.718  17.086   7.226  0.00  0.00    -0.102 SA
HETATM   20  C   UNK N   1      29.106  18.207   8.287  0.00  0.00     0.050 A 
HETATM   21  C   UNK N   1      30.202  18.691   9.012  0.00  0.00     0.008 A 
HETATM   22  C   UNK N   1      31.443  18.109   8.633  0.00  0.00     0.019 A 
ENDBRANCH  12  18
BRANCH  12  23
HETATM   23  O   UNK N   1      31.992  14.953   7.330  0.00  0.00    -0.370 OA
HETATM   24  H   UNK N   1      31.599  14.067   7.302  0.00  0.00     0.212 HD
ENDBRANCH  12  23
ENDBRANCH  10  12
ENDBRANCH   9  10
ENDBRANCH   1   9
BRANCH   6  25
HETATM   25  C   UNK N   1      34.889  12.179  11.889  0.00  0.00     0.239 C 
BRANCH  25  26
HETATM   26  C   UNK N   1      35.664  11.881  13.175  0.00  0.00     0.055 C 
BRANCH  26  27
HETATM   27  C   UNK N   1      34.692  11.972  14.335  0.00  0.00     0.177 C 
BRANCH  27  28
HETATM   28  O   UNK N   1      35.087  12.853  15.324  0.00  0.00    -0.351 OA
BRANCH  28  29
HETATM   29  C   UNK N   1      35.151  12.545  16.644  0.00  0.00     0.068 A 
HETATM   30  C   UNK N   1      35.072  13.529  17.643  0.00  0.00     0.037 A 
HETATM   31  C   UNK N   1      35.190  13.187  18.992  0.00  0.00     0.003 A 
HETATM   32  C   UNK N   1      35.391  11.853  19.354  0.00  0.00     0.000 A 
HETATM   33  C   UNK N   1      35.454  10.865  18.368  0.00  0.00     0.003 A 
HETATM   34  C   UNK N   1      35.325  11.210  17.018  0.00  0.00     0.037 A 
ENDBRANCH  28  29
ENDBRANCH  27  28
ENDBRANCH  26  27
ENDBRANCH  25  26
ENDBRANCH   6  25
TORSDOF 11
ENDMDL
MODEL 4
REMARK VINA RESULT:      -7.1      3.319      6.268
REMARK  11 active torsions:
REMARK  status: ('A' for Active; 'I' for Inactive)
REMARK    1  A    between atoms: C_1  and  C_2 
REMARK    2  A    between atoms: C_1  and  C_3 
REMARK    3  A    between atoms: C_1  and  C_28 
REMARK    4  A    between atoms: C_1  and  O_33 
REMARK    5  A    between atoms: C_3  and  O_4 
REMARK    6  A    between atoms: C_6  and  O_4 
REMARK    7  A    between atoms: N_11  and  C_14 
REMARK    8  A    between atoms: C_14  and  C_19 
REMARK    9  A    between atoms: C_19  and  C_20 
REMARK   10  A    between atoms: C_20  and  O_21 
REMARK   11  A    between atoms: O_21  and  C_22 
ROOT
HETATM    1  C   UNK N   1      34.173  16.401   8.503  0.00  0.00     0.162 C 
HETATM    2  C   UNK N   1      34.534  16.096   7.041  0.00  0.00     0.020 C 
HETATM    3  C   UNK N   1      32.636  16.558   8.654  0.00  0.00     0.270 C 
HETATM    4  C   UNK N   1      33.987  17.249   6.192  0.00  0.00     0.035 C 
HETATM    5  C   UNK N   1      33.789  14.825   6.620  0.00  0.00     0.035 C 
HETATM    6  N   UNK N   1      31.967  16.369   7.361  0.00  0.00    -0.065 N 
HETATM    7  C   UNK N   1      32.473  17.419   6.460  0.00  0.00     0.238 C 
HETATM    8  C   UNK N   1      32.274  15.021   6.832  0.00  0.00     0.238 C 
ENDROOT
BRANCH   1   9
HETATM    9  O   UNK N   1      34.750  15.485   9.371  0.00  0.00    -0.311 OA
BRANCH   9  10
HETATM   10  C   UNK N   1      35.918  15.637  10.057  0.00  0.00     0.305 C 
HETATM   11  O   UNK N   1      36.197  16.701  10.585  0.00  0.00    -0.261 OA
BRANCH  10  12
HETATM   12  C   UNK N   1      36.848  14.445  10.163  0.00  0.00     0.213 C 
BRANCH  12  13
HETATM   13  C   UNK N   1      36.672  13.553   8.948  0.00  0.00     0.032 A 
HETATM   14  C   UNK N   1      37.303  13.724   7.714  0.00  0.00     0.019 A 
HETATM   15  C   UNK N   1      36.888  12.775   6.736  0.00  0.00     0.008 A 
HETATM   16  C   UNK N   1      35.931  11.860   7.194  0.00  0.00     0.050 A 
HETATM   17  S   UNK N   1      35.641  12.261   8.776  0.00  0.00    -0.102 SA
ENDBRANCH  12  13
BRANCH  12  18
HETATM   18  C   UNK N   1      36.689  13.687  11.478  0.00  0.00     0.032 A 
HETATM   19  S   UNK N   1      35.377  13.740  12.488  0.00  0.00    -0.102 SA
HETATM   20  C   UNK N   1      35.764  12.519  13.546  0.00  0.00     0.050 A 
HETATM   21  C   UNK N   1      36.978  11.988  13.093  0.00  0.00     0.008 A 
HETATM   22  C   UNK N   1      37.487  12.628  11.930  0.00  0.00     0.019 A 
ENDBRANCH  12  18
BRANCH  12  23
HETATM   23  O   UNK N   1      38.155  14.936  10.145  0.00  0.00    -0.370 OA
HETATM   24  H   UNK N   1      38.995  15.390  10.310  0.00  0.00     0.212 HD
ENDBRANCH  12  23
ENDBRANCH  10  12
ENDBRANCH   9  10
ENDBRANCH   1   9
BRANCH   6  25
HETATM   25  C   UNK N   1      30.522  16.483   7.581  0.00  0.00     0.239 C 
BRANCH  25  26
HETATM   26  C   UNK N   1      30.140  17.676   8.461  0.00  0.00     0.055 C 
BRANCH  26  27
HETATM   27  C   UNK N   1      28.628  17.794   8.451  0.00  0.00     0.177 C 
BRANCH  27  28
HETATM   28  O   UNK N   1      28.171  19.052   8.104  0.00  0.00    -0.351 OA
BRANCH  28  29
HETATM   29  C   UNK N   1      27.847  19.428   6.841  0.00  0.00     0.068 A 
HETATM   30  C   UNK N   1      27.410  20.728   6.540  0.00  0.00     0.037 A 
HETATM   31  C   UNK N   1      27.036  21.071   5.239  0.00  0.00     0.003 A 
HETATM   32  C   UNK N   1      27.093  20.113   4.225  0.00  0.00     0.000 A 
HETATM   33  C   UNK N   1      27.543  18.821   4.512  0.00  0.00     0.003 A 
HETATM   34  C   UNK N   1      27.926  18.483   5.814  0.00  0.00     0.037 A 
ENDBRANCH  28  29
ENDBRANCH  27  28
ENDBRANCH  26  27
ENDBRANCH  25  26
ENDBRANCH   6  25
TORSDOF 11
ENDMDL
MODEL 5
REMARK VINA RESULT:      -7.0     18.033     20.704
REMARK  11 active torsions:
REMARK  status: ('A' for Active; 'I' for Inactive)
REMARK    1  A    between atoms: C_1  and  C_2 
REMARK    2  A    between atoms: C_1  and  C_3 
REMARK    3  A    between atoms: C_1  and  C_28 
REMARK    4  A    between atoms: C_1  and  O_33 
REMARK    5  A    between atoms: C_3  and  O_4 
REMARK    6  A    between atoms: C_6  and  O_4 
REMARK    7  A    between atoms: N_11  and  C_14 
REMARK    8  A    between atoms: C_14  and  C_19 
REMARK    9  A    between atoms: C_19  and  C_20 
REMARK   10  A    between atoms: C_20  and  O_21 
REMARK   11  A    between atoms: O_21  and  C_22 
ROOT
HETATM    1  C   UNK N   1      31.031  24.343  -3.510  0.00  0.00     0.162 C 
HETATM    2  C   UNK N   1      31.156  25.584  -4.406  0.00  0.00     0.020 C 
HETATM    3  C   UNK N   1      29.558  23.852  -3.475  0.00  0.00     0.270 C 
HETATM    4  C   UNK N   1      30.208  26.646  -3.838  0.00  0.00     0.035 C 
HETATM    5  C   UNK N   1      30.646  25.218  -5.804  0.00  0.00     0.035 C 
HETATM    6  N   UNK N   1      28.708  24.710  -4.308  0.00  0.00    -0.065 N 
HETATM    7  C   UNK N   1      28.778  26.067  -3.736  0.00  0.00     0.238 C 
HETATM    8  C   UNK N   1      29.198  24.696  -5.705  0.00  0.00     0.238 C 
ENDROOT
BRANCH   1   9
HETATM    9  O   UNK N   1      31.957  23.370  -3.857  0.00  0.00    -0.311 OA
BRANCH   9  10
HETATM   10  C   UNK N   1      32.009  22.090  -3.388  0.00  0.00     0.305 C 
HETATM   11  O   UNK N   1      32.030  21.866  -2.189  0.00  0.00    -0.261 OA
BRANCH  10  12
HETATM   12  C   UNK N   1      32.016  20.957  -4.396  0.00  0.00     0.213 C 
BRANCH  12  13
HETATM   13  C   UNK N   1      33.444  20.513  -4.651  0.00  0.00     0.032 A 
HETATM   14  C   UNK N   1      33.855  19.205  -4.917  0.00  0.00     0.019 A 
HETATM   15  C   UNK N   1      35.268  19.076  -5.041  0.00  0.00     0.008 A 
HETATM   16  C   UNK N   1      35.972  20.276  -4.870  0.00  0.00     0.050 A 
HETATM   17  S   UNK N   1      34.825  21.436  -4.574  0.00  0.00    -0.102 SA
ENDBRANCH  12  13
BRANCH  12  18
HETATM   18  C   UNK N   1      31.269  21.305  -5.680  0.00  0.00     0.032 A 
HETATM   19  S   UNK N   1      31.953  21.737  -7.126  0.00  0.00    -0.102 SA
HETATM   20  C   UNK N   1      30.614  21.714  -8.109  0.00  0.00     0.050 A 
HETATM   21  C   UNK N   1      29.546  21.315  -7.296  0.00  0.00     0.008 A 
HETATM   22  C   UNK N   1      29.913  21.070  -5.944  0.00  0.00     0.019 A 
ENDBRANCH  12  18
BRANCH  12  23
HETATM   23  O   UNK N   1      31.333  19.886  -3.818  0.00  0.00    -0.370 OA
HETATM   24  H   UNK N   1      30.915  19.241  -3.227  0.00  0.00     0.212 HD
ENDBRANCH  12  23
ENDBRANCH  10  12
ENDBRANCH   9  10
ENDBRANCH   1   9
BRANCH   6  25
HETATM   25  C   UNK N   1      27.346  24.168  -4.270  0.00  0.00     0.239 C 
BRANCH  25  26
HETATM   26  C   UNK N   1      26.737  23.972  -5.661  0.00  0.00     0.055 C 
BRANCH  26  27
HETATM   27  C   UNK N   1      25.400  24.685  -5.687  0.00  0.00     0.177 C 
BRANCH  27  28
HETATM   28  O   UNK N   1      25.425  25.890  -6.365  0.00  0.00    -0.351 OA
BRANCH  28  29
HETATM   29  C   UNK N   1      25.994  27.026  -5.888  0.00  0.00     0.068 A 
HETATM   30  C   UNK N   1      25.543  27.647  -4.712  0.00  0.00     0.037 A 
HETATM   31  C   UNK N   1      26.116  28.842  -4.272  0.00  0.00     0.003 A 
HETATM   32  C   UNK N   1      27.146  29.431  -5.009  0.00  0.00     0.000 A 
HETATM   33  C   UNK N   1      27.613  28.811  -6.172  0.00  0.00     0.003 A 
HETATM   34  C   UNK N   1      27.044  27.609  -6.604  0.00  0.00     0.037 A 
ENDBRANCH  28  29
ENDBRANCH  27  28
ENDBRANCH  26  27
ENDBRANCH  25  26
ENDBRANCH   6  25
TORSDOF 11
ENDMDL
MODEL 6
REMARK VINA RESULT:      -7.0      3.305      9.986
REMARK  11 active torsions:
REMARK  status: ('A' for Active; 'I' for Inactive)
REMARK    1  A    between atoms: C_1  and  C_2 
REMARK    2  A    between atoms: C_1  and  C_3 
REMARK    3  A    between atoms: C_1  and  C_28 
REMARK    4  A    between atoms: C_1  and  O_33 
REMARK    5  A    between atoms: C_3  and  O_4 
REMARK    6  A    between atoms: C_6  and  O_4 
REMARK    7  A    between atoms: N_11  and  C_14 
REMARK    8  A    between atoms: C_14  and  C_19 
REMARK    9  A    between atoms: C_19  and  C_20 
REMARK   10  A    between atoms: C_20  and  O_21 
REMARK   11  A    between atoms: O_21  and  C_22 
ROOT
HETATM    1  C   UNK N   1      34.324  14.014   9.384  0.00  0.00     0.162 C 
HETATM    2  C   UNK N   1      35.292  13.269   8.452  0.00  0.00     0.020 C 
HETATM    3  C   UNK N   1      34.898  14.062  10.826  0.00  0.00     0.270 C 
HETATM    4  C   UNK N   1      35.491  11.867   9.040  0.00  0.00     0.035 C 
HETATM    5  C   UNK N   1      36.647  13.982   8.501  0.00  0.00     0.035 C 
HETATM    6  N   UNK N   1      36.199  13.385  10.887  0.00  0.00    -0.065 N 
HETATM    7  C   UNK N   1      35.969  11.980  10.506  0.00  0.00     0.238 C 
HETATM    8  C   UNK N   1      37.148  14.039   9.958  0.00  0.00     0.238 C 
ENDROOT
BRANCH   1   9
HETATM    9  O   UNK N   1      33.965  15.248   8.862  0.00  0.00    -0.311 OA
BRANCH   9  10
HETATM   10  C   UNK N   1      32.699  15.730   8.706  0.00  0.00     0.305 C 
HETATM   11  O   UNK N   1      31.765  15.238   9.320  0.00  0.00    -0.261 OA
BRANCH  10  12
HETATM   12  C   UNK N   1      32.488  16.903   7.770  0.00  0.00     0.213 C 
BRANCH  12  13
HETATM   13  C   UNK N   1      31.090  17.461   7.962  0.00  0.00     0.032 A 
HETATM   14  C   UNK N   1      30.700  18.358   8.958  0.00  0.00     0.019 A 
HETATM   15  C   UNK N   1      29.305  18.649   8.937  0.00  0.00     0.008 A 
HETATM   16  C   UNK N   1      28.595  17.981   7.930  0.00  0.00     0.050 A 
HETATM   17  S   UNK N   1      29.713  17.067   7.117  0.00  0.00    -0.102 SA
ENDBRANCH  12  13
BRANCH  12  18
HETATM   18  C   UNK N   1      32.790  16.560   6.315  0.00  0.00     0.032 A 
HETATM   19  S   UNK N   1      32.659  15.065   5.612  0.00  0.00    -0.102 SA
HETATM   20  C   UNK N   1      32.882  15.465   4.015  0.00  0.00     0.050 A 
HETATM   21  C   UNK N   1      33.042  16.856   3.985  0.00  0.00     0.008 A 
HETATM   22  C   UNK N   1      32.974  17.470   5.266  0.00  0.00     0.019 A 
ENDBRANCH  12  18
BRANCH  12  23
HETATM   23  O   UNK N   1      33.396  17.896   8.140  0.00  0.00    -0.370 OA
HETATM   24  H   UNK N   1      34.131  18.418   8.497  0.00  0.00     0.212 HD
ENDBRANCH  12  23
ENDBRANCH  10  12
ENDBRANCH   9  10
ENDBRANCH   1   9
BRANCH   6  25
HETATM   25  C   UNK N   1      36.706  13.506  12.258  0.00  0.00     0.239 C 
BRANCH  25  26
HETATM   26  C   UNK N   1      35.648  13.999  13.249  0.00  0.00     0.055 C 
BRANCH  26  27
HETATM   27  C   UNK N   1      35.350  12.866  14.211  0.00  0.00     0.177 C 
BRANCH  27  28
HETATM   28  O   UNK N   1      34.775  13.282  15.399  0.00  0.00    -0.351 OA
BRANCH  28  29
HETATM   29  C   UNK N   1      35.023  12.719  16.608  0.00  0.00     0.068 A 
HETATM   30  C   UNK N   1      35.248  11.341  16.756  0.00  0.00     0.037 A 
HETATM   31  C   UNK N   1      35.451  10.783  18.020  0.00  0.00     0.003 A 
HETATM   32  C   UNK N   1      35.429  11.601  19.151  0.00  0.00     0.000 A 
HETATM   33  C   UNK N   1      35.224  12.976  19.012  0.00  0.00     0.003 A 
HETATM   34  C   UNK N   1      35.030  13.534  17.744  0.00  0.00     0.037 A 
ENDBRANCH  28  29
ENDBRANCH  27  28
ENDBRANCH  26  27
ENDBRANCH  25  26
ENDBRANCH   6  25
TORSDOF 11
ENDMDL
MODEL 7
REMARK VINA RESULT:      -6.9      3.044      6.293
REMARK  11 active torsions:
REMARK  status: ('A' for Active; 'I' for Inactive)
REMARK    1  A    between atoms: C_1  and  C_2 
REMARK    2  A    between atoms: C_1  and  C_3 
REMARK    3  A    between atoms: C_1  and  C_28 
REMARK    4  A    between atoms: C_1  and  O_33 
REMARK    5  A    between atoms: C_3  and  O_4 
REMARK    6  A    between atoms: C_6  and  O_4 
REMARK    7  A    between atoms: N_11  and  C_14 
REMARK    8  A    between atoms: C_14  and  C_19 
REMARK    9  A    between atoms: C_19  and  C_20 
REMARK   10  A    between atoms: C_20  and  O_21 
REMARK   11  A    between atoms: O_21  and  C_22 
ROOT
HETATM    1  C   UNK N   1      33.429  16.015   8.751  0.00  0.00     0.162 C 
HETATM    2  C   UNK N   1      33.482  17.550   8.764  0.00  0.00     0.020 C 
HETATM    3  C   UNK N   1      32.732  15.513   7.458  0.00  0.00     0.270 C 
HETATM    4  C   UNK N   1      32.036  18.051   8.657  0.00  0.00     0.035 C 
HETATM    5  C   UNK N   1      34.220  18.014   7.504  0.00  0.00     0.035 C 
HETATM    6  N   UNK N   1      32.325  16.645   6.617  0.00  0.00    -0.065 N 
HETATM    7  C   UNK N   1      31.365  17.440   7.405  0.00  0.00     0.238 C 
HETATM    8  C   UNK N   1      33.512  17.451   6.255  0.00  0.00     0.238 C 
ENDROOT
BRANCH   1   9
HETATM    9  O   UNK N   1      34.679  15.462   8.988  0.00  0.00    -0.311 OA
BRANCH   9  10
HETATM   10  C   UNK N   1      34.972  14.456   9.861  0.00  0.00     0.305 C 
HETATM   11  O   UNK N   1      34.156  13.581  10.101  0.00  0.00    -0.261 OA
BRANCH  10  12
HETATM   12  C   UNK N   1      36.344  14.444  10.507  0.00  0.00     0.213 C 
BRANCH  12  13
HETATM   13  C   UNK N   1      37.307  13.658   9.637  0.00  0.00     0.032 A 
HETATM   14  C   UNK N   1      38.694  13.820   9.604  0.00  0.00     0.019 A 
HETATM   15  C   UNK N   1      39.333  12.994   8.635  0.00  0.00     0.008 A 
HETATM   16  C   UNK N   1      38.455  12.183   7.904  0.00  0.00     0.050 A 
HETATM   17  S   UNK N   1      36.938  12.522   8.481  0.00  0.00    -0.102 SA
ENDBRANCH  12  13
BRANCH  12  18
HETATM   18  C   UNK N   1      36.314  13.949  11.949  0.00  0.00     0.032 A 
HETATM   19  S   UNK N   1      36.676  12.417  12.468  0.00  0.00    -0.102 SA
HETATM   20  C   UNK N   1      36.690  12.654  14.112  0.00  0.00     0.050 A 
HETATM   21  C   UNK N   1      36.431  14.016  14.307  0.00  0.00     0.008 A 
HETATM   22  C   UNK N   1      36.237  14.743  13.101  0.00  0.00     0.019 A 
ENDBRANCH  12  18
BRANCH  12  23
HETATM   23  O   UNK N   1      36.792  15.765  10.550  0.00  0.00    -0.370 OA
HETATM   24  H   UNK N   1      36.908  16.719  10.677  0.00  0.00     0.212 HD
ENDBRANCH  12  23
ENDBRANCH  10  12
ENDBRANCH   9  10
ENDBRANCH   1   9
BRANCH   6  25
HETATM   25  C   UNK N   1      31.719  16.104   5.396  0.00  0.00     0.239 C 
BRANCH  25  26
HETATM   26  C   UNK N   1      31.083  17.181   4.513  0.00  0.00     0.055 C 
BRANCH  26  27
HETATM   27  C   UNK N   1      29.643  16.780   4.257  0.00  0.00     0.177 C 
BRANCH  27  28
HETATM   28  O   UNK N   1      28.772  17.167   5.258  0.00  0.00    -0.351 OA
BRANCH  28  29
HETATM   29  C   UNK N   1      28.202  18.396   5.346  0.00  0.00     0.068 A 
HETATM   30  C   UNK N   1      28.028  19.049   6.577  0.00  0.00     0.037 A 
HETATM   31  C   UNK N   1      27.394  20.291   6.641  0.00  0.00     0.003 A 
HETATM   32  C   UNK N   1      26.925  20.892   5.471  0.00  0.00     0.000 A 
HETATM   33  C   UNK N   1      27.109  20.257   4.240  0.00  0.00     0.003 A 
HETATM   34  C   UNK N   1      27.753  19.017   4.178  0.00  0.00     0.037 A 
ENDBRANCH  28  29
ENDBRANCH  27  28
ENDBRANCH  26  27
ENDBRANCH  25  26
ENDBRANCH   6  25
TORSDOF 11
ENDMDL
MODEL 8
REMARK VINA RESULT:      -6.9     17.891     20.833
REMARK  11 active torsions:
REMARK  status: ('A' for Active; 'I' for Inactive)
REMARK    1  A    between atoms: C_1  and  C_2 
REMARK    2  A    between atoms: C_1  and  C_3 
REMARK    3  A    between atoms: C_1  and  C_28 
REMARK    4  A    between atoms: C_1  and  O_33 
REMARK    5  A    between atoms: C_3  and  O_4 
REMARK    6  A    between atoms: C_6  and  O_4 
REMARK    7  A    between atoms: N_11  and  C_14 
REMARK    8  A    between atoms: C_14  and  C_19 
REMARK    9  A    between atoms: C_19  and  C_20 
REMARK   10  A    between atoms: C_20  and  O_21 
REMARK   11  A    between atoms: O_21  and  C_22 
ROOT
HETATM    1  C   UNK N   1      31.031  25.336  -4.035  0.00  0.00     0.162 C 
HETATM    2  C   UNK N   1      31.218  25.633  -5.530  0.00  0.00     0.020 C 
HETATM    3  C   UNK N   1      30.432  26.573  -3.313  0.00  0.00     0.270 C 
HETATM    4  C   UNK N   1      32.133  26.860  -5.633  0.00  0.00     0.035 C 
HETATM    5  C   UNK N   1      29.857  26.028  -6.113  0.00  0.00     0.035 C 
HETATM    6  N   UNK N   1      30.214  27.670  -4.262  0.00  0.00    -0.065 N 
HETATM    7  C   UNK N   1      31.533  28.027  -4.815  0.00  0.00     0.238 C 
HETATM    8  C   UNK N   1      29.290  27.230  -5.332  0.00  0.00     0.238 C 
ENDROOT
BRANCH   1   9
HETATM    9  O   UNK N   1      30.333  24.154  -3.836  0.00  0.00    -0.311 OA
BRANCH   9  10
HETATM   10  C   UNK N   1      30.776  23.047  -3.173  0.00  0.00     0.305 C 
HETATM   11  O   UNK N   1      30.902  23.057  -1.959  0.00  0.00    -0.261 OA
BRANCH  10  12
HETATM   12  C   UNK N   1      31.084  21.802  -3.981  0.00  0.00     0.213 C 
BRANCH  12  13
HETATM   13  C   UNK N   1      32.583  21.693  -4.193  0.00  0.00     0.032 A 
HETATM   14  C   UNK N   1      33.439  20.819  -3.520  0.00  0.00     0.019 A 
HETATM   15  C   UNK N   1      34.808  20.992  -3.874  0.00  0.00     0.008 A 
HETATM   16  C   UNK N   1      35.034  22.001  -4.821  0.00  0.00     0.050 A 
HETATM   17  S   UNK N   1      33.542  22.630  -5.176  0.00  0.00    -0.102 SA
ENDBRANCH  12  13
BRANCH  12  18
HETATM   18  C   UNK N   1      30.298  21.736  -5.286  0.00  0.00     0.032 A 
HETATM   19  S   UNK N   1      30.447  20.579  -6.463  0.00  0.00    -0.102 SA
HETATM   20  C   UNK N   1      29.155  20.968  -7.431  0.00  0.00     0.050 A 
HETATM   21  C   UNK N   1      28.521  22.051  -6.809  0.00  0.00     0.008 A 
HETATM   22  C   UNK N   1      29.148  22.470  -5.604  0.00  0.00     0.019 A 
ENDBRANCH  12  18
BRANCH  12  23
HETATM   23  O   UNK N   1      30.682  20.704  -3.219  0.00  0.00    -0.370 OA
HETATM   24  H   UNK N   1      30.379  19.845  -2.888  0.00  0.00     0.212 HD
ENDBRANCH  12  23
ENDBRANCH  10  12
ENDBRANCH   9  10
ENDBRANCH   1   9
BRANCH   6  25
HETATM   25  C   UNK N   1      29.606  28.785  -3.529  0.00  0.00     0.239 C 
BRANCH  25  26
HETATM   26  C   UNK N   1      28.224  29.173  -4.062  0.00  0.00     0.055 C 
BRANCH  26  27
HETATM   27  C   UNK N   1      27.276  29.247  -2.881  0.00  0.00     0.177 C 
BRANCH  27  28
HETATM   28  O   UNK N   1      26.073  28.597  -3.093  0.00  0.00    -0.351 OA
BRANCH  28  29
HETATM   29  C   UNK N   1      25.940  27.440  -3.789  0.00  0.00     0.068 A 
HETATM   30  C   UNK N   1      26.491  26.230  -3.335  0.00  0.00     0.037 A 
HETATM   31  C   UNK N   1      26.379  25.066  -4.097  0.00  0.00     0.003 A 
HETATM   32  C   UNK N   1      25.716  25.101  -5.325  0.00  0.00     0.000 A 
HETATM   33  C   UNK N   1      25.149  26.296  -5.777  0.00  0.00     0.003 A 
HETATM   34  C   UNK N   1      25.254  27.459  -5.007  0.00  0.00     0.037 A 
ENDBRANCH  28  29
ENDBRANCH  27  28
ENDBRANCH  26  27
ENDBRANCH  25  26
ENDBRANCH   6  25
TORSDOF 11
ENDMDL
MODEL 9
REMARK VINA RESULT:      -6.7      2.873      9.576
REMARK  11 active torsions:
REMARK  status: ('A' for Active; 'I' for Inactive)
REMARK    1  A    between atoms: C_1  and  C_2 
REMARK    2  A    between atoms: C_1  and  C_3 
REMARK    3  A    between atoms: C_1  and  C_28 
REMARK    4  A    between atoms: C_1  and  O_33 
REMARK    5  A    between atoms: C_3  and  O_4 
REMARK    6  A    between atoms: C_6  and  O_4 
REMARK    7  A    between atoms: N_11  and  C_14 
REMARK    8  A    between atoms: C_14  and  C_19 
REMARK    9  A    between atoms: C_19  and  C_20 
REMARK   10  A    between atoms: C_20  and  O_21 
REMARK   11  A    between atoms: O_21  and  C_22 
ROOT
HETATM    1  C   UNK N   1      35.018  14.773   9.623  0.00  0.00     0.162 C 
HETATM    2  C   UNK N   1      36.313  15.353  10.211  0.00  0.00     0.020 C 
HETATM    3  C   UNK N   1      34.553  13.546  10.453  0.00  0.00     0.270 C 
HETATM    4  C   UNK N   1      37.353  14.227  10.206  0.00  0.00     0.035 C 
HETATM    5  C   UNK N   1      36.048  15.724  11.674  0.00  0.00     0.035 C 
HETATM    6  N   UNK N   1      35.480  13.292  11.562  0.00  0.00    -0.065 N 
HETATM    7  C   UNK N   1      36.795  12.999  10.963  0.00  0.00     0.238 C 
HETATM    8  C   UNK N   1      35.549  14.482  12.440  0.00  0.00     0.238 C 
ENDROOT
BRANCH   1   9
HETATM    9  O   UNK N   1      34.053  15.755   9.451  0.00  0.00    -0.311 OA
BRANCH   9  10
HETATM   10  C   UNK N   1      34.134  16.842   8.631  0.00  0.00     0.305 C 
HETATM   11  O   UNK N   1      34.541  17.912   9.054  0.00  0.00    -0.261 OA
BRANCH  10  12
HETATM   12  C   UNK N   1      33.726  16.678   7.180  0.00  0.00     0.213 C 
BRANCH  12  13
HETATM   13  C   UNK N   1      32.228  16.883   7.047  0.00  0.00     0.032 A 
HETATM   14  C   UNK N   1      31.536  17.083   5.851  0.00  0.00     0.019 A 
HETATM   15  C   UNK N   1      30.144  17.321   6.041  0.00  0.00     0.008 A 
HETATM   16  C   UNK N   1      29.739  17.313   7.382  0.00  0.00     0.050 A 
HETATM   17  S   UNK N   1      31.108  17.015   8.268  0.00  0.00    -0.102 SA
ENDBRANCH  12  13
BRANCH  12  18
HETATM   18  C   UNK N   1      34.195  15.356   6.580  0.00  0.00     0.032 A 
HETATM   19  S   UNK N   1      33.279  13.990   6.382  0.00  0.00    -0.102 SA
HETATM   20  C   UNK N   1      34.313  13.067   5.466  0.00  0.00     0.050 A 
HETATM   21  C   UNK N   1      35.449  13.858   5.254  0.00  0.00     0.008 A 
HETATM   22  C   UNK N   1      35.378  15.142   5.861  0.00  0.00     0.019 A 
ENDBRANCH  12  18
BRANCH  12  23
HETATM   23  O   UNK N   1      34.359  17.689   6.456  0.00  0.00    -0.370 OA
HETATM   24  H   UNK N   1      34.895  18.221   5.848  0.00  0.00     0.212 HD
ENDBRANCH  12  23
ENDBRANCH  10  12
ENDBRANCH   9  10
ENDBRANCH   1   9
BRANCH   6  25
HETATM   25  C   UNK N   1      34.962  12.156  12.331  0.00  0.00     0.239 C 
BRANCH  25  26
HETATM   26  C   UNK N   1      35.898  10.944  12.318  0.00  0.00     0.055 C 
BRANCH  26  27
HETATM   27  C   UNK N   1      36.380  10.715  13.737  0.00  0.00     0.177 C 
BRANCH  27  28
HETATM   28  O   UNK N   1      36.508  11.877  14.475  0.00  0.00    -0.351 OA
BRANCH  28  29
HETATM   29  C   UNK N   1      36.109  12.014  15.764  0.00  0.00     0.068 A 
HETATM   30  C   UNK N   1      36.095  10.932  16.659  0.00  0.00     0.037 A 
HETATM   31  C   UNK N   1      35.631  11.093  17.966  0.00  0.00     0.003 A 
HETATM   32  C   UNK N   1      35.173  12.342  18.391  0.00  0.00     0.000 A 
HETATM   33  C   UNK N   1      35.200  13.429  17.513  0.00  0.00     0.003 A 
HETATM   34  C   UNK N   1      35.674  13.267  16.207  0.00  0.00     0.037 A 
ENDBRANCH  28  29
ENDBRANCH  27  28
ENDBRANCH  26  27
ENDBRANCH  25  26
ENDBRANCH   6  25
TORSDOF 11
ENDMDL
