MODEL 1
REMARK VINA RESULT:      -5.9      0.000      0.000
REMARK  4 active torsions:
REMARK  status: ('A' for Active; 'I' for Inactive)
REMARK    1  A    between atoms: C_1  and  C_2 
REMARK    2  A    between atoms: C_2  and  C_5 
REMARK    3  A    between atoms: C_5  and  N_9 
REMARK    4  A    between atoms: C_12  and  C_13 
ROOT
HETATM    1  C   UNK N   1      36.928  13.800  15.294  0.00  0.00     0.081 C 
HETATM    2  C   UNK N   1      37.236  15.222  15.753  0.00  0.00     0.032 C 
ENDROOT
BRANCH   1   3
HETATM    3  C   UNK N   1      35.519  13.376  15.716  0.00  0.00     0.063 C 
BRANCH   3   4
HETATM    4  C   UNK N   1      35.437  12.688  17.047  0.00  0.00    -0.056 A 
HETATM    5  C   UNK N   1      35.662  11.308  17.151  0.00  0.00     0.007 A 
HETATM    6  C   UNK N   1      35.635  10.681  18.398  0.00  0.00     0.001 A 
HETATM    7  C   UNK N   1      35.392  11.432  19.551  0.00  0.00     0.000 A 
HETATM    8  C   UNK N   1      35.177  12.810  19.455  0.00  0.00     0.001 A 
HETATM    9  C   UNK N   1      35.203  13.439  18.205  0.00  0.00     0.007 A 
ENDBRANCH   3   4
ENDBRANCH   1   3
BRANCH   1  10
HETATM   10  N   UNK N   1      37.007  13.747  13.854  0.00  0.00    -0.394 N 
HETATM   11  C   UNK N   1      36.206  14.426  13.117  0.00  0.00     0.114 C 
ATOM     12  HN  UNK N   1      37.713  13.158  13.414  1.00  0.00     0.159 HD
BRANCH  11  13
HETATM   13  C   UNK N   1      36.231  14.281  11.627  0.00  0.00     0.220 C 
HETATM   14 Cl   UNK N   1      34.771  13.413  11.102  0.00  0.00    -0.078 Cl
HETATM   15 Cl   UNK N   1      36.273  15.879  10.840  0.00  0.00    -0.078 Cl
HETATM   16 Cl   UNK N   1      37.664  13.343  11.139  0.00  0.00    -0.078 Cl
ENDBRANCH  11  13
ENDBRANCH   1  10
TORSDOF 4
ENDMDL
MODEL 2
REMARK VINA RESULT:      -5.7      0.352      1.881
REMARK  4 active torsions:
REMARK  status: ('A' for Active; 'I' for Inactive)
REMARK    1  A    between atoms: C_1  and  C_2 
REMARK    2  A    between atoms: C_2  and  C_5 
REMARK    3  A    between atoms: C_5  and  N_9 
REMARK    4  A    between atoms: C_12  and  C_13 
ROOT
HETATM    1  C   UNK N   1      36.926  13.941  15.216  0.00  0.00     0.081 C 
HETATM    2  C   UNK N   1      37.282  15.268  15.876  0.00  0.00     0.032 C 
ENDROOT
BRANCH   1   3
HETATM    3  C   UNK N   1      35.540  13.460  15.652  0.00  0.00     0.063 C 
BRANCH   3   4
HETATM    4  C   UNK N   1      35.502  12.753  16.975  0.00  0.00    -0.056 A 
HETATM    5  C   UNK N   1      35.206  13.457  18.150  0.00  0.00     0.007 A 
HETATM    6  C   UNK N   1      35.122  12.787  19.373  0.00  0.00     0.001 A 
HETATM    7  C   UNK N   1      35.323  11.405  19.425  0.00  0.00     0.000 A 
HETATM    8  C   UNK N   1      35.608  10.696  18.254  0.00  0.00     0.001 A 
HETATM    9  C   UNK N   1      35.694  11.368  17.030  0.00  0.00     0.007 A 
ENDBRANCH   3   4
ENDBRANCH   1   3
BRANCH   1  10
HETATM   10  N   UNK N   1      36.916  14.119  13.784  0.00  0.00    -0.394 N 
HETATM   11  C   UNK N   1      35.836  13.986  13.104  0.00  0.00     0.114 C 
ATOM     12  HN  UNK N   1      37.784  14.354  13.304  1.00  0.00     0.159 HD
BRANCH  11  13
HETATM   13  C   UNK N   1      35.859  14.070  11.609  0.00  0.00     0.220 C 
HETATM   14 Cl   UNK N   1      37.476  13.618  11.025  0.00  0.00    -0.078 Cl
HETATM   15 Cl   UNK N   1      34.653  12.969  10.898  0.00  0.00    -0.078 Cl
HETATM   16 Cl   UNK N   1      35.510  15.741  11.098  0.00  0.00    -0.078 Cl
ENDBRANCH  11  13
ENDBRANCH   1  10
TORSDOF 4
ENDMDL
MODEL 3
REMARK VINA RESULT:      -5.5     11.130     12.619
REMARK  4 active torsions:
REMARK  status: ('A' for Active; 'I' for Inactive)
REMARK    1  A    between atoms: C_1  and  C_2 
REMARK    2  A    between atoms: C_2  and  C_5 
REMARK    3  A    between atoms: C_5  and  N_9 
REMARK    4  A    between atoms: C_12  and  C_13 
ROOT
HETATM    1  C   UNK N   1      28.778  18.294   8.109  0.00  0.00     0.081 C 
HETATM    2  C   UNK N   1      28.121  17.613   9.305  0.00  0.00     0.032 C 
ENDROOT
BRANCH   1   3
HETATM    3  C   UNK N   1      29.455  17.271   7.193  0.00  0.00     0.063 C 
BRANCH   3   4
HETATM    4  C   UNK N   1      30.950  17.376   7.122  0.00  0.00    -0.056 A 
HETATM    5  C   UNK N   1      31.622  17.169   5.909  0.00  0.00     0.007 A 
HETATM    6  C   UNK N   1      33.009  17.317   5.836  0.00  0.00     0.001 A 
HETATM    7  C   UNK N   1      33.731  17.684   6.974  0.00  0.00     0.000 A 
HETATM    8  C   UNK N   1      33.065  17.903   8.184  0.00  0.00     0.001 A 
HETATM    9  C   UNK N   1      31.676  17.753   8.258  0.00  0.00     0.007 A 
ENDBRANCH   3   4
ENDBRANCH   1   3
BRANCH   1  10
HETATM   10  N   UNK N   1      27.765  18.984   7.349  0.00  0.00    -0.394 N 
HETATM   11  C   UNK N   1      27.735  18.922   6.068  0.00  0.00     0.114 C 
ATOM     12  HN  UNK N   1      27.058  19.532   7.839  1.00  0.00     0.159 HD
BRANCH  11  13
HETATM   13  C   UNK N   1      26.741  19.726   5.286  0.00  0.00     0.220 C 
HETATM   14 Cl   UNK N   1      26.395  21.234   6.162  0.00  0.00    -0.078 Cl
HETATM   15 Cl   UNK N   1      27.384  20.123   3.673  0.00  0.00    -0.078 Cl
HETATM   16 Cl   UNK N   1      25.229  18.803   5.111  0.00  0.00    -0.078 Cl
ENDBRANCH  11  13
ENDBRANCH   1  10
TORSDOF 4
ENDMDL
MODEL 4
REMARK VINA RESULT:      -5.5      1.456      2.395
REMARK  4 active torsions:
REMARK  status: ('A' for Active; 'I' for Inactive)
REMARK    1  A    between atoms: C_1  and  C_2 
REMARK    2  A    between atoms: C_2  and  C_5 
REMARK    3  A    between atoms: C_5  and  N_9 
REMARK    4  A    between atoms: C_12  and  C_13 
ROOT
HETATM    1  C   UNK N   1      34.542  11.940  14.442  0.00  0.00     0.081 C 
HETATM    2  C   UNK N   1      33.698  10.681  14.282  0.00  0.00     0.032 C 
ENDROOT
BRANCH   1   3
HETATM    3  C   UNK N   1      35.772  11.675  15.314  0.00  0.00     0.063 C 
BRANCH   3   4
HETATM    4  C   UNK N   1      35.574  11.921  16.780  0.00  0.00    -0.056 A 
HETATM    5  C   UNK N   1      35.740  10.881  17.706  0.00  0.00     0.007 A 
HETATM    6  C   UNK N   1      35.605  11.125  19.074  0.00  0.00     0.001 A 
HETATM    7  C   UNK N   1      35.313  12.415  19.526  0.00  0.00     0.000 A 
HETATM    8  C   UNK N   1      35.157  13.458  18.609  0.00  0.00     0.001 A 
HETATM    9  C   UNK N   1      35.291  13.213  17.237  0.00  0.00     0.007 A 
ENDBRANCH   3   4
ENDBRANCH   1   3
BRANCH   1  10
HETATM   10  N   UNK N   1      34.991  12.371  13.141  0.00  0.00    -0.394 N 
HETATM   11  C   UNK N   1      35.403  13.570  12.941  0.00  0.00     0.114 C 
ATOM     12  HN  UNK N   1      34.981  11.710  12.364  1.00  0.00     0.159 HD
BRANCH  11  13
HETATM   13  C   UNK N   1      35.768  14.033  11.564  0.00  0.00     0.220 C 
HETATM   14 Cl   UNK N   1      37.332  13.325  11.107  0.00  0.00    -0.078 Cl
HETATM   15 Cl   UNK N   1      34.532  13.531  10.383  0.00  0.00    -0.078 Cl
HETATM   16 Cl   UNK N   1      35.914  15.808  11.549  0.00  0.00    -0.078 Cl
ENDBRANCH  11  13
ENDBRANCH   1  10
TORSDOF 4
ENDMDL
MODEL 5
REMARK VINA RESULT:      -5.4     25.225     26.804
REMARK  4 active torsions:
REMARK  status: ('A' for Active; 'I' for Inactive)
REMARK    1  A    between atoms: C_1  and  C_2 
REMARK    2  A    between atoms: C_2  and  C_5 
REMARK    3  A    between atoms: C_5  and  N_9 
REMARK    4  A    between atoms: C_12  and  C_13 
ROOT
HETATM    1  C   UNK N   1      25.570  25.004  -5.145  0.00  0.00     0.081 C 
HETATM    2  C   UNK N   1      27.028  24.994  -4.701  0.00  0.00     0.032 C 
ENDROOT
BRANCH   1   3
HETATM    3  C   UNK N   1      25.219  26.307  -5.867  0.00  0.00     0.063 C 
BRANCH   3   4
HETATM    4  C   UNK N   1      25.961  27.518  -5.383  0.00  0.00    -0.056 A 
HETATM    5  C   UNK N   1      26.984  28.083  -6.157  0.00  0.00     0.007 A 
HETATM    6  C   UNK N   1      27.637  29.240  -5.726  0.00  0.00     0.001 A 
HETATM    7  C   UNK N   1      27.263  29.846  -4.523  0.00  0.00     0.000 A 
HETATM    8  C   UNK N   1      26.236  29.292  -3.753  0.00  0.00     0.001 A 
HETATM    9  C   UNK N   1      25.582  28.132  -4.183  0.00  0.00     0.007 A 
ENDBRANCH   3   4
ENDBRANCH   1   3
BRANCH   1  10
HETATM   10  N   UNK N   1      25.351  23.906  -6.056  0.00  0.00    -0.394 N 
HETATM   11  C   UNK N   1      26.328  23.351  -6.676  0.00  0.00     0.114 C 
ATOM     12  HN  UNK N   1      24.403  23.566  -6.211  1.00  0.00     0.159 HD
BRANCH  11  13
HETATM   13  C   UNK N   1      26.078  22.283  -7.696  0.00  0.00     0.220 C 
HETATM   14 Cl   UNK N   1      27.523  21.258  -7.833  0.00  0.00    -0.078 Cl
HETATM   15 Cl   UNK N   1      24.689  21.273  -7.222  0.00  0.00    -0.078 Cl
HETATM   16 Cl   UNK N   1      25.752  23.032  -9.279  0.00  0.00    -0.078 Cl
ENDBRANCH  11  13
ENDBRANCH   1  10
TORSDOF 4
ENDMDL
MODEL 6
REMARK VINA RESULT:      -5.3      0.834      1.834
REMARK  4 active torsions:
REMARK  status: ('A' for Active; 'I' for Inactive)
REMARK    1  A    between atoms: C_1  and  C_2 
REMARK    2  A    between atoms: C_2  and  C_5 
REMARK    3  A    between atoms: C_5  and  N_9 
REMARK    4  A    between atoms: C_12  and  C_13 
ROOT
HETATM    1  C   UNK N   1      36.924  14.070  15.250  0.00  0.00     0.081 C 
HETATM    2  C   UNK N   1      37.353  15.394  15.873  0.00  0.00     0.032 C 
ENDROOT
BRANCH   1   3
HETATM    3  C   UNK N   1      35.602  13.580  15.846  0.00  0.00     0.063 C 
BRANCH   3   4
HETATM    4  C   UNK N   1      35.722  12.414  16.782  0.00  0.00    -0.056 A 
HETATM    5  C   UNK N   1      35.245  12.504  18.097  0.00  0.00     0.007 A 
HETATM    6  C   UNK N   1      35.314  11.399  18.950  0.00  0.00     0.001 A 
HETATM    7  C   UNK N   1      35.849  10.194  18.488  0.00  0.00     0.000 A 
HETATM    8  C   UNK N   1      36.317  10.096  17.174  0.00  0.00     0.001 A 
HETATM    9  C   UNK N   1      36.250  11.203  16.320  0.00  0.00     0.007 A 
ENDBRANCH   3   4
ENDBRANCH   1   3
BRANCH   1  10
HETATM   10  N   UNK N   1      36.740  14.259  13.831  0.00  0.00    -0.394 N 
HETATM   11  C   UNK N   1      35.872  13.579  13.175  0.00  0.00     0.114 C 
ATOM     12  HN  UNK N   1      37.312  14.946  13.340  1.00  0.00     0.159 HD
BRANCH  11  13
HETATM   13  C   UNK N   1      35.764  13.710  11.687  0.00  0.00     0.220 C 
HETATM   14 Cl   UNK N   1      34.946  15.238  11.295  0.00  0.00    -0.078 Cl
HETATM   15 Cl   UNK N   1      37.380  13.704  10.936  0.00  0.00    -0.078 Cl
HETATM   16 Cl   UNK N   1      34.803  12.359  11.035  0.00  0.00    -0.078 Cl
ENDBRANCH  11  13
ENDBRANCH   1  10
TORSDOF 4
ENDMDL
MODEL 7
REMARK VINA RESULT:      -5.3     22.264     24.843
REMARK  4 active torsions:
REMARK  status: ('A' for Active; 'I' for Inactive)
REMARK    1  A    between atoms: C_1  and  C_2 
REMARK    2  A    between atoms: C_2  and  C_5 
REMARK    3  A    between atoms: C_5  and  N_9 
REMARK    4  A    between atoms: C_12  and  C_13 
ROOT
HETATM    1  C   UNK N   1      27.414  23.667  -6.104  0.00  0.00     0.081 C 
HETATM    2  C   UNK N   1      26.866  22.812  -7.241  0.00  0.00     0.032 C 
ENDROOT
BRANCH   1   3
HETATM    3  C   UNK N   1      26.361  23.882  -5.015  0.00  0.00     0.063 C 
BRANCH   3   4
HETATM    4  C   UNK N   1      25.988  25.314  -4.767  0.00  0.00    -0.056 A 
HETATM    5  C   UNK N   1      26.449  25.982  -3.625  0.00  0.00     0.007 A 
HETATM    6  C   UNK N   1      26.141  27.330  -3.423  0.00  0.00     0.001 A 
HETATM    7  C   UNK N   1      25.380  28.021  -4.370  0.00  0.00     0.000 A 
HETATM    8  C   UNK N   1      24.927  27.362  -5.517  0.00  0.00     0.001 A 
HETATM    9  C   UNK N   1      25.234  26.011  -5.718  0.00  0.00     0.007 A 
ENDBRANCH   3   4
ENDBRANCH   1   3
BRANCH   1  10
HETATM   10  N   UNK N   1      28.546  22.993  -5.515  0.00  0.00    -0.394 N 
HETATM   11  C   UNK N   1      29.110  23.441  -4.454  0.00  0.00     0.114 C 
ATOM     12  HN  UNK N   1      28.904  22.144  -5.951  1.00  0.00     0.159 HD
BRANCH  11  13
HETATM   13  C   UNK N   1      30.346  22.791  -3.912  0.00  0.00     0.220 C 
HETATM   14 Cl   UNK N   1      30.380  21.088  -4.421  0.00  0.00    -0.078 Cl
HETATM   15 Cl   UNK N   1      31.806  23.611  -4.522  0.00  0.00    -0.078 Cl
HETATM   16 Cl   UNK N   1      30.329  22.859  -2.133  0.00  0.00    -0.078 Cl
ENDBRANCH  11  13
ENDBRANCH   1  10
TORSDOF 4
ENDMDL
MODEL 8
REMARK VINA RESULT:      -5.2     22.515     25.410
REMARK  4 active torsions:
REMARK  status: ('A' for Active; 'I' for Inactive)
REMARK    1  A    between atoms: C_1  and  C_2 
REMARK    2  A    between atoms: C_2  and  C_5 
REMARK    3  A    between atoms: C_5  and  N_9 
REMARK    4  A    between atoms: C_12  and  C_13 
ROOT
HETATM    1  C   UNK N   1      26.685  24.654  -5.702  0.00  0.00     0.081 C 
HETATM    2  C   UNK N   1      26.023  23.393  -6.247  0.00  0.00     0.032 C 
ENDROOT
BRANCH   1   3
HETATM    3  C   UNK N   1      25.641  25.665  -5.225  0.00  0.00     0.063 C 
BRANCH   3   4
HETATM    4  C   UNK N   1      26.151  27.064  -5.042  0.00  0.00    -0.056 A 
HETATM    5  C   UNK N   1      27.007  27.640  -5.992  0.00  0.00     0.007 A 
HETATM    6  C   UNK N   1      27.439  28.960  -5.844  0.00  0.00     0.001 A 
HETATM    7  C   UNK N   1      27.009  29.716  -4.750  0.00  0.00     0.000 A 
HETATM    8  C   UNK N   1      26.148  29.150  -3.806  0.00  0.00     0.001 A 
HETATM    9  C   UNK N   1      25.715  27.827  -3.953  0.00  0.00     0.007 A 
ENDBRANCH   3   4
ENDBRANCH   1   3
BRANCH   1  10
HETATM   10  N   UNK N   1      27.518  24.296  -4.579  0.00  0.00    -0.394 N 
HETATM   11  C   UNK N   1      28.658  23.733  -4.748  0.00  0.00     0.114 C 
ATOM     12  HN  UNK N   1      27.194  24.494  -3.633  1.00  0.00     0.159 HD
BRANCH  11  13
HETATM   13  C   UNK N   1      29.466  23.273  -3.574  0.00  0.00     0.220 C 
HETATM   14 Cl   UNK N   1      28.415  23.187  -2.143  0.00  0.00    -0.078 Cl
HETATM   15 Cl   UNK N   1      30.165  21.663  -3.882  0.00  0.00    -0.078 Cl
HETATM   16 Cl   UNK N   1      30.776  24.436  -3.255  0.00  0.00    -0.078 Cl
ENDBRANCH  11  13
ENDBRANCH   1  10
TORSDOF 4
ENDMDL
MODEL 9
REMARK VINA RESULT:      -5.1      3.487      7.439
REMARK  4 active torsions:
REMARK  status: ('A' for Active; 'I' for Inactive)
REMARK    1  A    between atoms: C_1  and  C_2 
REMARK    2  A    between atoms: C_2  and  C_5 
REMARK    3  A    between atoms: C_5  and  N_9 
REMARK    4  A    between atoms: C_12  and  C_13 
ROOT
HETATM    1  C   UNK N   1      36.357  14.600  11.262  0.00  0.00     0.081 C 
HETATM    2  C   UNK N   1      36.818  13.635  10.175  0.00  0.00     0.032 C 
ENDROOT
BRANCH   1   3
HETATM    3  C   UNK N   1      34.836  14.766  11.246  0.00  0.00     0.063 C 
BRANCH   3   4
HETATM    4  C   UNK N   1      34.301  15.592  10.113  0.00  0.00    -0.056 A 
HETATM    5  C   UNK N   1      33.135  15.204   9.438  0.00  0.00     0.007 A 
HETATM    6  C   UNK N   1      32.612  16.002   8.418  0.00  0.00     0.001 A 
HETATM    7  C   UNK N   1      33.246  17.198   8.073  0.00  0.00     0.000 A 
HETATM    8  C   UNK N   1      34.404  17.595   8.750  0.00  0.00     0.001 A 
HETATM    9  C   UNK N   1      34.929  16.795   9.772  0.00  0.00     0.007 A 
ENDBRANCH   3   4
ENDBRANCH   1   3
BRANCH   1  10
HETATM   10  N   UNK N   1      36.743  14.073  12.549  0.00  0.00    -0.394 N 
HETATM   11  C   UNK N   1      35.941  14.103  13.549  0.00  0.00     0.114 C 
ATOM     12  HN  UNK N   1      37.672  13.670  12.665  1.00  0.00     0.159 HD
BRANCH  11  13
HETATM   13  C   UNK N   1      36.390  13.648  14.903  0.00  0.00     0.220 C 
HETATM   14 Cl   UNK N   1      37.444  12.229  14.721  0.00  0.00    -0.078 Cl
HETATM   15 Cl   UNK N   1      37.291  14.941  15.734  0.00  0.00    -0.078 Cl
HETATM   16 Cl   UNK N   1      34.973  13.191  15.882  0.00  0.00    -0.078 Cl
ENDBRANCH  11  13
ENDBRANCH   1  10
TORSDOF 4
ENDMDL
