MODEL 1
REMARK VINA RESULT:      -5.7      0.000      0.000
REMARK  4 active torsions:
REMARK  status: ('A' for Active; 'I' for Inactive)
REMARK    1  A    between atoms: O_18  and  C_3 
REMARK    2  A    between atoms: C_11  and  C_9 
REMARK    3  A    between atoms: O_18  and  C_11 
REMARK    4  A    between atoms: N_15  and  C_13 
ROOT
HETATM    1  C   UNK N   1      28.713  22.080  -6.492  0.00  0.00     0.160 C 
HETATM    2  C   UNK N   1      30.024  22.368  -3.821  0.00  0.00     0.119 C 
HETATM    3  C   UNK N   1      29.341  23.374  -4.413  0.00  0.00     0.082 C 
HETATM    4  C   UNK N   1      27.679  24.184  -5.763  0.00  0.00     0.268 C 
HETATM    5  C   UNK N   1      27.567  25.134  -4.591  0.00  0.00     0.382 C 
HETATM    6  N   UNK N   1      28.586  23.206  -5.593  0.00  0.00    -0.314 N 
HETATM    7  O   UNK N   1      26.922  24.208  -6.722  0.00  0.00    -0.270 OA
HETATM    8  S   UNK N   1      29.190  25.025  -3.722  0.00  0.00    -0.066 SA
ENDROOT
BRANCH   2   9
HETATM    9  C   UNK N   1      30.758  22.510  -2.534  0.00  0.00     0.285 C 
HETATM   10  O   UNK N   1      30.211  22.970  -1.542  0.00  0.00    -0.260 OA
BRANCH   9  11
HETATM   11  O   UNK N   1      32.045  22.094  -2.462  0.00  0.00    -0.318 OA
BRANCH  11  12
HETATM   12  C   UNK N   1      32.740  21.681  -3.577  0.00  0.00     0.174 C 
HETATM   13  C   UNK N   1      33.822  20.705  -3.172  0.00  0.00     0.034 C 
ENDBRANCH  11  12
ENDBRANCH   9  11
ENDBRANCH   2   9
BRANCH   5  14
HETATM   14  N   UNK N   1      27.113  26.498  -4.890  0.00  0.00     0.112 N 
HETATM   15  C   UNK N   1      28.325  27.354  -4.930  0.00  0.00     0.274 C 
HETATM   16  C   UNK N   1      28.253  28.643  -4.106  0.00  0.00     0.030 C 
HETATM   17  C   UNK N   1      26.892  29.286  -4.298  0.00  0.00     0.003 C 
HETATM   18  C   UNK N   1      25.765  28.336  -3.894  0.00  0.00     0.030 C 
HETATM   19  C   UNK N   1      26.234  26.883  -3.776  0.00  0.00     0.274 C 
ENDBRANCH   5  14
TORSDOF 4
ENDMDL
MODEL 2
REMARK VINA RESULT:      -5.7     10.958     13.052
REMARK  4 active torsions:
REMARK  status: ('A' for Active; 'I' for Inactive)
REMARK    1  A    between atoms: O_18  and  C_3 
REMARK    2  A    between atoms: C_11  and  C_9 
REMARK    3  A    between atoms: O_18  and  C_11 
REMARK    4  A    between atoms: N_15  and  C_13 
ROOT
HETATM    1  C   UNK N   1      27.163  21.059   6.330  0.00  0.00     0.160 C 
HETATM    2  C   UNK N   1      28.117  18.956   8.228  0.00  0.00     0.119 C 
HETATM    3  C   UNK N   1      27.874  18.707   6.921  0.00  0.00     0.082 C 
HETATM    4  C   UNK N   1      27.788  19.318   4.717  0.00  0.00     0.268 C 
HETATM    5  C   UNK N   1      28.435  17.956   4.598  0.00  0.00     0.382 C 
HETATM    6  N   UNK N   1      27.579  19.718   5.983  0.00  0.00    -0.314 N 
HETATM    7  O   UNK N   1      27.599  20.057   3.762  0.00  0.00    -0.270 OA
HETATM    8  S   UNK N   1      28.018  17.082   6.167  0.00  0.00    -0.066 SA
ENDROOT
BRANCH   2   9
HETATM    9  C   UNK N   1      28.508  17.911   9.212  0.00  0.00     0.285 C 
HETATM   10  O   UNK N   1      27.683  17.134   9.671  0.00  0.00    -0.260 OA
BRANCH   9  11
HETATM   11  O   UNK N   1      29.808  17.807   9.578  0.00  0.00    -0.318 OA
BRANCH  11  12
HETATM   12  C   UNK N   1      30.677  16.949   8.943  0.00  0.00     0.174 C 
HETATM   13  C   UNK N   1      31.788  17.739   8.287  0.00  0.00     0.034 C 
ENDBRANCH  11  12
ENDBRANCH   9  11
ENDBRANCH   2   9
BRANCH   5  14
HETATM   14  N   UNK N   1      28.153  17.198   3.372  0.00  0.00     0.112 N 
HETATM   15  C   UNK N   1      26.737  16.763   3.453  0.00  0.00     0.274 C 
HETATM   16  C   UNK N   1      26.480  15.280   3.167  0.00  0.00     0.030 C 
HETATM   17  C   UNK N   1      27.316  14.846   1.977  0.00  0.00     0.003 C 
HETATM   18  C   UNK N   1      28.806  15.090   2.224  0.00  0.00     0.030 C 
HETATM   19  C   UNK N   1      29.060  16.040   3.397  0.00  0.00     0.274 C 
ENDBRANCH   5  14
TORSDOF 4
ENDMDL
MODEL 3
REMARK VINA RESULT:      -5.7     17.446     21.019
REMARK  4 active torsions:
REMARK  status: ('A' for Active; 'I' for Inactive)
REMARK    1  A    between atoms: O_18  and  C_3 
REMARK    2  A    between atoms: C_11  and  C_9 
REMARK    3  A    between atoms: O_18  and  C_11 
REMARK    4  A    between atoms: N_15  and  C_13 
ROOT
HETATM    1  C   UNK N   1      37.309  12.780   8.911  0.00  0.00     0.160 C 
HETATM    2  C   UNK N   1      35.813  15.306   9.474  0.00  0.00     0.119 C 
HETATM    3  C   UNK N   1      35.973  14.329  10.395  0.00  0.00     0.082 C 
HETATM    4  C   UNK N   1      37.141  12.609  11.353  0.00  0.00     0.268 C 
HETATM    5  C   UNK N   1      36.688  13.354  12.589  0.00  0.00     0.382 C 
HETATM    6  N   UNK N   1      36.806  13.208  10.198  0.00  0.00    -0.314 N 
HETATM    7  O   UNK N   1      37.866  11.626  11.390  0.00  0.00    -0.270 OA
HETATM    8  S   UNK N   1      35.255  14.377  12.042  0.00  0.00    -0.066 SA
ENDROOT
BRANCH   2   9
HETATM    9  C   UNK N   1      35.002  16.533   9.700  0.00  0.00     0.285 C 
HETATM   10  O   UNK N   1      35.442  17.470  10.351  0.00  0.00    -0.260 OA
BRANCH   9  11
HETATM   11  O   UNK N   1      33.768  16.616   9.148  0.00  0.00    -0.318 OA
BRANCH  11  12
HETATM   12  C   UNK N   1      33.339  17.748   8.493  0.00  0.00     0.174 C 
HETATM   13  C   UNK N   1      33.729  17.674   7.033  0.00  0.00     0.034 C 
ENDBRANCH  11  12
ENDBRANCH   9  11
ENDBRANCH   2   9
BRANCH   5  14
HETATM   14  N   UNK N   1      36.452  12.549  13.794  0.00  0.00     0.112 N 
HETATM   15  C   UNK N   1      35.255  11.713  13.523  0.00  0.00     0.274 C 
HETATM   16  C   UNK N   1      34.173  11.733  14.607  0.00  0.00     0.030 C 
HETATM   17  C   UNK N   1      34.829  11.657  15.973  0.00  0.00     0.003 C 
HETATM   18  C   UNK N   1      35.812  12.809  16.184  0.00  0.00     0.030 C 
HETATM   19  C   UNK N   1      36.186  13.510  14.876  0.00  0.00     0.274 C 
ENDBRANCH   5  14
TORSDOF 4
ENDMDL
MODEL 4
REMARK VINA RESULT:      -5.6      1.733      2.266
REMARK  4 active torsions:
REMARK  status: ('A' for Active; 'I' for Inactive)
REMARK    1  A    between atoms: O_18  and  C_3 
REMARK    2  A    between atoms: C_11  and  C_9 
REMARK    3  A    between atoms: O_18  and  C_11 
REMARK    4  A    between atoms: N_15  and  C_13 
ROOT
HETATM    1  C   UNK N   1      27.056  21.690  -7.760  0.00  0.00     0.160 C 
HETATM    2  C   UNK N   1      29.461  21.965  -6.006  0.00  0.00     0.119 C 
HETATM    3  C   UNK N   1      28.481  22.896  -6.055  0.00  0.00     0.082 C 
HETATM    4  C   UNK N   1      26.303  23.541  -6.335  0.00  0.00     0.268 C 
HETATM    5  C   UNK N   1      26.680  24.366  -5.123  0.00  0.00     0.382 C 
HETATM    6  N   UNK N   1      27.271  22.707  -6.753  0.00  0.00    -0.314 N 
HETATM    7  O   UNK N   1      25.178  23.524  -6.812  0.00  0.00    -0.270 OA
HETATM    8  S   UNK N   1      28.522  24.443  -5.142  0.00  0.00    -0.066 SA
ENDROOT
BRANCH   2   9
HETATM    9  C   UNK N   1      30.709  22.116  -5.208  0.00  0.00     0.285 C 
HETATM   10  O   UNK N   1      31.713  22.618  -5.695  0.00  0.00    -0.260 OA
BRANCH   9  11
HETATM   11  O   UNK N   1      30.714  21.715  -3.915  0.00  0.00    -0.318 OA
BRANCH  11  12
HETATM   12  C   UNK N   1      31.160  22.533  -2.901  0.00  0.00     0.174 C 
HETATM   13  C   UNK N   1      29.993  22.962  -2.040  0.00  0.00     0.034 C 
ENDBRANCH  11  12
ENDBRANCH   9  11
ENDBRANCH   2   9
BRANCH   5  14
HETATM   14  N   UNK N   1      26.006  25.661  -4.973  0.00  0.00     0.112 N 
HETATM   15  C   UNK N   1      26.507  26.534  -6.064  0.00  0.00     0.274 C 
HETATM   16  C   UNK N   1      26.983  27.925  -5.635  0.00  0.00     0.030 C 
HETATM   17  C   UNK N   1      26.010  28.499  -4.622  0.00  0.00     0.003 C 
HETATM   18  C   UNK N   1      25.871  27.586  -3.403  0.00  0.00     0.030 C 
HETATM   19  C   UNK N   1      26.415  26.178  -3.658  0.00  0.00     0.274 C 
ENDBRANCH   5  14
TORSDOF 4
ENDMDL
MODEL 5
REMARK VINA RESULT:      -5.6     12.376     14.332
REMARK  4 active torsions:
REMARK  status: ('A' for Active; 'I' for Inactive)
REMARK    1  A    between atoms: O_18  and  C_3 
REMARK    2  A    between atoms: C_11  and  C_9 
REMARK    3  A    between atoms: O_18  and  C_11 
REMARK    4  A    between atoms: N_15  and  C_13 
ROOT
HETATM    1  C   UNK N   1      29.963  18.610   9.460  0.00  0.00     0.160 C 
HETATM    2  C   UNK N   1      32.643  17.949   8.314  0.00  0.00     0.119 C 
HETATM    3  C   UNK N   1      31.489  17.463   7.803  0.00  0.00     0.082 C 
HETATM    4  C   UNK N   1      29.253  17.609   7.334  0.00  0.00     0.268 C 
HETATM    5  C   UNK N   1      29.772  17.055   6.026  0.00  0.00     0.382 C 
HETATM    6  N   UNK N   1      30.215  17.890   8.231  0.00  0.00    -0.314 N 
HETATM    7  O   UNK N   1      28.083  17.909   7.520  0.00  0.00    -0.270 OA
HETATM    8  S   UNK N   1      31.409  16.308   6.429  0.00  0.00    -0.066 SA
ENDROOT
BRANCH   2   9
HETATM    9  C   UNK N   1      33.994  17.569   7.817  0.00  0.00     0.285 C 
HETATM   10  O   UNK N   1      34.526  18.182   6.903  0.00  0.00    -0.260 OA
BRANCH   9  11
HETATM   11  O   UNK N   1      34.648  16.543   8.412  0.00  0.00    -0.318 OA
BRANCH  11  12
HETATM   12  C   UNK N   1      34.339  16.125   9.687  0.00  0.00     0.174 C 
HETATM   13  C   UNK N   1      35.381  16.635  10.658  0.00  0.00     0.034 C 
ENDBRANCH  11  12
ENDBRANCH   9  11
ENDBRANCH   2   9
BRANCH   5  14
HETATM   14  N   UNK N   1      28.861  16.184   5.272  0.00  0.00     0.112 N 
HETATM   15  C   UNK N   1      29.523  14.860   5.167  0.00  0.00     0.274 C 
HETATM   16  C   UNK N   1      29.571  14.251   3.762  0.00  0.00     0.030 C 
HETATM   17  C   UNK N   1      28.232  14.460   3.079  0.00  0.00     0.003 C 
HETATM   18  C   UNK N   1      27.871  15.944   3.002  0.00  0.00     0.030 C 
HETATM   19  C   UNK N   1      28.715  16.804   3.946  0.00  0.00     0.274 C 
ENDBRANCH   5  14
TORSDOF 4
ENDMDL
MODEL 6
REMARK VINA RESULT:      -5.5     16.237     19.121
REMARK  4 active torsions:
REMARK  status: ('A' for Active; 'I' for Inactive)
REMARK    1  A    between atoms: O_18  and  C_3 
REMARK    2  A    between atoms: C_11  and  C_9 
REMARK    3  A    between atoms: O_18  and  C_11 
REMARK    4  A    between atoms: N_15  and  C_13 
ROOT
HETATM    1  C   UNK N   1      37.973  12.939   9.698  0.00  0.00     0.160 C 
HETATM    2  C   UNK N   1      36.633  13.463  12.318  0.00  0.00     0.119 C 
HETATM    3  C   UNK N   1      36.170  13.958  11.148  0.00  0.00     0.082 C 
HETATM    4  C   UNK N   1      35.846  13.856   8.884  0.00  0.00     0.268 C 
HETATM    5  C   UNK N   1      34.482  14.329   9.335  0.00  0.00     0.382 C 
HETATM    6  N   UNK N   1      36.696  13.591   9.892  0.00  0.00    -0.314 N 
HETATM    7  O   UNK N   1      36.117  13.599   7.720  0.00  0.00    -0.270 OA
HETATM    8  S   UNK N   1      34.747  15.046  11.013  0.00  0.00    -0.066 SA
ENDROOT
BRANCH   2   9
HETATM    9  C   UNK N   1      36.037  13.779  13.645  0.00  0.00     0.285 C 
HETATM   10  O   UNK N   1      36.518  14.643  14.365  0.00  0.00    -0.260 OA
BRANCH   9  11
HETATM   11  O   UNK N   1      34.927  13.113  14.042  0.00  0.00    -0.318 OA
BRANCH  11  12
HETATM   12  C   UNK N   1      34.695  11.804  13.681  0.00  0.00     0.174 C 
HETATM   13  C   UNK N   1      33.771  11.153  14.686  0.00  0.00     0.034 C 
ENDBRANCH  11  12
ENDBRANCH   9  11
ENDBRANCH   2   9
BRANCH   5  14
HETATM   14  N   UNK N   1      33.742  15.188   8.402  0.00  0.00     0.112 N 
HETATM   15  C   UNK N   1      34.439  16.498   8.381  0.00  0.00     0.274 C 
HETATM   16  C   UNK N   1      33.546  17.729   8.567  0.00  0.00     0.030 C 
HETATM   17  C   UNK N   1      32.279  17.557   7.749  0.00  0.00     0.003 C 
HETATM   18  C   UNK N   1      31.525  16.289   8.150  0.00  0.00     0.030 C 
HETATM   19  C   UNK N   1      32.389  15.323   8.965  0.00  0.00     0.274 C 
ENDBRANCH   5  14
TORSDOF 4
ENDMDL
MODEL 7
REMARK VINA RESULT:      -5.4      2.155      2.660
REMARK  4 active torsions:
REMARK  status: ('A' for Active; 'I' for Inactive)
REMARK    1  A    between atoms: O_18  and  C_3 
REMARK    2  A    between atoms: C_11  and  C_9 
REMARK    3  A    between atoms: O_18  and  C_11 
REMARK    4  A    between atoms: N_15  and  C_13 
ROOT
HETATM    1  C   UNK N   1      32.486  25.870  -5.232  0.00  0.00     0.160 C 
HETATM    2  C   UNK N   1      31.290  23.698  -3.562  0.00  0.00     0.119 C 
HETATM    3  C   UNK N   1      30.558  24.710  -4.081  0.00  0.00     0.082 C 
HETATM    4  C   UNK N   1      30.109  26.279  -5.686  0.00  0.00     0.268 C 
HETATM    5  C   UNK N   1      28.719  25.733  -5.440  0.00  0.00     0.382 C 
HETATM    6  N   UNK N   1      31.076  25.648  -4.997  0.00  0.00    -0.314 N 
HETATM    7  O   UNK N   1      30.359  27.122  -6.535  0.00  0.00    -0.270 OA
HETATM    8  S   UNK N   1      28.799  24.929  -3.783  0.00  0.00    -0.066 SA
ENDROOT
BRANCH   2   9
HETATM    9  C   UNK N   1      30.737  22.654  -2.658  0.00  0.00     0.285 C 
HETATM   10  O   UNK N   1      30.590  22.866  -1.462  0.00  0.00    -0.260 OA
BRANCH   9  11
HETATM   11  O   UNK N   1      30.367  21.461  -3.181  0.00  0.00    -0.318 OA
BRANCH  11  12
HETATM   12  C   UNK N   1      31.059  20.874  -4.217  0.00  0.00     0.174 C 
HETATM   13  C   UNK N   1      30.244  20.959  -5.489  0.00  0.00     0.034 C 
ENDBRANCH  11  12
ENDBRANCH   9  11
ENDBRANCH   2   9
BRANCH   5  14
HETATM   14  N   UNK N   1      27.602  26.669  -5.623  0.00  0.00     0.112 N 
HETATM   15  C   UNK N   1      27.512  27.476  -4.381  0.00  0.00     0.274 C 
HETATM   16  C   UNK N   1      26.116  27.583  -3.759  0.00  0.00     0.030 C 
HETATM   17  C   UNK N   1      25.093  27.807  -4.858  0.00  0.00     0.003 C 
HETATM   18  C   UNK N   1      25.129  26.680  -5.891  0.00  0.00     0.030 C 
HETATM   19  C   UNK N   1      26.403  25.835  -5.796  0.00  0.00     0.274 C 
ENDBRANCH   5  14
TORSDOF 4
ENDMDL
MODEL 8
REMARK VINA RESULT:      -5.3     15.966     17.857
REMARK  4 active torsions:
REMARK  status: ('A' for Active; 'I' for Inactive)
REMARK    1  A    between atoms: O_18  and  C_3 
REMARK    2  A    between atoms: C_11  and  C_9 
REMARK    3  A    between atoms: O_18  and  C_11 
REMARK    4  A    between atoms: N_15  and  C_13 
ROOT
HETATM    1  C   UNK N   1      18.953  17.173   9.043  0.00  0.00     0.160 C 
HETATM    2  C   UNK N   1      20.691  17.645   6.657  0.00  0.00     0.119 C 
HETATM    3  C   UNK N   1      20.824  16.562   7.457  0.00  0.00     0.082 C 
HETATM    4  C   UNK N   1      19.992  14.956   8.859  0.00  0.00     0.268 C 
HETATM    5  C   UNK N   1      20.906  14.117   7.994  0.00  0.00     0.382 C 
HETATM    6  N   UNK N   1      19.915  16.245   8.487  0.00  0.00    -0.314 N 
HETATM    7  O   UNK N   1      19.275  14.487   9.731  0.00  0.00    -0.270 OA
HETATM    8  S   UNK N   1      22.095  15.310   7.245  0.00  0.00    -0.066 SA
ENDROOT
BRANCH   2   9
HETATM    9  C   UNK N   1      21.597  17.948   5.516  0.00  0.00     0.285 C 
HETATM   10  O   UNK N   1      22.726  18.380   5.702  0.00  0.00    -0.260 OA
BRANCH   9  11
HETATM   11  O   UNK N   1      21.166  17.712   4.254  0.00  0.00    -0.318 OA
BRANCH  11  12
HETATM   12  C   UNK N   1      21.867  16.909   3.383  0.00  0.00     0.174 C 
HETATM   13  C   UNK N   1      21.329  15.497   3.443  0.00  0.00     0.034 C 
ENDBRANCH  11  12
ENDBRANCH   9  11
ENDBRANCH   2   9
BRANCH   5  14
HETATM   14  N   UNK N   1      21.520  12.944   8.629  0.00  0.00     0.112 N 
HETATM   15  C   UNK N   1      22.327  13.447   9.768  0.00  0.00     0.274 C 
HETATM   16  C   UNK N   1      23.765  12.923   9.844  0.00  0.00     0.030 C 
HETATM   17  C   UNK N   1      23.775  11.437   9.535  0.00  0.00     0.003 C 
HETATM   18  C   UNK N   1      23.178  11.151   8.156  0.00  0.00     0.030 C 
HETATM   19  C   UNK N   1      22.380  12.335   7.603  0.00  0.00     0.274 C 
ENDBRANCH   5  14
TORSDOF 4
ENDMDL
MODEL 9
REMARK VINA RESULT:      -5.2     10.898     12.801
REMARK  4 active torsions:
REMARK  status: ('A' for Active; 'I' for Inactive)
REMARK    1  A    between atoms: O_18  and  C_3 
REMARK    2  A    between atoms: C_11  and  C_9 
REMARK    3  A    between atoms: O_18  and  C_11 
REMARK    4  A    between atoms: N_15  and  C_13 
ROOT
HETATM    1  C   UNK N   1      29.794  18.516   9.514  0.00  0.00     0.160 C 
HETATM    2  C   UNK N   1      31.194  16.647   7.647  0.00  0.00     0.119 C 
HETATM    3  C   UNK N   1      29.987  17.192   7.370  0.00  0.00     0.082 C 
HETATM    4  C   UNK N   1      28.435  18.869   7.501  0.00  0.00     0.268 C 
HETATM    5  C   UNK N   1      28.333  18.516   6.034  0.00  0.00     0.382 C 
HETATM    6  N   UNK N   1      29.390  18.193   8.163  0.00  0.00    -0.314 N 
HETATM    7  O   UNK N   1      27.809  19.783   8.017  0.00  0.00    -0.270 OA
HETATM    8  S   UNK N   1      29.034  16.816   5.894  0.00  0.00    -0.066 SA
ENDROOT
BRANCH   2   9
HETATM    9  C   UNK N   1      31.872  15.649   6.777  0.00  0.00     0.285 C 
HETATM   10  O   UNK N   1      31.562  14.466   6.812  0.00  0.00    -0.260 OA
BRANCH   9  11
HETATM   11  O   UNK N   1      32.828  16.070   5.916  0.00  0.00    -0.318 OA
BRANCH  11  12
HETATM   12  C   UNK N   1      32.610  16.129   4.557  0.00  0.00     0.174 C 
HETATM   13  C   UNK N   1      32.370  17.563   4.139  0.00  0.00     0.034 C 
ENDBRANCH  11  12
ENDBRANCH   9  11
ENDBRANCH   2   9
BRANCH   5  14
HETATM   14  N   UNK N   1      27.020  18.700   5.402  0.00  0.00     0.112 N 
HETATM   15  C   UNK N   1      26.584  17.364   4.924  0.00  0.00     0.274 C 
HETATM   16  C   UNK N   1      26.097  17.305   3.473  0.00  0.00     0.030 C 
HETATM   17  C   UNK N   1      25.220  18.511   3.189  0.00  0.00     0.003 C 
HETATM   18  C   UNK N   1      25.970  19.818   3.444  0.00  0.00     0.030 C 
HETATM   19  C   UNK N   1      27.241  19.615   4.272  0.00  0.00     0.274 C 
ENDBRANCH   5  14
TORSDOF 4
ENDMDL
