MODEL 1
REMARK VINA RESULT:      -7.8      0.000      0.000
REMARK  7 active torsions:
REMARK  status: ('A' for Active; 'I' for Inactive)
REMARK    1  A    between atoms: C_14  and  C_3 
REMARK    2  A    between atoms: C_3  and  C_18 
REMARK    3  A    between atoms: C_5  and  N_22 
REMARK    4  A    between atoms: C_8  and  C_17 
REMARK    5  A    between atoms: N_22  and  S_23 
REMARK    6  A    between atoms: C_26  and  S_23 
REMARK    7  A    between atoms: C_26  and  C_27 
ROOT
HETATM    1  C   UNK N   1      20.721  19.085   2.940  0.00  0.00     0.106 A 
HETATM    2  C   UNK N   1      20.157  15.107   0.903  0.00  0.00    -0.009 A 
HETATM    3  C   UNK N   1      19.250  15.919   0.165  0.00  0.00     0.102 A 
HETATM    4  N   UNK N   1      19.135  17.259   0.444  0.00  0.00    -0.351 N 
ATOM      5  HN  UNK N   1      18.493  17.848  -0.087  1.00  0.00     0.166 HD
HETATM    6  C   UNK N   1      20.929  15.699   1.905  0.00  0.00     0.030 A 
HETATM    7  N   UNK N   1      19.851  19.049   1.896  0.00  0.00    -0.351 N 
HETATM    8  C   UNK N   1      21.323  17.833   3.110  0.00  0.00     0.044 A 
HETATM    9  C   UNK N   1      20.765  17.039   2.151  0.00  0.00     0.024 A 
HETATM   10  C   UNK N   1      19.891  17.786   1.442  0.00  0.00     0.116 A 
HETATM   11  H   UNK N   1      19.306  19.791   1.547  0.00  0.00     0.166 HD
ENDROOT
BRANCH   8  12
HETATM   12  C   UNK N   1      22.270  17.317   4.152  0.00  0.00     0.200 C 
HETATM   13  O   UNK N   1      23.466  17.473   3.949  0.00  0.00    -0.286 OA
BRANCH  12  14
HETATM   14  C   UNK N   1      21.873  16.514   5.350  0.00  0.00     0.094 A 
HETATM   15  C   UNK N   1      21.172  17.068   6.446  0.00  0.00     0.160 A 
HETATM   16  C   UNK N   1      20.804  16.252   7.537  0.00  0.00     0.082 A 
HETATM   17  F   UNK N   1      20.909  18.383   6.469  0.00  0.00    -0.203 F 
HETATM   18  C   UNK N   1      21.137  14.898   7.521  0.00  0.00     0.036 A 
HETATM   19  C   UNK N   1      21.834  14.346   6.459  0.00  0.00     0.046 A 
HETATM   20  C   UNK N   1      22.211  15.139   5.383  0.00  0.00     0.133 A 
HETATM   21  F   UNK N   1      22.875  14.550   4.356  0.00  0.00    -0.205 F 
BRANCH  16  22
HETATM   22  N   UNK N   1      20.105  16.720   8.692  0.00  0.00    -0.281 N 
HETATM   23  H   UNK N   1      20.710  17.068   9.387  0.00  0.00     0.178 HD
BRANCH  22  24
HETATM   24  S   UNK N   1      18.395  16.819   9.161  0.00  0.00     0.231 S 
HETATM   25  O   UNK N   1      18.734  15.398   9.647  0.00  0.00    -0.206 OA
HETATM   26  O   UNK N   1      18.053  16.658   7.676  0.00  0.00    -0.206 OA
BRANCH  24  27
HETATM   27  C   UNK N   1      19.398  18.308   9.392  0.00  0.00     0.163 C 
BRANCH  27  28
HETATM   28  C   UNK N   1      18.872  19.206  10.479  0.00  0.00     0.012 C 
HETATM   29  C   UNK N   1      17.532  18.649  10.911  0.00  0.00     0.006 C 
ENDBRANCH  27  28
ENDBRANCH  24  27
ENDBRANCH  22  24
ENDBRANCH  16  22
ENDBRANCH  12  14
ENDBRANCH   8  12
BRANCH   2  30
HETATM   30  C   UNK N   1      20.264  13.646   0.721  0.00  0.00    -0.025 A 
HETATM   31  C   UNK N   1      21.513  13.023   0.902  0.00  0.00     0.014 A 
HETATM   32  C   UNK N   1      21.642  11.643   0.800  0.00  0.00     0.024 A 
HETATM   33  C   UNK N   1      20.523  10.863   0.520  0.00  0.00     0.034 A 
HETATM   34  C   UNK N   1      19.274  11.468   0.334  0.00  0.00     0.024 A 
HETATM   35 Cl   UNK N   1      20.690   9.126   0.416  0.00  0.00    -0.084 Cl
HETATM   36  C   UNK N   1      19.143  12.857   0.435  0.00  0.00     0.014 A 
ENDBRANCH   2  30
TORSDOF 7
ENDMDL
MODEL 2
REMARK VINA RESULT:      -7.8      4.245      6.577
REMARK  7 active torsions:
REMARK  status: ('A' for Active; 'I' for Inactive)
REMARK    1  A    between atoms: C_14  and  C_3 
REMARK    2  A    between atoms: C_3  and  C_18 
REMARK    3  A    between atoms: C_5  and  N_22 
REMARK    4  A    between atoms: C_8  and  C_17 
REMARK    5  A    between atoms: N_22  and  S_23 
REMARK    6  A    between atoms: C_26  and  S_23 
REMARK    7  A    between atoms: C_26  and  C_27 
ROOT
HETATM    1  C   UNK N   1      20.174  17.881   1.962  0.00  0.00     0.106 A 
HETATM    2  C   UNK N   1      20.390  14.828   5.268  0.00  0.00    -0.009 A 
HETATM    3  C   UNK N   1      19.631  14.119   4.295  0.00  0.00     0.102 A 
HETATM    4  N   UNK N   1      19.360  14.691   3.075  0.00  0.00    -0.351 N 
ATOM      5  HN  UNK N   1      18.824  14.184   2.370  1.00  0.00     0.166 HD
HETATM    6  C   UNK N   1      20.858  16.107   4.956  0.00  0.00     0.030 A 
HETATM    7  N   UNK N   1      19.583  16.680   1.727  0.00  0.00    -0.351 N 
HETATM    8  C   UNK N   1      20.804  17.873   3.212  0.00  0.00     0.044 A 
HETATM    9  C   UNK N   1      20.548  16.636   3.729  0.00  0.00     0.024 A 
HETATM   10  C   UNK N   1      19.817  15.945   2.826  0.00  0.00     0.116 A 
HETATM   11  H   UNK N   1      19.087  16.406   0.921  0.00  0.00     0.166 HD
ENDROOT
BRANCH   8  12
HETATM   12  C   UNK N   1      21.509  18.951   3.980  0.00  0.00     0.200 C 
HETATM   13  O   UNK N   1      20.812  19.759   4.577  0.00  0.00    -0.286 OA
BRANCH  12  14
HETATM   14  C   UNK N   1      22.985  19.190   3.966  0.00  0.00     0.094 A 
HETATM   15  C   UNK N   1      23.877  18.528   4.840  0.00  0.00     0.160 A 
HETATM   16  C   UNK N   1      25.264  18.778   4.760  0.00  0.00     0.082 A 
HETATM   17  F   UNK N   1      23.395  17.703   5.781  0.00  0.00    -0.203 F 
HETATM   18  C   UNK N   1      25.741  19.683   3.812  0.00  0.00     0.036 A 
HETATM   19  C   UNK N   1      24.877  20.347   2.958  0.00  0.00     0.046 A 
HETATM   20  C   UNK N   1      23.509  20.118   3.032  0.00  0.00     0.133 A 
HETATM   21  F   UNK N   1      22.702  20.776   2.162  0.00  0.00    -0.205 F 
BRANCH  16  22
HETATM   22  N   UNK N   1      26.242  18.168   5.604  0.00  0.00    -0.281 N 
HETATM   23  H   UNK N   1      26.485  18.732   6.374  0.00  0.00     0.178 HD
BRANCH  22  24
HETATM   24  S   UNK N   1      27.119  16.623   5.583  0.00  0.00     0.231 S 
HETATM   25  O   UNK N   1      26.578  16.654   4.142  0.00  0.00    -0.206 OA
HETATM   26  O   UNK N   1      25.975  16.045   6.423  0.00  0.00    -0.206 OA
BRANCH  24  27
HETATM   27  C   UNK N   1      27.890  17.996   6.477  0.00  0.00     0.163 C 
BRANCH  27  28
HETATM   28  C   UNK N   1      28.801  17.536   7.583  0.00  0.00     0.012 C 
HETATM   29  C   UNK N   1      28.148  17.928   8.892  0.00  0.00     0.006 C 
ENDBRANCH  27  28
ENDBRANCH  24  27
ENDBRANCH  22  24
ENDBRANCH  16  22
ENDBRANCH  12  14
ENDBRANCH   8  12
BRANCH   2  30
HETATM   30  C   UNK N   1      20.640  14.314   6.628  0.00  0.00    -0.025 A 
HETATM   31  C   UNK N   1      21.132  13.006   6.787  0.00  0.00     0.014 A 
HETATM   32  C   UNK N   1      21.439  12.507   8.047  0.00  0.00     0.024 A 
HETATM   33  C   UNK N   1      21.261  13.312   9.171  0.00  0.00     0.034 A 
HETATM   34  C   UNK N   1      20.769  14.615   9.030  0.00  0.00     0.024 A 
HETATM   35 Cl   UNK N   1      21.670  12.685  10.750  0.00  0.00    -0.084 Cl
HETATM   36  C   UNK N   1      20.459  15.118   7.761  0.00  0.00     0.014 A 
ENDBRANCH   2  30
TORSDOF 7
ENDMDL
MODEL 3
REMARK VINA RESULT:      -7.6     11.174     13.218
REMARK  7 active torsions:
REMARK  status: ('A' for Active; 'I' for Inactive)
REMARK    1  A    between atoms: C_14  and  C_3 
REMARK    2  A    between atoms: C_3  and  C_18 
REMARK    3  A    between atoms: C_5  and  N_22 
REMARK    4  A    between atoms: C_8  and  C_17 
REMARK    5  A    between atoms: N_22  and  S_23 
REMARK    6  A    between atoms: C_26  and  S_23 
REMARK    7  A    between atoms: C_26  and  C_27 
ROOT
HETATM    1  C   UNK N   1      31.835  12.848   4.819  0.00  0.00     0.106 A 
HETATM    2  C   UNK N   1      28.977  16.253   5.549  0.00  0.00    -0.009 A 
HETATM    3  C   UNK N   1      28.070  15.202   5.237  0.00  0.00     0.102 A 
HETATM    4  N   UNK N   1      28.538  13.936   4.978  0.00  0.00    -0.351 N 
ATOM      5  HN  UNK N   1      27.892  13.177   4.762  1.00  0.00     0.166 HD
HETATM    6  C   UNK N   1      30.344  15.972   5.596  0.00  0.00     0.030 A 
HETATM    7  N   UNK N   1      30.509  12.568   4.716  0.00  0.00    -0.351 N 
HETATM    8  C   UNK N   1      32.018  14.178   5.213  0.00  0.00     0.044 A 
HETATM    9  C   UNK N   1      30.759  14.693   5.317  0.00  0.00     0.024 A 
HETATM   10  C   UNK N   1      29.877  13.715   5.014  0.00  0.00     0.116 A 
HETATM   11  H   UNK N   1      30.097  11.707   4.473  0.00  0.00     0.166 HD
ENDROOT
BRANCH   8  12
HETATM   12  C   UNK N   1      33.258  15.006   5.381  0.00  0.00     0.200 C 
HETATM   13  O   UNK N   1      34.131  14.884   4.534  0.00  0.00    -0.286 OA
BRANCH  12  14
HETATM   14  C   UNK N   1      33.561  15.866   6.566  0.00  0.00     0.094 A 
HETATM   15  C   UNK N   1      33.766  15.341   7.862  0.00  0.00     0.160 A 
HETATM   16  C   UNK N   1      34.074  16.204   8.936  0.00  0.00     0.082 A 
HETATM   17  F   UNK N   1      33.613  14.026   8.078  0.00  0.00    -0.203 F 
HETATM   18  C   UNK N   1      34.173  17.575   8.704  0.00  0.00     0.036 A 
HETATM   19  C   UNK N   1      33.962  18.104   7.441  0.00  0.00     0.046 A 
HETATM   20  C   UNK N   1      33.649  17.268   6.378  0.00  0.00     0.133 A 
HETATM   21  F   UNK N   1      33.471  17.828   5.154  0.00  0.00    -0.205 F 
BRANCH  16  22
HETATM   22  N   UNK N   1      34.289  15.771  10.281  0.00  0.00    -0.281 N 
HETATM   23  H   UNK N   1      33.466  15.440  10.709  0.00  0.00     0.178 HD
BRANCH  22  24
HETATM   24  S   UNK N   1      35.700  15.692  11.356  0.00  0.00     0.231 S 
HETATM   25  O   UNK N   1      35.304  17.170  11.528  0.00  0.00    -0.206 OA
HETATM   26  O   UNK N   1      36.569  15.659  10.094  0.00  0.00    -0.206 OA
BRANCH  24  27
HETATM   27  C   UNK N   1      34.583  14.267  11.359  0.00  0.00     0.163 C 
BRANCH  27  28
HETATM   28  C   UNK N   1      35.035  13.171  12.285  0.00  0.00     0.012 C 
HETATM   29  C   UNK N   1      35.695  13.833  13.475  0.00  0.00     0.006 C 
ENDBRANCH  27  28
ENDBRANCH  24  27
ENDBRANCH  22  24
ENDBRANCH  16  22
ENDBRANCH  12  14
ENDBRANCH   8  12
BRANCH   2  30
HETATM   30  C   UNK N   1      28.554  17.653   5.746  0.00  0.00    -0.025 A 
HETATM   31  C   UNK N   1      28.287  18.453   4.620  0.00  0.00     0.014 A 
HETATM   32  C   UNK N   1      27.826  19.756   4.764  0.00  0.00     0.024 A 
HETATM   33  C   UNK N   1      27.620  20.279   6.039  0.00  0.00     0.034 A 
HETATM   34  C   UNK N   1      27.884  19.498   7.170  0.00  0.00     0.024 A 
HETATM   35 Cl   UNK N   1      27.020  21.912   6.211  0.00  0.00    -0.084 Cl
HETATM   36  C   UNK N   1      28.350  18.186   7.026  0.00  0.00     0.014 A 
ENDBRANCH   2  30
TORSDOF 7
ENDMDL
MODEL 4
REMARK VINA RESULT:      -7.6      2.155      3.887
REMARK  7 active torsions:
REMARK  status: ('A' for Active; 'I' for Inactive)
REMARK    1  A    between atoms: C_14  and  C_3 
REMARK    2  A    between atoms: C_3  and  C_18 
REMARK    3  A    between atoms: C_5  and  N_22 
REMARK    4  A    between atoms: C_8  and  C_17 
REMARK    5  A    between atoms: N_22  and  S_23 
REMARK    6  A    between atoms: C_26  and  S_23 
REMARK    7  A    between atoms: C_26  and  C_27 
ROOT
HETATM    1  C   UNK N   1      20.703  19.630   3.833  0.00  0.00     0.106 A 
HETATM    2  C   UNK N   1      20.834  15.855   1.378  0.00  0.00    -0.009 A 
HETATM    3  C   UNK N   1      20.078  16.706   0.523  0.00  0.00     0.102 A 
HETATM    4  N   UNK N   1      19.832  18.009   0.885  0.00  0.00    -0.351 N 
ATOM      5  HN  UNK N   1      19.299  18.627   0.273  1.00  0.00     0.166 HD
HETATM    6  C   UNK N   1      21.322  16.369   2.581  0.00  0.00     0.030 A 
HETATM    7  N   UNK N   1      20.099  19.669   2.616  0.00  0.00    -0.351 N 
HETATM    8  C   UNK N   1      21.315  18.387   4.028  0.00  0.00     0.044 A 
HETATM    9  C   UNK N   1      21.036  17.673   2.900  0.00  0.00     0.024 A 
HETATM   10  C   UNK N   1      20.309  18.459   2.074  0.00  0.00     0.116 A 
HETATM   11  H   UNK N   1      19.611  20.425   2.216  0.00  0.00     0.166 HD
ENDROOT
BRANCH   8  12
HETATM   12  C   UNK N   1      22.024  17.800   5.213  0.00  0.00     0.200 C 
HETATM   13  O   UNK N   1      23.237  17.942   5.267  0.00  0.00    -0.286 OA
BRANCH  12  14
HETATM   14  C   UNK N   1      21.382  16.948   6.261  0.00  0.00     0.094 A 
HETATM   15  C   UNK N   1      21.432  15.535   6.236  0.00  0.00     0.160 A 
HETATM   16  C   UNK N   1      20.827  14.786   7.269  0.00  0.00     0.082 A 
HETATM   17  F   UNK N   1      22.008  14.909   5.199  0.00  0.00    -0.203 F 
HETATM   18  C   UNK N   1      20.183  15.454   8.309  0.00  0.00     0.036 A 
HETATM   19  C   UNK N   1      20.116  16.838   8.339  0.00  0.00     0.046 A 
HETATM   20  C   UNK N   1      20.698  17.586   7.325  0.00  0.00     0.133 A 
HETATM   21  F   UNK N   1      20.625  18.939   7.406  0.00  0.00    -0.205 F 
BRANCH  16  22
HETATM   22  N   UNK N   1      20.815  13.359   7.327  0.00  0.00    -0.281 N 
HETATM   23  H   UNK N   1      20.021  12.968   6.897  0.00  0.00     0.178 HD
BRANCH  22  24
HETATM   24  S   UNK N   1      21.906  12.128   7.998  0.00  0.00     0.231 S 
HETATM   25  O   UNK N   1      21.153  12.554   9.271  0.00  0.00    -0.206 OA
HETATM   26  O   UNK N   1      23.037  13.152   7.846  0.00  0.00    -0.206 OA
BRANCH  24  27
HETATM   27  C   UNK N   1      21.179  11.786   6.376  0.00  0.00     0.163 C 
BRANCH  27  28
HETATM   28  C   UNK N   1      22.125  11.074   5.448  0.00  0.00     0.012 C 
HETATM   29  C   UNK N   1      22.125  11.833   4.139  0.00  0.00     0.006 C 
ENDBRANCH  27  28
ENDBRANCH  24  27
ENDBRANCH  22  24
ENDBRANCH  16  22
ENDBRANCH  12  14
ENDBRANCH   8  12
BRANCH   2  30
HETATM   30  C   UNK N   1      21.057  14.424   1.098  0.00  0.00    -0.025 A 
HETATM   31  C   UNK N   1      19.957  13.547   1.088  0.00  0.00     0.014 A 
HETATM   32  C   UNK N   1      20.118  12.204   0.767  0.00  0.00     0.024 A 
HETATM   33  C   UNK N   1      21.383  11.717   0.447  0.00  0.00     0.034 A 
HETATM   34  C   UNK N   1      22.489  12.575   0.456  0.00  0.00     0.024 A 
HETATM   35 Cl   UNK N   1      21.573  10.032   0.024  0.00  0.00    -0.084 Cl
HETATM   36  C   UNK N   1      22.328  13.927   0.780  0.00  0.00     0.014 A 
ENDBRANCH   2  30
TORSDOF 7
ENDMDL
MODEL 5
REMARK VINA RESULT:      -7.5     11.799     13.827
REMARK  7 active torsions:
REMARK  status: ('A' for Active; 'I' for Inactive)
REMARK    1  A    between atoms: C_14  and  C_3 
REMARK    2  A    between atoms: C_3  and  C_18 
REMARK    3  A    between atoms: C_5  and  N_22 
REMARK    4  A    between atoms: C_8  and  C_17 
REMARK    5  A    between atoms: N_22  and  S_23 
REMARK    6  A    between atoms: C_26  and  S_23 
REMARK    7  A    between atoms: C_26  and  C_27 
ROOT
HETATM    1  C   UNK N   1      33.404  15.652   3.749  0.00  0.00     0.106 A 
HETATM    2  C   UNK N   1      29.531  17.781   4.628  0.00  0.00    -0.009 A 
HETATM    3  C   UNK N   1      29.265  17.260   3.330  0.00  0.00     0.102 A 
HETATM    4  N   UNK N   1      30.201  16.486   2.687  0.00  0.00    -0.351 N 
ATOM      5  HN  UNK N   1      30.012  16.103   1.761  1.00  0.00     0.166 HD
HETATM    6  C   UNK N   1      30.754  17.483   5.235  0.00  0.00     0.030 A 
HETATM    7  N   UNK N   1      32.432  15.574   2.801  0.00  0.00    -0.351 N 
HETATM    8  C   UNK N   1      32.933  16.353   4.865  0.00  0.00     0.044 A 
HETATM    9  C   UNK N   1      31.658  16.716   4.544  0.00  0.00     0.024 A 
HETATM   10  C   UNK N   1      31.383  16.241   3.309  0.00  0.00     0.116 A 
HETATM   11  H   UNK N   1      32.486  15.125   1.926  0.00  0.00     0.166 HD
ENDROOT
BRANCH   8  12
HETATM   12  C   UNK N   1      33.616  16.793   6.126  0.00  0.00     0.200 C 
HETATM   13  O   UNK N   1      34.194  17.871   6.102  0.00  0.00    -0.286 OA
BRANCH  12  14
HETATM   14  C   UNK N   1      33.756  15.962   7.361  0.00  0.00     0.094 A 
HETATM   15  C   UNK N   1      34.903  15.183   7.636  0.00  0.00     0.160 A 
HETATM   16  C   UNK N   1      34.985  14.439   8.833  0.00  0.00     0.082 A 
HETATM   17  F   UNK N   1      35.889  15.111   6.730  0.00  0.00    -0.203 F 
HETATM   18  C   UNK N   1      33.925  14.481   9.737  0.00  0.00     0.036 A 
HETATM   19  C   UNK N   1      32.789  15.231   9.474  0.00  0.00     0.046 A 
HETATM   20  C   UNK N   1      32.692  15.960   8.297  0.00  0.00     0.133 A 
HETATM   21  F   UNK N   1      31.569  16.695   8.091  0.00  0.00    -0.205 F 
BRANCH  16  22
HETATM   22  N   UNK N   1      36.095  13.616   9.194  0.00  0.00    -0.281 N 
HETATM   23  H   UNK N   1      35.939  12.663   9.006  0.00  0.00     0.178 HD
BRANCH  22  24
HETATM   24  S   UNK N   1      37.694  13.921   9.905  0.00  0.00     0.231 S 
HETATM   25  O   UNK N   1      37.037  15.299  10.102  0.00  0.00    -0.206 OA
HETATM   26  O   UNK N   1      38.245  13.945   8.476  0.00  0.00    -0.206 OA
BRANCH  24  27
HETATM   27  C   UNK N   1      36.940  12.308  10.235  0.00  0.00     0.163 C 
BRANCH  27  28
HETATM   28  C   UNK N   1      36.325  12.218  11.605  0.00  0.00     0.012 C 
HETATM   29  C   UNK N   1      35.199  11.210  11.526  0.00  0.00     0.006 C 
ENDBRANCH  27  28
ENDBRANCH  24  27
ENDBRANCH  22  24
ENDBRANCH  16  22
ENDBRANCH  12  14
ENDBRANCH   8  12
BRANCH   2  30
HETATM   30  C   UNK N   1      28.613  18.693   5.336  0.00  0.00    -0.025 A 
HETATM   31  C   UNK N   1      28.477  18.581   6.732  0.00  0.00     0.014 A 
HETATM   32  C   UNK N   1      27.670  19.461   7.442  0.00  0.00     0.024 A 
HETATM   33  C   UNK N   1      26.989  20.473   6.768  0.00  0.00     0.034 A 
HETATM   34  C   UNK N   1      27.112  20.596   5.379  0.00  0.00     0.024 A 
HETATM   35 Cl   UNK N   1      25.994  21.590   7.672  0.00  0.00    -0.084 Cl
HETATM   36  C   UNK N   1      27.923  19.709   4.662  0.00  0.00     0.014 A 
ENDBRANCH   2  30
TORSDOF 7
ENDMDL
MODEL 6
REMARK VINA RESULT:      -7.4     15.202     16.400
REMARK  7 active torsions:
REMARK  status: ('A' for Active; 'I' for Inactive)
REMARK    1  A    between atoms: C_14  and  C_3 
REMARK    2  A    between atoms: C_3  and  C_18 
REMARK    3  A    between atoms: C_5  and  N_22 
REMARK    4  A    between atoms: C_8  and  C_17 
REMARK    5  A    between atoms: N_22  and  S_23 
REMARK    6  A    between atoms: C_26  and  S_23 
REMARK    7  A    between atoms: C_26  and  C_27 
ROOT
HETATM    1  C   UNK N   1      25.250  22.914  -8.264  0.00  0.00     0.106 A 
HETATM    2  C   UNK N   1      29.202  21.464  -6.660  0.00  0.00    -0.009 A 
HETATM    3  C   UNK N   1      28.997  20.553  -7.735  0.00  0.00     0.102 A 
HETATM    4  N   UNK N   1      27.890  20.670  -8.540  0.00  0.00    -0.351 N 
ATOM      5  HN  UNK N   1      27.742  20.026  -9.317  1.00  0.00     0.166 HD
HETATM    6  C   UNK N   1      28.266  22.478  -6.448  0.00  0.00     0.030 A 
HETATM    7  N   UNK N   1      25.830  21.871  -8.915  0.00  0.00    -0.351 N 
HETATM    8  C   UNK N   1      26.085  23.366  -7.235  0.00  0.00     0.044 A 
HETATM    9  C   UNK N   1      27.171  22.542  -7.274  0.00  0.00     0.024 A 
HETATM   10  C   UNK N   1      26.995  21.659  -8.282  0.00  0.00     0.116 A 
HETATM   11  H   UNK N   1      25.472  21.374  -9.686  0.00  0.00     0.166 HD
ENDROOT
BRANCH   8  12
HETATM   12  C   UNK N   1      25.886  24.410  -6.177  0.00  0.00     0.200 C 
HETATM   13  O   UNK N   1      24.910  24.291  -5.450  0.00  0.00    -0.286 OA
BRANCH  12  14
HETATM   14  C   UNK N   1      26.712  25.647  -6.028  0.00  0.00     0.094 A 
HETATM   15  C   UNK N   1      27.680  25.804  -5.009  0.00  0.00     0.160 A 
HETATM   16  C   UNK N   1      28.446  26.988  -4.936  0.00  0.00     0.082 A 
HETATM   17  F   UNK N   1      27.828  24.848  -4.081  0.00  0.00    -0.203 F 
HETATM   18  C   UNK N   1      28.237  27.996  -5.877  0.00  0.00     0.036 A 
HETATM   19  C   UNK N   1      27.284  27.859  -6.872  0.00  0.00     0.046 A 
HETATM   20  C   UNK N   1      26.517  26.705  -6.950  0.00  0.00     0.133 A 
HETATM   21  F   UNK N   1      25.608  26.607  -7.954  0.00  0.00    -0.205 F 
BRANCH  16  22
HETATM   22  N   UNK N   1      29.438  27.244  -3.940  0.00  0.00    -0.281 N 
HETATM   23  H   UNK N   1      29.081  27.735  -3.165  0.00  0.00     0.178 HD
BRANCH  22  24
HETATM   24  S   UNK N   1      31.169  26.879  -3.781  0.00  0.00     0.231 S 
HETATM   25  O   UNK N   1      30.965  26.603  -5.281  0.00  0.00    -0.206 OA
HETATM   26  O   UNK N   1      30.756  25.581  -3.079  0.00  0.00    -0.206 OA
BRANCH  24  27
HETATM   27  C   UNK N   1      30.537  28.297  -2.849  0.00  0.00     0.163 C 
BRANCH  27  28
HETATM   28  C   UNK N   1      31.536  28.841  -1.862  0.00  0.00     0.012 C 
HETATM   29  C   UNK N   1      31.998  30.183  -2.387  0.00  0.00     0.006 C 
ENDBRANCH  27  28
ENDBRANCH  24  27
ENDBRANCH  22  24
ENDBRANCH  16  22
ENDBRANCH  12  14
ENDBRANCH   8  12
BRANCH   2  30
HETATM   30  C   UNK N   1      30.317  21.342  -5.701  0.00  0.00    -0.025 A 
HETATM   31  C   UNK N   1      30.425  22.276  -4.654  0.00  0.00     0.014 A 
HETATM   32  C   UNK N   1      31.424  22.158  -3.695  0.00  0.00     0.024 A 
HETATM   33  C   UNK N   1      32.328  21.101  -3.764  0.00  0.00     0.034 A 
HETATM   34  C   UNK N   1      32.236  20.166  -4.801  0.00  0.00     0.024 A 
HETATM   35 Cl   UNK N   1      33.568  20.949  -2.541  0.00  0.00    -0.084 Cl
HETATM   36  C   UNK N   1      31.232  20.284  -5.769  0.00  0.00     0.014 A 
ENDBRANCH   2  30
TORSDOF 7
ENDMDL
MODEL 7
REMARK VINA RESULT:      -7.4     14.715     15.715
REMARK  7 active torsions:
REMARK  status: ('A' for Active; 'I' for Inactive)
REMARK    1  A    between atoms: C_14  and  C_3 
REMARK    2  A    between atoms: C_3  and  C_18 
REMARK    3  A    between atoms: C_5  and  N_22 
REMARK    4  A    between atoms: C_8  and  C_17 
REMARK    5  A    between atoms: N_22  and  S_23 
REMARK    6  A    between atoms: C_26  and  S_23 
REMARK    7  A    between atoms: C_26  and  C_27 
ROOT
HETATM    1  C   UNK N   1      32.891  21.330  -2.745  0.00  0.00     0.106 A 
HETATM    2  C   UNK N   1      30.403  20.723  -6.452  0.00  0.00    -0.009 A 
HETATM    3  C   UNK N   1      31.464  19.803  -6.685  0.00  0.00     0.102 A 
HETATM    4  N   UNK N   1      32.456  19.636  -5.748  0.00  0.00    -0.351 N 
ATOM      5  HN  UNK N   1      33.213  18.971  -5.906  1.00  0.00     0.166 HD
HETATM    6  C   UNK N   1      30.387  21.443  -5.255  0.00  0.00     0.030 A 
HETATM    7  N   UNK N   1      33.327  20.394  -3.630  0.00  0.00    -0.351 N 
HETATM    8  C   UNK N   1      31.674  21.871  -3.175  0.00  0.00     0.044 A 
HETATM    9  C   UNK N   1      31.409  21.248  -4.360  0.00  0.00     0.024 A 
HETATM   10  C   UNK N   1      32.409  20.374  -4.609  0.00  0.00     0.116 A 
HETATM   11  H   UNK N   1      34.144  19.847  -3.566  0.00  0.00     0.166 HD
ENDROOT
BRANCH   8  12
HETATM   12  C   UNK N   1      30.828  22.981  -2.627  0.00  0.00     0.200 C 
HETATM   13  O   UNK N   1      30.456  22.880  -1.466  0.00  0.00    -0.286 OA
BRANCH  12  14
HETATM   14  C   UNK N   1      30.299  24.130  -3.424  0.00  0.00     0.094 A 
HETATM   15  C   UNK N   1      28.930  24.481  -3.448  0.00  0.00     0.160 A 
HETATM   16  C   UNK N   1      28.496  25.594  -4.201  0.00  0.00     0.082 A 
HETATM   17  F   UNK N   1      28.038  23.719  -2.797  0.00  0.00    -0.203 F 
HETATM   18  C   UNK N   1      29.431  26.339  -4.917  0.00  0.00     0.036 A 
HETATM   19  C   UNK N   1      30.774  26.000  -4.912  0.00  0.00     0.046 A 
HETATM   20  C   UNK N   1      31.213  24.902  -4.184  0.00  0.00     0.133 A 
HETATM   21  F   UNK N   1      32.540  24.619  -4.192  0.00  0.00    -0.205 F 
BRANCH  16  22
HETATM   22  N   UNK N   1      27.136  26.019  -4.296  0.00  0.00    -0.281 N 
HETATM   23  H   UNK N   1      26.913  26.728  -3.649  0.00  0.00     0.178 HD
BRANCH  22  24
HETATM   24  S   UNK N   1      25.753  25.563  -5.313  0.00  0.00     0.231 S 
HETATM   25  O   UNK N   1      25.590  24.558  -4.158  0.00  0.00    -0.206 OA
HETATM   26  O   UNK N   1      26.762  24.912  -6.266  0.00  0.00    -0.206 OA
BRANCH  24  27
HETATM   27  C   UNK N   1      26.117  27.330  -5.163  0.00  0.00     0.163 C 
BRANCH  27  28
HETATM   28  C   UNK N   1      25.655  27.915  -3.855  0.00  0.00     0.012 C 
HETATM   29  C   UNK N   1      26.234  29.310  -3.759  0.00  0.00     0.006 C 
ENDBRANCH  27  28
ENDBRANCH  24  27
ENDBRANCH  22  24
ENDBRANCH  16  22
ENDBRANCH  12  14
ENDBRANCH   8  12
BRANCH   2  30
HETATM   30  C   UNK N   1      29.358  21.020  -7.450  0.00  0.00    -0.025 A 
HETATM   31  C   UNK N   1      29.429  20.412  -8.717  0.00  0.00     0.014 A 
HETATM   32  C   UNK N   1      28.431  20.617  -9.663  0.00  0.00     0.024 A 
HETATM   33  C   UNK N   1      27.344  21.432  -9.355  0.00  0.00     0.034 A 
HETATM   34  C   UNK N   1      27.261  22.048  -8.100  0.00  0.00     0.024 A 
HETATM   35 Cl   UNK N   1      26.083  21.668 -10.542  0.00  0.00    -0.084 Cl
HETATM   36  C   UNK N   1      28.266  21.843  -7.147  0.00  0.00     0.014 A 
ENDBRANCH   2  30
TORSDOF 7
ENDMDL
MODEL 8
REMARK VINA RESULT:      -7.4     14.811     16.190
REMARK  7 active torsions:
REMARK  status: ('A' for Active; 'I' for Inactive)
REMARK    1  A    between atoms: C_14  and  C_3 
REMARK    2  A    between atoms: C_3  and  C_18 
REMARK    3  A    between atoms: C_5  and  N_22 
REMARK    4  A    between atoms: C_8  and  C_17 
REMARK    5  A    between atoms: N_22  and  S_23 
REMARK    6  A    between atoms: C_26  and  S_23 
REMARK    7  A    between atoms: C_26  and  C_27 
ROOT
HETATM    1  C   UNK N   1      26.141  21.286 -10.729  0.00  0.00     0.106 A 
HETATM    2  C   UNK N   1      29.494  20.944  -7.738  0.00  0.00    -0.009 A 
HETATM    3  C   UNK N   1      30.032  20.208  -8.832  0.00  0.00     0.102 A 
HETATM    4  N   UNK N   1      29.325  20.094 -10.005  0.00  0.00    -0.351 N 
ATOM      5  HN  UNK N   1      29.709  19.576 -10.795  1.00  0.00     0.166 HD
HETATM    6  C   UNK N   1      28.245  21.551  -7.884  0.00  0.00     0.030 A 
HETATM    7  N   UNK N   1      27.252  20.610 -11.127  0.00  0.00    -0.351 N 
HETATM    8  C   UNK N   1      26.328  21.805  -9.442  0.00  0.00     0.044 A 
HETATM    9  C   UNK N   1      27.575  21.394  -9.073  0.00  0.00     0.024 A 
HETATM   10  C   UNK N   1      28.105  20.683 -10.092  0.00  0.00     0.116 A 
HETATM   11  H   UNK N   1      27.399  20.161 -11.991  0.00  0.00     0.166 HD
ENDROOT
BRANCH   8  12
HETATM   12  C   UNK N   1      25.400  22.537  -8.519  0.00  0.00     0.200 C 
HETATM   13  O   UNK N   1      24.365  21.969  -8.200  0.00  0.00    -0.286 OA
BRANCH  12  14
HETATM   14  C   UNK N   1      25.580  23.950  -8.065  0.00  0.00     0.094 A 
HETATM   15  C   UNK N   1      25.613  24.319  -6.701  0.00  0.00     0.160 A 
HETATM   16  C   UNK N   1      25.811  25.668  -6.336  0.00  0.00     0.082 A 
HETATM   17  F   UNK N   1      25.401  23.390  -5.756  0.00  0.00    -0.203 F 
HETATM   18  C   UNK N   1      25.974  26.628  -7.333  0.00  0.00     0.036 A 
HETATM   19  C   UNK N   1      25.931  26.282  -8.674  0.00  0.00     0.046 A 
HETATM   20  C   UNK N   1      25.727  24.961  -9.047  0.00  0.00     0.133 A 
HETATM   21  F   UNK N   1      25.713  24.665 -10.372  0.00  0.00    -0.205 F 
BRANCH  16  22
HETATM   22  N   UNK N   1      25.850  26.139  -4.988  0.00  0.00    -0.281 N 
HETATM   23  H   UNK N   1      25.003  26.553  -4.705  0.00  0.00     0.178 HD
BRANCH  22  24
HETATM   24  S   UNK N   1      27.078  26.150  -3.704  0.00  0.00     0.231 S 
HETATM   25  O   UNK N   1      27.941  25.735  -4.909  0.00  0.00    -0.206 OA
HETATM   26  O   UNK N   1      26.454  24.845  -3.197  0.00  0.00    -0.206 OA
BRANCH  24  27
HETATM   27  C   UNK N   1      25.838  27.468  -3.667  0.00  0.00     0.163 C 
BRANCH  27  28
HETATM   28  C   UNK N   1      26.294  28.721  -4.365  0.00  0.00     0.012 C 
HETATM   29  C   UNK N   1      26.647  29.728  -3.292  0.00  0.00     0.006 C 
ENDBRANCH  27  28
ENDBRANCH  24  27
ENDBRANCH  22  24
ENDBRANCH  16  22
ENDBRANCH  12  14
ENDBRANCH   8  12
BRANCH   2  30
HETATM   30  C   UNK N   1      30.154  21.030  -6.422  0.00  0.00    -0.025 A 
HETATM   31  C   UNK N   1      31.155  20.097  -6.095  0.00  0.00     0.014 A 
HETATM   32  C   UNK N   1      31.843  20.182  -4.890  0.00  0.00     0.024 A 
HETATM   33  C   UNK N   1      31.544  21.206  -3.994  0.00  0.00     0.034 A 
HETATM   34  C   UNK N   1      30.548  22.140  -4.303  0.00  0.00     0.024 A 
HETATM   35 Cl   UNK N   1      32.429  21.319  -2.491  0.00  0.00    -0.084 Cl
HETATM   36  C   UNK N   1      29.854  22.055  -5.515  0.00  0.00     0.014 A 
ENDBRANCH   2  30
TORSDOF 7
ENDMDL
MODEL 9
REMARK VINA RESULT:      -7.4      4.077      6.006
REMARK  7 active torsions:
REMARK  status: ('A' for Active; 'I' for Inactive)
REMARK    1  A    between atoms: C_14  and  C_3 
REMARK    2  A    between atoms: C_3  and  C_18 
REMARK    3  A    between atoms: C_5  and  N_22 
REMARK    4  A    between atoms: C_8  and  C_17 
REMARK    5  A    between atoms: N_22  and  S_23 
REMARK    6  A    between atoms: C_26  and  S_23 
REMARK    7  A    between atoms: C_26  and  C_27 
ROOT
HETATM    1  C   UNK N   1      19.999  19.492   3.378  0.00  0.00     0.106 A 
HETATM    2  C   UNK N   1      21.016  15.648   1.260  0.00  0.00    -0.009 A 
HETATM    3  C   UNK N   1      19.823  16.023   0.581  0.00  0.00     0.102 A 
HETATM    4  N   UNK N   1      19.183  17.196   0.900  0.00  0.00    -0.351 N 
ATOM      5  HN  UNK N   1      18.332  17.475   0.410  1.00  0.00     0.166 HD
HETATM    6  C   UNK N   1      21.525  16.496   2.246  0.00  0.00     0.030 A 
HETATM    7  N   UNK N   1      19.172  19.111   2.369  0.00  0.00    -0.351 N 
HETATM    8  C   UNK N   1      21.068  18.595   3.491  0.00  0.00     0.044 A 
HETATM    9  C   UNK N   1      20.839  17.650   2.535  0.00  0.00     0.024 A 
HETATM   10  C   UNK N   1      19.703  17.978   1.880  0.00  0.00     0.116 A 
HETATM   11  H   UNK N   1      18.355  19.567   2.062  0.00  0.00     0.166 HD
ENDROOT
BRANCH   8  12
HETATM   12  C   UNK N   1      22.191  18.503   4.481  0.00  0.00     0.200 C 
HETATM   13  O   UNK N   1      21.893  18.274   5.645  0.00  0.00    -0.286 OA
BRANCH  12  14
HETATM   14  C   UNK N   1      23.626  18.798   4.180  0.00  0.00     0.094 A 
HETATM   15  C   UNK N   1      24.687  17.984   4.637  0.00  0.00     0.160 A 
HETATM   16  C   UNK N   1      26.021  18.301   4.298  0.00  0.00     0.082 A 
HETATM   17  F   UNK N   1      24.427  16.941   5.439  0.00  0.00    -0.203 F 
HETATM   18  C   UNK N   1      26.276  19.423   3.510  0.00  0.00     0.036 A 
HETATM   19  C   UNK N   1      25.246  20.236   3.066  0.00  0.00     0.046 A 
HETATM   20  C   UNK N   1      23.931  19.941   3.400  0.00  0.00     0.133 A 
HETATM   21  F   UNK N   1      22.953  20.754   2.926  0.00  0.00    -0.205 F 
BRANCH  16  22
HETATM   22  N   UNK N   1      27.159  17.548   4.719  0.00  0.00    -0.281 N 
HETATM   23  H   UNK N   1      27.440  16.880   4.053  0.00  0.00     0.178 HD
BRANCH  22  24
HETATM   24  S   UNK N   1      28.183  17.540   6.171  0.00  0.00     0.231 S 
HETATM   25  O   UNK N   1      27.142  16.474   6.560  0.00  0.00    -0.206 OA
HETATM   26  O   UNK N   1      27.537  18.878   6.545  0.00  0.00    -0.206 OA
BRANCH  24  27
HETATM   27  C   UNK N   1      29.020  17.698   4.573  0.00  0.00     0.163 C 
BRANCH  27  28
HETATM   28  C   UNK N   1      30.423  17.153   4.591  0.00  0.00     0.012 C 
HETATM   29  C   UNK N   1      30.863  17.094   6.038  0.00  0.00     0.006 C 
ENDBRANCH  27  28
ENDBRANCH  24  27
ENDBRANCH  22  24
ENDBRANCH  16  22
ENDBRANCH  12  14
ENDBRANCH   8  12
BRANCH   2  30
HETATM   30  C   UNK N   1      21.703  14.361   1.035  0.00  0.00    -0.025 A 
HETATM   31  C   UNK N   1      20.937  13.185   0.931  0.00  0.00     0.014 A 
HETATM   32  C   UNK N   1      21.541  11.964   0.657  0.00  0.00     0.024 A 
HETATM   33  C   UNK N   1      22.921  11.900   0.479  0.00  0.00     0.034 A 
HETATM   34  C   UNK N   1      23.698  13.060   0.583  0.00  0.00     0.024 A 
HETATM   35 Cl   UNK N   1      23.670  10.363   0.113  0.00  0.00    -0.084 Cl
HETATM   36  C   UNK N   1      23.091  14.291   0.860  0.00  0.00     0.014 A 
ENDBRANCH   2  30
TORSDOF 7
ENDMDL
