MODEL 1
REMARK VINA RESULT:      -7.8      0.000      0.000
REMARK  4 active torsions:
REMARK  status: ('A' for Active; 'I' for Inactive)
REMARK    1  A    between atoms: C_18  and  C_10 
REMARK    2  A    between atoms: O_24  and  C_10 
REMARK    3  A    between atoms: C_17  and  O_26 
REMARK    4  A    between atoms: C_19  and  C_18 
ROOT
HETATM    1  C   UNK N   1      35.629  14.234   7.393  0.00  0.00     0.011 C 
HETATM    2  C   UNK N   1      31.038  14.541   5.749  0.00  0.00     0.025 C 
HETATM    3  C   UNK N   1      33.244  18.436   8.298  0.00  0.00     0.016 C 
HETATM    4  C   UNK N   1      27.860  15.434   4.497  0.00  0.00     0.052 A 
HETATM    5  C   UNK N   1      28.806  15.485   5.443  0.00  0.00    -0.008 A 
HETATM    6  C   UNK N   1      33.961  15.603   6.050  0.00  0.00     0.011 C 
HETATM    7  C   UNK N   1      29.625  15.780   2.716  0.00  0.00     0.061 A 
HETATM    8  C   UNK N   1      32.444  17.425   3.870  0.00  0.00     0.047 C 
HETATM    9  C   UNK N   1      31.612  16.522   8.100  0.00  0.00     0.042 C 
HETATM   10  C   UNK N   1      34.953  15.584   7.220  0.00  0.00    -0.006 C 
HETATM   11  C   UNK N   1      28.216  15.604   3.087  0.00  0.00     0.172 A 
HETATM   12  C   UNK N   1      32.174  17.529   5.387  0.00  0.00     0.001 C 
HETATM   13  C   UNK N   1      33.334  16.973   6.263  0.00  0.00    -0.001 C 
HETATM   14  C   UNK N   1      30.588  15.824   3.654  0.00  0.00    -0.030 A 
HETATM   15  C   UNK N   1      32.004  16.103   3.230  0.00  0.00     0.200 C 
HETATM   16  C   UNK N   1      30.548  17.278   7.311  0.00  0.00     0.124 C 
HETATM   17  C   UNK N   1      34.043  15.966   8.391  0.00  0.00     0.070 C 
HETATM   18  C   UNK N   1      30.726  17.092   5.777  0.00  0.00     0.035 C 
HETATM   19  C   UNK N   1      30.284  15.723   5.157  0.00  0.00     0.006 A 
HETATM   20  C   UNK N   1      33.046  17.005   7.785  0.00  0.00    -0.027 C 
HETATM   21  F   UNK N   1      32.832  15.060   3.599  0.00  0.00    -0.245 F 
HETATM   22  O   UNK N   1      27.349  15.619   2.230  0.00  0.00    -0.289 OA
ENDROOT
BRANCH  17  23
HETATM   23  C   UNK N   1      34.701  16.392   9.690  0.00  0.00     0.155 C 
HETATM   24  O   UNK N   1      35.409  17.389   9.698  0.00  0.00    -0.295 OA
BRANCH  23  25
HETATM   25  C   UNK N   1      34.526  15.593  10.951  0.00  0.00     0.242 C 
BRANCH  25  26
HETATM   26  O   UNK N   1      33.240  15.056  11.030  0.00  0.00    -0.394 OA
HETATM   27  H   UNK N   1      32.970  14.323  10.454  0.00  0.00     0.209 HD
ENDBRANCH  25  26
ENDBRANCH  23  25
ENDBRANCH  17  23
BRANCH  16  28
HETATM   28  O   UNK N   1      29.281  16.889   7.744  0.00  0.00    -0.395 OA
HETATM   29  H   UNK N   1      28.650  16.305   7.295  0.00  0.00     0.210 HD
ENDBRANCH  16  28
TORSDOF 4
ENDMDL
MODEL 2
REMARK VINA RESULT:      -7.6     15.266     17.813
REMARK  4 active torsions:
REMARK  status: ('A' for Active; 'I' for Inactive)
REMARK    1  A    between atoms: C_18  and  C_10 
REMARK    2  A    between atoms: O_24  and  C_10 
REMARK    3  A    between atoms: C_17  and  O_26 
REMARK    4  A    between atoms: C_19  and  C_18 
ROOT
HETATM    1  C   UNK N   1      25.046  25.381 -10.180  0.00  0.00     0.011 C 
HETATM    2  C   UNK N   1      25.820  27.504  -5.848  0.00  0.00     0.025 C 
HETATM    3  C   UNK N   1      27.472  22.725  -6.829  0.00  0.00     0.016 C 
HETATM    4  C   UNK N   1      26.954  28.658  -2.711  0.00  0.00     0.052 A 
HETATM    5  C   UNK N   1      26.502  27.684  -3.509  0.00  0.00    -0.008 A 
HETATM    6  C   UNK N   1      26.765  25.981  -8.407  0.00  0.00     0.011 C 
HETATM    7  C   UNK N   1      28.524  29.429  -4.539  0.00  0.00     0.061 A 
HETATM    8  C   UNK N   1      29.375  26.925  -6.772  0.00  0.00     0.047 C 
HETATM    9  C   UNK N   1      25.942  24.383  -5.700  0.00  0.00     0.042 C 
HETATM   10  C   UNK N   1      26.125  24.865  -9.242  0.00  0.00    -0.006 C 
HETATM   11  C   UNK N   1      28.005  29.566  -3.174  0.00  0.00     0.172 A 
HETATM   12  C   UNK N   1      28.477  25.753  -6.319  0.00  0.00     0.001 C 
HETATM   13  C   UNK N   1      27.624  25.145  -7.470  0.00  0.00    -0.001 C 
HETATM   14  C   UNK N   1      28.075  28.462  -5.358  0.00  0.00    -0.030 A 
HETATM   15  C   UNK N   1      28.707  28.304  -6.714  0.00  0.00     0.200 C 
HETATM   16  C   UNK N   1      26.906  24.783  -4.588  0.00  0.00     0.124 C 
HETATM   17  C   UNK N   1      25.590  23.939  -8.146  0.00  0.00     0.070 C 
HETATM   18  C   UNK N   1      27.741  26.038  -4.972  0.00  0.00     0.035 C 
HETATM   19  C   UNK N   1      27.024  27.430  -4.920  0.00  0.00     0.006 A 
HETATM   20  C   UNK N   1      26.666  24.015  -7.015  0.00  0.00    -0.027 C 
HETATM   21  F   UNK N   1      27.759  28.452  -7.708  0.00  0.00    -0.245 F 
HETATM   22  O   UNK N   1      28.460  30.414  -2.426  0.00  0.00    -0.289 OA
ENDROOT
BRANCH  17  23
HETATM   23  C   UNK N   1      25.177  22.535  -8.544  0.00  0.00     0.155 C 
HETATM   24  O   UNK N   1      24.208  22.024  -7.999  0.00  0.00    -0.295 OA
BRANCH  23  25
HETATM   25  C   UNK N   1      25.954  21.753  -9.565  0.00  0.00     0.242 C 
BRANCH  25  26
HETATM   26  O   UNK N   1      25.122  20.876 -10.265  0.00  0.00    -0.394 OA
HETATM   27  H   UNK N   1      25.359  19.941 -10.367  0.00  0.00     0.209 HD
ENDBRANCH  25  26
ENDBRANCH  23  25
ENDBRANCH  17  23
BRANCH  16  28
HETATM   28  O   UNK N   1      26.199  24.966  -3.400  0.00  0.00    -0.395 OA
HETATM   29  H   UNK N   1      25.898  25.800  -3.008  0.00  0.00     0.210 HD
ENDBRANCH  16  28
TORSDOF 4
ENDMDL
MODEL 3
REMARK VINA RESULT:      -7.6      1.108      1.148
REMARK  4 active torsions:
REMARK  status: ('A' for Active; 'I' for Inactive)
REMARK    1  A    between atoms: C_18  and  C_10 
REMARK    2  A    between atoms: O_24  and  C_10 
REMARK    3  A    between atoms: C_17  and  O_26 
REMARK    4  A    between atoms: C_19  and  C_18 
ROOT
HETATM    1  C   UNK N   1      35.688  13.220   7.347  0.00  0.00     0.011 C 
HETATM    2  C   UNK N   1      31.193  14.770   6.220  0.00  0.00     0.025 C 
HETATM    3  C   UNK N   1      34.498  17.764   8.798  0.00  0.00     0.016 C 
HETATM    4  C   UNK N   1      28.241  16.511   5.375  0.00  0.00     0.052 A 
HETATM    5  C   UNK N   1      29.245  16.244   6.218  0.00  0.00    -0.008 A 
HETATM    6  C   UNK N   1      34.302  15.070   6.289  0.00  0.00     0.011 C 
HETATM    7  C   UNK N   1      29.880  16.595   3.449  0.00  0.00     0.061 A 
HETATM    8  C   UNK N   1      33.104  17.402   4.417  0.00  0.00     0.047 C 
HETATM    9  C   UNK N   1      32.434  16.323   8.634  0.00  0.00     0.042 C 
HETATM   10  C   UNK N   1      35.354  14.703   7.344  0.00  0.00    -0.006 C 
HETATM   11  C   UNK N   1      28.508  16.726   3.951  0.00  0.00     0.172 A 
HETATM   12  C   UNK N   1      32.997  17.421   5.957  0.00  0.00     0.001 C 
HETATM   13  C   UNK N   1      34.054  16.523   6.664  0.00  0.00    -0.001 C 
HETATM   14  C   UNK N   1      30.900  16.318   4.281  0.00  0.00    -0.030 A 
HETATM   15  C   UNK N   1      32.300  16.290   3.732  0.00  0.00     0.200 C 
HETATM   16  C   UNK N   1      31.527  17.383   8.018  0.00  0.00     0.124 C 
HETATM   17  C   UNK N   1      34.668  15.177   8.628  0.00  0.00     0.070 C 
HETATM   18  C   UNK N   1      31.524  17.307   6.464  0.00  0.00     0.035 C 
HETATM   19  C   UNK N   1      30.707  16.149   5.796  0.00  0.00     0.006 A 
HETATM   20  C   UNK N   1      33.911  16.478   8.207  0.00  0.00    -0.027 C 
HETATM   21  F   UNK N   1      32.872  15.049   3.936  0.00  0.00    -0.245 F 
HETATM   22  O   UNK N   1      27.603  17.029   3.193  0.00  0.00    -0.289 OA
ENDROOT
BRANCH  17  23
HETATM   23  C   UNK N   1      35.518  15.307   9.879  0.00  0.00     0.155 C 
HETATM   24  O   UNK N   1      36.733  15.386   9.765  0.00  0.00    -0.295 OA
BRANCH  23  25
HETATM   25  C   UNK N   1      34.897  15.306  11.247  0.00  0.00     0.242 C 
BRANCH  25  26
HETATM   26  O   UNK N   1      33.746  14.514  11.275  0.00  0.00    -0.394 OA
HETATM   27  H   UNK N   1      32.936  14.797  10.823  0.00  0.00     0.209 HD
ENDBRANCH  25  26
ENDBRANCH  23  25
ENDBRANCH  17  23
BRANCH  16  28
HETATM   28  O   UNK N   1      30.244  17.268   8.552  0.00  0.00    -0.395 OA
HETATM   29  H   UNK N   1      29.593  16.567   8.394  0.00  0.00     0.210 HD
ENDBRANCH  16  28
TORSDOF 4
ENDMDL
MODEL 4
REMARK VINA RESULT:      -7.5      7.682     11.001
REMARK  4 active torsions:
REMARK  status: ('A' for Active; 'I' for Inactive)
REMARK    1  A    between atoms: C_18  and  C_10 
REMARK    2  A    between atoms: O_24  and  C_10 
REMARK    3  A    between atoms: C_17  and  O_26 
REMARK    4  A    between atoms: C_19  and  C_18 
ROOT
HETATM    1  C   UNK N   1      38.200   8.789  11.514  0.00  0.00     0.011 C 
HETATM    2  C   UNK N   1      37.491  12.223  14.916  0.00  0.00     0.025 C 
HETATM    3  C   UNK N   1      35.147  12.457  10.335  0.00  0.00     0.016 C 
HETATM    4  C   UNK N   1      36.351  14.755  17.096  0.00  0.00     0.052 A 
HETATM    5  C   UNK N   1      36.689  14.322  15.876  0.00  0.00    -0.008 A 
HETATM    6  C   UNK N   1      36.486  10.111  12.845  0.00  0.00     0.011 C 
HETATM    7  C   UNK N   1      35.057  12.617  17.496  0.00  0.00     0.061 A 
HETATM    8  C   UNK N   1      33.960  11.105  14.581  0.00  0.00     0.047 C 
HETATM    9  C   UNK N   1      36.847  13.236  12.028  0.00  0.00     0.042 C 
HETATM   10  C   UNK N   1      36.989   9.706  11.454  0.00  0.00    -0.006 C 
HETATM   11  C   UNK N   1      35.496  13.938  17.960  0.00  0.00     0.172 A 
HETATM   12  C   UNK N   1      34.621  11.970  13.486  0.00  0.00     0.001 C 
HETATM   13  C   UNK N   1      35.439  11.143  12.451  0.00  0.00    -0.001 C 
HETATM   14  C   UNK N   1      35.396  12.163  16.276  0.00  0.00    -0.030 A 
HETATM   15  C   UNK N   1      34.841  10.845  15.810  0.00  0.00     0.200 C 
HETATM   16  C   UNK N   1      35.889  14.072  12.870  0.00  0.00     0.124 C 
HETATM   17  C   UNK N   1      37.288  11.073  10.833  0.00  0.00     0.070 C 
HETATM   18  C   UNK N   1      35.300  13.256  14.056  0.00  0.00     0.035 C 
HETATM   19  C   UNK N   1      36.231  12.992  15.288  0.00  0.00     0.006 A 
HETATM   20  C   UNK N   1      36.165  12.006  11.388  0.00  0.00    -0.027 C 
HETATM   21  F   UNK N   1      35.866   9.965  15.523  0.00  0.00    -0.245 F 
HETATM   22  O   UNK N   1      35.137  14.358  19.046  0.00  0.00    -0.289 OA
ENDROOT
BRANCH  17  23
HETATM   23  C   UNK N   1      37.492  11.139   9.331  0.00  0.00     0.155 C 
HETATM   24  O   UNK N   1      36.967  10.291   8.623  0.00  0.00    -0.295 OA
BRANCH  23  25
HETATM   25  C   UNK N   1      38.349  12.203   8.706  0.00  0.00     0.242 C 
BRANCH  25  26
HETATM   26  O   UNK N   1      39.372  12.595   9.572  0.00  0.00    -0.394 OA
HETATM   27  H   UNK N   1      40.293  12.341   9.402  0.00  0.00     0.209 HD
ENDBRANCH  25  26
ENDBRANCH  23  25
ENDBRANCH  17  23
BRANCH  16  28
HETATM   28  O   UNK N   1      36.534  15.232  13.299  0.00  0.00    -0.395 OA
HETATM   29  H   UNK N   1      37.487  15.411  13.319  0.00  0.00     0.210 HD
ENDBRANCH  16  28
TORSDOF 4
ENDMDL
MODEL 5
REMARK VINA RESULT:      -7.4     11.220     14.428
REMARK  4 active torsions:
REMARK  status: ('A' for Active; 'I' for Inactive)
REMARK    1  A    between atoms: C_18  and  C_10 
REMARK    2  A    between atoms: O_24  and  C_10 
REMARK    3  A    between atoms: C_17  and  O_26 
REMARK    4  A    between atoms: C_19  and  C_18 
ROOT
HETATM    1  C   UNK N   1      29.362  26.837  -7.181  0.00  0.00     0.011 C 
HETATM    2  C   UNK N   1      32.114  23.623  -4.737  0.00  0.00     0.025 C 
HETATM    3  C   UNK N   1      27.054  24.031  -3.869  0.00  0.00     0.016 C 
HETATM    4  C   UNK N   1      33.530  20.922  -2.961  0.00  0.00     0.052 A 
HETATM    5  C   UNK N   1      32.669  21.941  -3.055  0.00  0.00    -0.008 A 
HETATM    6  C   UNK N   1      29.638  24.412  -6.471  0.00  0.00     0.011 C 
HETATM    7  C   UNK N   1      32.929  20.197  -5.310  0.00  0.00     0.061 A 
HETATM    8  C   UNK N   1      29.765  21.198  -6.294  0.00  0.00     0.047 C 
HETATM    9  C   UNK N   1      29.473  24.344  -3.226  0.00  0.00     0.042 C 
HETATM   10  C   UNK N   1      28.729  25.648  -6.476  0.00  0.00    -0.006 C 
HETATM   11  C   UNK N   1      33.687  19.982  -4.072  0.00  0.00     0.172 A 
HETATM   12  C   UNK N   1      29.314  22.088  -5.116  0.00  0.00     0.001 C 
HETATM   13  C   UNK N   1      28.833  23.502  -5.555  0.00  0.00    -0.001 C 
HETATM   14  C   UNK N   1      32.067  21.222  -5.425  0.00  0.00    -0.030 A 
HETATM   15  C   UNK N   1      31.243  21.344  -6.677  0.00  0.00     0.200 C 
HETATM   16  C   UNK N   1      29.717  22.913  -2.757  0.00  0.00     0.124 C 
HETATM   17  C   UNK N   1      28.518  25.870  -4.975  0.00  0.00     0.070 C 
HETATM   18  C   UNK N   1      30.288  22.022  -3.897  0.00  0.00     0.035 C 
HETATM   19  C   UNK N   1      31.797  22.208  -4.277  0.00  0.00     0.006 A 
HETATM   20  C   UNK N   1      28.444  24.429  -4.376  0.00  0.00    -0.027 C 
HETATM   21  F   UNK N   1      31.489  22.551  -7.301  0.00  0.00    -0.245 F 
HETATM   22  O   UNK N   1      34.426  19.018  -3.964  0.00  0.00    -0.289 OA
ENDROOT
BRANCH  17  23
HETATM   23  C   UNK N   1      27.398  26.800  -4.548  0.00  0.00     0.155 C 
HETATM   24  O   UNK N   1      26.407  26.901  -5.258  0.00  0.00    -0.295 OA
BRANCH  23  25
HETATM   25  C   UNK N   1      27.500  27.619  -3.293  0.00  0.00     0.242 C 
BRANCH  25  26
HETATM   26  O   UNK N   1      26.245  27.798  -2.706  0.00  0.00    -0.394 OA
HETATM   27  H   UNK N   1      25.438  27.789  -3.245  0.00  0.00     0.209 HD
ENDBRANCH  25  26
ENDBRANCH  23  25
ENDBRANCH  17  23
BRANCH  16  28
HETATM   28  O   UNK N   1      30.545  22.924  -1.634  0.00  0.00    -0.395 OA
HETATM   29  H   UNK N   1      30.756  23.674  -1.057  0.00  0.00     0.210 HD
ENDBRANCH  16  28
TORSDOF 4
ENDMDL
MODEL 6
REMARK VINA RESULT:      -7.4      8.535     10.665
REMARK  4 active torsions:
REMARK  status: ('A' for Active; 'I' for Inactive)
REMARK    1  A    between atoms: C_18  and  C_10 
REMARK    2  A    between atoms: O_24  and  C_10 
REMARK    3  A    between atoms: C_17  and  O_26 
REMARK    4  A    between atoms: C_19  and  C_18 
ROOT
HETATM    1  C   UNK N   1      20.686  13.623  10.008  0.00  0.00     0.011 C 
HETATM    2  C   UNK N   1      21.358  17.067   6.608  0.00  0.00     0.025 C 
HETATM    3  C   UNK N   1      23.910  12.595   6.443  0.00  0.00     0.016 C 
HETATM    4  C   UNK N   1      21.964  19.022   3.732  0.00  0.00     0.052 A 
HETATM    5  C   UNK N   1      22.374  18.171   4.680  0.00  0.00    -0.008 A 
HETATM    6  C   UNK N   1      20.742  14.143   7.521  0.00  0.00     0.011 C 
HETATM    7  C   UNK N   1      19.848  17.668   3.431  0.00  0.00     0.061 A 
HETATM    8  C   UNK N   1      20.192  14.349   4.354  0.00  0.00     0.047 C 
HETATM    9  C   UNK N   1      23.771  15.087   6.813  0.00  0.00     0.042 C 
HETATM   10  C   UNK N   1      21.295  13.277   8.660  0.00  0.00    -0.006 C 
HETATM   11  C   UNK N   1      20.693  18.802   3.040  0.00  0.00     0.172 A 
HETATM   12  C   UNK N   1      21.612  14.316   4.960  0.00  0.00     0.001 C 
HETATM   13  C   UNK N   1      21.661  13.703   6.391  0.00  0.00    -0.001 C 
HETATM   14  C   UNK N   1      20.240  16.809   4.389  0.00  0.00    -0.030 A 
HETATM   15  C   UNK N   1      19.383  15.609   4.686  0.00  0.00     0.200 C 
HETATM   16  C   UNK N   1      23.823  15.487   5.342  0.00  0.00     0.124 C 
HETATM   17  C   UNK N   1      22.793  13.584   8.570  0.00  0.00     0.070 C 
HETATM   18  C   UNK N   1      22.399  15.646   4.736  0.00  0.00     0.035 C 
HETATM   19  C   UNK N   1      21.592  16.935   5.110  0.00  0.00     0.006 A 
HETATM   20  C   UNK N   1      23.068  13.729   7.039  0.00  0.00    -0.027 C 
HETATM   21  F   UNK N   1      18.980  15.620   6.007  0.00  0.00    -0.245 F 
HETATM   22  O   UNK N   1      20.348  19.541   2.135  0.00  0.00    -0.289 OA
ENDROOT
BRANCH  17  23
HETATM   23  C   UNK N   1      23.750  12.666   9.309  0.00  0.00     0.155 C 
HETATM   24  O   UNK N   1      23.428  11.502   9.499  0.00  0.00    -0.295 OA
BRANCH  23  25
HETATM   25  C   UNK N   1      25.062  13.171   9.838  0.00  0.00     0.242 C 
BRANCH  25  26
HETATM   26  O   UNK N   1      25.262  12.763  11.158  0.00  0.00    -0.394 OA
HETATM   27  H   UNK N   1      24.799  13.200  11.890  0.00  0.00     0.209 HD
ENDBRANCH  25  26
ENDBRANCH  23  25
ENDBRANCH  17  23
BRANCH  16  28
HETATM   28  O   UNK N   1      24.587  16.645   5.200  0.00  0.00    -0.395 OA
HETATM   29  H   UNK N   1      25.384  16.771   4.661  0.00  0.00     0.210 HD
ENDBRANCH  16  28
TORSDOF 4
ENDMDL
MODEL 7
REMARK VINA RESULT:      -7.3     14.991     16.910
REMARK  4 active torsions:
REMARK  status: ('A' for Active; 'I' for Inactive)
REMARK    1  A    between atoms: C_18  and  C_10 
REMARK    2  A    between atoms: O_24  and  C_10 
REMARK    3  A    between atoms: C_17  and  O_26 
REMARK    4  A    between atoms: C_19  and  C_18 
ROOT
HETATM    1  C   UNK N   1      29.044  30.405  -6.273  0.00  0.00     0.011 C 
HETATM    2  C   UNK N   1      29.013  25.529  -6.572  0.00  0.00     0.025 C 
HETATM    3  C   UNK N   1      25.629  28.059  -3.627  0.00  0.00     0.016 C 
HETATM    4  C   UNK N   1      28.314  22.070  -6.688  0.00  0.00     0.052 A 
HETATM    5  C   UNK N   1      28.369  23.235  -6.031  0.00  0.00    -0.008 A 
HETATM    6  C   UNK N   1      27.640  28.332  -6.705  0.00  0.00     0.011 C 
HETATM    7  C   UNK N   1      27.255  23.238  -8.668  0.00  0.00     0.061 A 
HETATM    8  C   UNK N   1      25.562  26.135  -7.817  0.00  0.00     0.047 C 
HETATM    9  C   UNK N   1      27.649  26.585  -3.964  0.00  0.00     0.042 C 
HETATM   10  C   UNK N   1      27.813  29.609  -5.873  0.00  0.00    -0.006 C 
HETATM   11  C   UNK N   1      27.731  22.006  -8.029  0.00  0.00     0.172 A 
HETATM   12  C   UNK N   1      25.899  26.291  -6.318  0.00  0.00     0.001 C 
HETATM   13  C   UNK N   1      26.482  27.688  -5.956  0.00  0.00    -0.001 C 
HETATM   14  C   UNK N   1      27.312  24.418  -8.026  0.00  0.00    -0.030 A 
HETATM   15  C   UNK N   1      26.724  25.635  -8.685  0.00  0.00     0.200 C 
HETATM   16  C   UNK N   1      26.882  25.290  -4.211  0.00  0.00     0.124 C 
HETATM   17  C   UNK N   1      27.890  29.036  -4.455  0.00  0.00     0.070 C 
HETATM   18  C   UNK N   1      26.634  25.046  -5.728  0.00  0.00     0.035 C 
HETATM   19  C   UNK N   1      27.845  24.553  -6.591  0.00  0.00     0.006 A 
HETATM   20  C   UNK N   1      26.890  27.834  -4.468  0.00  0.00    -0.027 C 
HETATM   21  F   UNK N   1      27.689  26.608  -8.851  0.00  0.00    -0.245 F 
HETATM   22  O   UNK N   1      27.624  20.935  -8.604  0.00  0.00    -0.289 OA
ENDROOT
BRANCH  17  23
HETATM   23  C   UNK N   1      27.723  29.996  -3.293  0.00  0.00     0.155 C 
HETATM   24  O   UNK N   1      26.892  30.890  -3.376  0.00  0.00    -0.295 OA
BRANCH  23  25
HETATM   25  C   UNK N   1      28.580  29.888  -2.063  0.00  0.00     0.242 C 
BRANCH  25  26
HETATM   26  O   UNK N   1      27.812  29.556  -0.944  0.00  0.00    -0.394 OA
HETATM   27  H   UNK N   1      27.047  30.095  -0.688  0.00  0.00     0.209 HD
ENDBRANCH  25  26
ENDBRANCH  23  25
ENDBRANCH  17  23
BRANCH  16  28
HETATM   28  O   UNK N   1      27.556  24.226  -3.612  0.00  0.00    -0.395 OA
HETATM   29  H   UNK N   1      27.631  24.025  -2.666  0.00  0.00     0.210 HD
ENDBRANCH  16  28
TORSDOF 4
ENDMDL
MODEL 8
REMARK VINA RESULT:      -7.3      9.351     12.184
REMARK  4 active torsions:
REMARK  status: ('A' for Active; 'I' for Inactive)
REMARK    1  A    between atoms: C_18  and  C_10 
REMARK    2  A    between atoms: O_24  and  C_10 
REMARK    3  A    between atoms: C_17  and  O_26 
REMARK    4  A    between atoms: C_19  and  C_18 
ROOT
HETATM    1  C   UNK N   1      35.489  14.124  18.060  0.00  0.00     0.011 C 
HETATM    2  C   UNK N   1      37.428  11.493  14.428  0.00  0.00     0.025 C 
HETATM    3  C   UNK N   1      34.540   9.300  18.086  0.00  0.00     0.016 C 
HETATM    4  C   UNK N   1      38.270   9.200  11.880  0.00  0.00     0.052 A 
HETATM    5  C   UNK N   1      38.049   9.496  13.166  0.00  0.00    -0.008 A 
HETATM    6  C   UNK N   1      35.044  12.436  16.213  0.00  0.00     0.011 C 
HETATM    7  C   UNK N   1      36.205  10.507  11.225  0.00  0.00     0.061 A 
HETATM    8  C   UNK N   1      33.853  10.727  13.755  0.00  0.00     0.047 C 
HETATM    9  C   UNK N   1      36.739   9.759  16.938  0.00  0.00     0.042 C 
HETATM   10  C   UNK N   1      34.934  12.752  17.709  0.00  0.00    -0.006 C 
HETATM   11  C   UNK N   1      37.347   9.668  10.845  0.00  0.00     0.172 A 
HETATM   12  C   UNK N   1      34.586  10.082  14.951  0.00  0.00     0.001 C 
HETATM   13  C   UNK N   1      34.606  10.978  16.223  0.00  0.00    -0.001 C 
HETATM   14  C   UNK N   1      35.974  10.821  12.512  0.00  0.00    -0.030 A 
HETATM   15  C   UNK N   1      34.737  11.604  12.859  0.00  0.00     0.200 C 
HETATM   16  C   UNK N   1      36.562   8.751  15.807  0.00  0.00     0.124 C 
HETATM   17  C   UNK N   1      35.731  11.597  18.321  0.00  0.00     0.070 C 
HETATM   18  C   UNK N   1      35.934   9.406  14.543  0.00  0.00     0.035 C 
HETATM   19  C   UNK N   1      36.858  10.310  13.660  0.00  0.00     0.006 A 
HETATM   20  C   UNK N   1      35.400  10.372  17.408  0.00  0.00    -0.027 C 
HETATM   21  F   UNK N   1      35.075  12.789  13.483  0.00  0.00    -0.245 F 
HETATM   22  O   UNK N   1      37.513   9.348   9.680  0.00  0.00    -0.289 OA
ENDROOT
BRANCH  17  23
HETATM   23  C   UNK N   1      35.586  11.344  19.809  0.00  0.00     0.155 C 
HETATM   24  O   UNK N   1      34.572  11.725  20.380  0.00  0.00    -0.295 OA
BRANCH  23  25
HETATM   25  C   UNK N   1      36.673  10.670  20.596  0.00  0.00     0.242 C 
BRANCH  25  26
HETATM   26  O   UNK N   1      36.274  10.446  21.915  0.00  0.00    -0.394 OA
HETATM   27  H   UNK N   1      35.464   9.950  22.113  0.00  0.00     0.209 HD
ENDBRANCH  25  26
ENDBRANCH  23  25
ENDBRANCH  17  23
BRANCH  16  28
HETATM   28  O   UNK N   1      37.784   8.140  15.530  0.00  0.00    -0.395 OA
HETATM   29  H   UNK N   1      38.023   7.610  14.753  0.00  0.00     0.210 HD
ENDBRANCH  16  28
TORSDOF 4
ENDMDL
MODEL 9
REMARK VINA RESULT:      -6.9     14.702     16.654
REMARK  4 active torsions:
REMARK  status: ('A' for Active; 'I' for Inactive)
REMARK    1  A    between atoms: C_18  and  C_10 
REMARK    2  A    between atoms: O_24  and  C_10 
REMARK    3  A    between atoms: C_17  and  O_26 
REMARK    4  A    between atoms: C_19  and  C_18 
ROOT
HETATM    1  C   UNK N   1      25.917  20.964  -9.715  0.00  0.00     0.011 C 
HETATM    2  C   UNK N   1      25.855  23.868  -5.786  0.00  0.00     0.025 C 
HETATM    3  C   UNK N   1      30.265  22.633  -8.143  0.00  0.00     0.016 C 
HETATM    4  C   UNK N   1      26.361  26.259  -3.239  0.00  0.00     0.052 A 
HETATM    5  C   UNK N   1      26.753  25.185  -3.935  0.00  0.00    -0.008 A 
HETATM    6  C   UNK N   1      26.666  23.181  -8.724  0.00  0.00     0.011 C 
HETATM    7  C   UNK N   1      25.694  27.411  -5.391  0.00  0.00     0.061 A 
HETATM    8  C   UNK N   1      27.420  26.262  -8.162  0.00  0.00     0.047 C 
HETATM    9  C   UNK N   1      28.630  22.495  -6.227  0.00  0.00     0.042 C 
HETATM   10  C   UNK N   1      27.094  21.873  -9.400  0.00  0.00    -0.006 C 
HETATM   11  C   UNK N   1      25.835  27.437  -3.931  0.00  0.00     0.172 A 
HETATM   12  C   UNK N   1      28.229  25.080  -7.586  0.00  0.00     0.001 C 
HETATM   13  C   UNK N   1      28.033  23.751  -8.374  0.00  0.00    -0.001 C 
HETATM   14  C   UNK N   1      26.073  26.336  -6.105  0.00  0.00    -0.030 A 
HETATM   15  C   UNK N   1      25.997  26.396  -7.606  0.00  0.00     0.200 C 
HETATM   16  C   UNK N   1      29.035  23.803  -5.555  0.00  0.00     0.124 C 
HETATM   17  C   UNK N   1      28.050  21.292  -8.353  0.00  0.00     0.070 C 
HETATM   18  C   UNK N   1      28.153  24.993  -6.029  0.00  0.00     0.035 C 
HETATM   19  C   UNK N   1      26.698  25.091  -5.456  0.00  0.00     0.006 A 
HETATM   20  C   UNK N   1      28.783  22.540  -7.764  0.00  0.00    -0.027 C 
HETATM   21  F   UNK N   1      25.168  25.401  -8.087  0.00  0.00    -0.245 F 
HETATM   22  O   UNK N   1      25.536  28.438  -3.302  0.00  0.00    -0.289 OA
ENDROOT
BRANCH  17  23
HETATM   23  C   UNK N   1      28.960  20.155  -8.778  0.00  0.00     0.155 C 
HETATM   24  O   UNK N   1      29.366  20.119  -9.931  0.00  0.00    -0.295 OA
BRANCH  23  25
HETATM   25  C   UNK N   1      29.341  19.063  -7.820  0.00  0.00     0.242 C 
BRANCH  25  26
HETATM   26  O   UNK N   1      30.408  19.455  -7.008  0.00  0.00    -0.394 OA
HETATM   27  H   UNK N   1      30.257  19.756  -6.098  0.00  0.00     0.209 HD
ENDBRANCH  25  26
ENDBRANCH  23  25
ENDBRANCH  17  23
BRANCH  16  28
HETATM   28  O   UNK N   1      29.004  23.645  -4.169  0.00  0.00    -0.395 OA
HETATM   29  H   UNK N   1      29.715  23.821  -3.533  0.00  0.00     0.210 HD
ENDBRANCH  16  28
TORSDOF 4
ENDMDL
