MODEL 1
REMARK VINA RESULT:      -8.8      0.000      0.000
REMARK  5 active torsions:
REMARK  status: ('A' for Active; 'I' for Inactive)
REMARK    1  A    between atoms: C_13  and  C_5 
REMARK    2  A    between atoms: N_35  and  C_13 
REMARK    3  A    between atoms: C_20  and  C_15 
REMARK    4  A    between atoms: N_36  and  C_15 
REMARK    5  A    between atoms: C_17  and  N_26 
REMARK       I    between atoms: N_34  and  C_24 
ROOT
HETATM    1  C   UNK N   1      28.917  18.386   9.441  0.00  0.00     0.112 C 
HETATM    2  C   UNK N   1      30.239  17.932   9.011  0.00  0.00    -0.109 C 
HETATM    3  C   UNK N   1      31.345  17.625   8.637  0.00  0.00    -0.086 C 
ENDROOT
BRANCH   3   4
HETATM    4  C   UNK N   1      32.744  17.410   8.262  0.00  0.00     0.241 C 
BRANCH   4   5
HETATM    5  N   UNK N   1      33.099  16.144   7.603  0.00  0.00    -0.163 N 
HETATM    6  C   UNK N   1      33.991  15.281   8.143  0.00  0.00     0.165 A 
HETATM    7  C   UNK N   1      34.351  14.377   7.210  0.00  0.00     0.160 A 
HETATM    8  C   UNK N   1      34.652  15.317   9.371  0.00  0.00     0.283 A 
HETATM    9  N   UNK N   1      33.739  14.620   6.056  0.00  0.00    -0.174 N 
HETATM   10  N   UNK N   1      35.345  13.490   7.387  0.00  0.00    -0.287 N 
HETATM   11  C   UNK N   1      33.005  15.731   6.295  0.00  0.00     0.685 A 
ATOM     12  HN  UNK N   1      33.806  14.089   5.187  1.00  0.00     0.186 HD
HETATM   13  N   UNK N   1      32.527  16.501   5.205  0.00  0.00    -0.215 N 
HETATM   14  C   UNK N   1      31.270  17.205   5.211  0.00  0.00     0.141 C 
HETATM   15  C   UNK N   1      33.280  16.448   3.969  0.00  0.00     0.165 C 
HETATM   16  C   UNK N   1      30.471  16.889   3.930  0.00  0.00     0.022 C 
HETATM   17  C   UNK N   1      30.999  15.634   3.222  0.00  0.00     0.028 C 
HETATM   18  C   UNK N   1      32.480  15.788   2.852  0.00  0.00     0.092 C 
HETATM   19  C   UNK N   1      35.728  12.589   6.304  0.00  0.00     0.163 C 
HETATM   20  C   UNK N   1      36.082  13.558   8.547  0.00  0.00     0.333 A 
HETATM   21  N   UNK N   1      35.735  14.465   9.563  0.00  0.00    -0.257 N 
HETATM   22  O   UNK N   1      37.077  12.868   8.636  0.00  0.00    -0.246 OA
HETATM   23  O   UNK N   1      34.355  16.151  10.213  0.00  0.00    -0.265 OA
BRANCH  18  24
HETATM   24  N   UNK N   1      33.046  14.482   2.566  0.00  0.00    -0.424 N 
HETATM   25  H   UNK N   1      32.505  13.662   2.292  0.00  0.00     0.150 HD
HETATM   26  H   UNK N   1      34.058  14.375   2.646  0.00  0.00     0.150 HD
ENDBRANCH  18  24
BRANCH  21  27
HETATM   27  C   UNK N   1      36.598  14.726  10.740  0.00  0.00     0.213 C 
BRANCH  27  28
HETATM   28  C   UNK N   1      36.317  13.987  12.014  0.00  0.00     0.100 A 
HETATM   29  N   UNK N   1      36.744  14.498  13.195  0.00  0.00    -0.347 N 
HETATM   30  C   UNK N   1      36.442  13.937  14.383  0.00  0.00     0.019 A 
ATOM     31  HN  UNK N   1      37.317  15.341  13.184  1.00  0.00     0.167 HD
HETATM   32  C   UNK N   1      36.993  14.546  15.628  0.00  0.00     0.069 C 
HETATM   33  C   UNK N   1      35.610  12.819  14.409  0.00  0.00     0.013 A 
HETATM   34  C   UNK N   1      35.236  12.212  15.613  0.00  0.00     0.015 A 
HETATM   35  C   UNK N   1      35.134  12.310  13.181  0.00  0.00     0.045 A 
HETATM   36  C   UNK N   1      34.382  11.110  15.599  0.00  0.00     0.001 A 
HETATM   37  C   UNK N   1      33.899  10.612  14.385  0.00  0.00     0.002 A 
HETATM   38  C   UNK N   1      34.276  11.208  13.176  0.00  0.00     0.030 A 
HETATM   39  N   UNK N   1      35.497  12.902  12.011  0.00  0.00    -0.344 N 
ATOM     40  HN  UNK N   1      35.154  12.529  11.125  1.00  0.00     0.167 HD
ENDBRANCH  27  28
ENDBRANCH  21  27
ENDBRANCH   4   5
ENDBRANCH   3   4
TORSDOF 5
ENDMDL
MODEL 2
REMARK VINA RESULT:      -8.7      2.701      8.796
REMARK  5 active torsions:
REMARK  status: ('A' for Active; 'I' for Inactive)
REMARK    1  A    between atoms: C_13  and  C_5 
REMARK    2  A    between atoms: N_35  and  C_13 
REMARK    3  A    between atoms: C_20  and  C_15 
REMARK    4  A    between atoms: N_36  and  C_15 
REMARK    5  A    between atoms: C_17  and  N_26 
REMARK       I    between atoms: N_34  and  C_24 
ROOT
HETATM    1  C   UNK N   1      29.864  17.951   8.882  0.00  0.00     0.112 C 
HETATM    2  C   UNK N   1      31.307  18.036   8.661  0.00  0.00    -0.109 C 
HETATM    3  C   UNK N   1      32.495  18.041   8.447  0.00  0.00    -0.086 C 
ENDROOT
BRANCH   3   4
HETATM    4  C   UNK N   1      33.895  17.972   8.025  0.00  0.00     0.241 C 
BRANCH   4   5
HETATM    5  N   UNK N   1      34.430  16.667   7.607  0.00  0.00    -0.163 N 
HETATM    6  C   UNK N   1      34.262  16.194   6.349  0.00  0.00     0.165 A 
HETATM    7  C   UNK N   1      34.574  14.883   6.325  0.00  0.00     0.160 A 
HETATM    8  C   UNK N   1      33.691  16.797   5.228  0.00  0.00     0.283 A 
HETATM    9  N   UNK N   1      34.930  14.460   7.534  0.00  0.00    -0.174 N 
HETATM   10  N   UNK N   1      34.351  14.091   5.263  0.00  0.00    -0.287 N 
HETATM   11  C   UNK N   1      34.798  15.552   8.321  0.00  0.00     0.685 A 
ATOM     12  HN  UNK N   1      35.234  13.525   7.806  1.00  0.00     0.186 HD
HETATM   13  N   UNK N   1      34.718  15.394   9.728  0.00  0.00    -0.215 N 
HETATM   14  C   UNK N   1      35.255  16.339  10.673  0.00  0.00     0.141 C 
HETATM   15  C   UNK N   1      34.198  14.139  10.230  0.00  0.00     0.165 C 
HETATM   16  C   UNK N   1      36.110  15.614  11.732  0.00  0.00     0.022 C 
HETATM   17  C   UNK N   1      36.505  14.202  11.278  0.00  0.00     0.028 C 
HETATM   18  C   UNK N   1      35.265  13.349  10.978  0.00  0.00     0.092 C 
HETATM   19  C   UNK N   1      34.647  12.664   5.335  0.00  0.00     0.163 C 
HETATM   20  C   UNK N   1      33.703  14.626   4.174  0.00  0.00     0.333 A 
HETATM   21  N   UNK N   1      33.376  15.993   4.136  0.00  0.00    -0.257 N 
HETATM   22  O   UNK N   1      33.358  13.875   3.284  0.00  0.00    -0.246 OA
HETATM   23  O   UNK N   1      33.377  17.977   5.247  0.00  0.00    -0.265 OA
BRANCH  18  24
HETATM   24  N   UNK N   1      35.652  12.196  10.185  0.00  0.00    -0.424 N 
HETATM   25  H   UNK N   1      35.823  12.214   9.180  0.00  0.00     0.150 HD
HETATM   26  H   UNK N   1      35.760  11.303  10.668  0.00  0.00     0.150 HD
ENDBRANCH  18  24
BRANCH  21  27
HETATM   27  C   UNK N   1      32.509  16.585   3.090  0.00  0.00     0.213 C 
BRANCH  27  28
HETATM   28  C   UNK N   1      31.023  16.563   3.290  0.00  0.00     0.100 A 
HETATM   29  N   UNK N   1      30.432  17.525   4.040  0.00  0.00    -0.347 N 
HETATM   30  C   UNK N   1      29.094  17.620   4.180  0.00  0.00     0.019 A 
ATOM     31  HN  UNK N   1      31.023  18.204   4.519  1.00  0.00     0.167 HD
HETATM   32  C   UNK N   1      28.536  18.686   5.062  0.00  0.00     0.069 C 
HETATM   33  C   UNK N   1      28.278  16.732   3.482  0.00  0.00     0.013 A 
HETATM   34  C   UNK N   1      26.883  16.801   3.562  0.00  0.00     0.015 A 
HETATM   35  C   UNK N   1      28.893  15.755   2.669  0.00  0.00     0.045 A 
HETATM   36  C   UNK N   1      26.100  15.910   2.828  0.00  0.00     0.001 A 
HETATM   37  C   UNK N   1      26.708  14.949   2.013  0.00  0.00     0.002 A 
HETATM   38  C   UNK N   1      28.102  14.868   1.935  0.00  0.00     0.030 A 
HETATM   39  N   UNK N   1      30.251  15.689   2.591  0.00  0.00    -0.344 N 
ATOM     40  HN  UNK N   1      30.692  14.979   2.006  1.00  0.00     0.167 HD
ENDBRANCH  27  28
ENDBRANCH  21  27
ENDBRANCH   4   5
ENDBRANCH   3   4
TORSDOF 5
ENDMDL
MODEL 3
REMARK VINA RESULT:      -8.2      5.161     10.956
REMARK  5 active torsions:
REMARK  status: ('A' for Active; 'I' for Inactive)
REMARK    1  A    between atoms: C_13  and  C_5 
REMARK    2  A    between atoms: N_35  and  C_13 
REMARK    3  A    between atoms: C_20  and  C_15 
REMARK    4  A    between atoms: N_36  and  C_15 
REMARK    5  A    between atoms: C_17  and  N_26 
REMARK       I    between atoms: N_34  and  C_24 
ROOT
HETATM    1  C   UNK N   1      31.780  12.861   2.644  0.00  0.00     0.112 C 
HETATM    2  C   UNK N   1      31.666  14.267   3.028  0.00  0.00    -0.109 C 
HETATM    3  C   UNK N   1      31.561  15.406   3.414  0.00  0.00    -0.086 C 
ENDROOT
BRANCH   3   4
HETATM    4  C   UNK N   1      31.528  16.734   4.029  0.00  0.00     0.241 C 
BRANCH   4   5
HETATM    5  N   UNK N   1      31.214  16.827   5.463  0.00  0.00    -0.163 N 
HETATM    6  C   UNK N   1      30.051  17.357   5.909  0.00  0.00     0.165 A 
HETATM    7  C   UNK N   1      30.151  17.595   7.232  0.00  0.00     0.160 A 
HETATM    8  C   UNK N   1      28.935  17.808   5.201  0.00  0.00     0.283 A 
HETATM    9  N   UNK N   1      31.354  17.255   7.683  0.00  0.00    -0.174 N 
HETATM   10  N   UNK N   1      29.225  18.271   7.933  0.00  0.00    -0.287 N 
HETATM   11  C   UNK N   1      32.013  16.824   6.582  0.00  0.00     0.685 A 
ATOM     12  HN  UNK N   1      31.702  17.306   8.640  1.00  0.00     0.186 HD
HETATM   13  N   UNK N   1      33.428  16.745   6.600  0.00  0.00    -0.215 N 
HETATM   14  C   UNK N   1      34.185  15.741   5.896  0.00  0.00     0.141 C 
HETATM   15  C   UNK N   1      34.134  17.634   7.499  0.00  0.00     0.165 C 
HETATM   16  C   UNK N   1      35.220  15.091   6.835  0.00  0.00     0.022 C 
HETATM   17  C   UNK N   1      34.900  15.359   8.312  0.00  0.00     0.028 C 
HETATM   18  C   UNK N   1      34.848  16.864   8.604  0.00  0.00     0.092 C 
HETATM   19  C   UNK N   1      29.437  18.554   9.349  0.00  0.00     0.163 C 
HETATM   20  C   UNK N   1      28.159  18.813   7.253  0.00  0.00     0.333 A 
HETATM   21  N   UNK N   1      27.992  18.577   5.877  0.00  0.00    -0.257 N 
HETATM   22  O   UNK N   1      27.412  19.557   7.855  0.00  0.00    -0.246 OA
HETATM   23  O   UNK N   1      28.847  17.625   3.997  0.00  0.00    -0.265 OA
BRANCH  18  24
HETATM   24  N   UNK N   1      34.163  17.089   9.864  0.00  0.00    -0.424 N 
HETATM   25  H   UNK N   1      34.626  17.303  10.747  0.00  0.00     0.150 HD
HETATM   26  H   UNK N   1      33.144  17.027   9.867  0.00  0.00     0.150 HD
ENDBRANCH  18  24
BRANCH  21  27
HETATM   27  C   UNK N   1      26.986  19.289   5.053  0.00  0.00     0.213 C 
BRANCH  27  28
HETATM   28  C   UNK N   1      25.654  18.639   4.826  0.00  0.00     0.100 A 
HETATM   29  N   UNK N   1      25.381  17.445   5.404  0.00  0.00    -0.347 N 
HETATM   30  C   UNK N   1      24.172  16.854   5.320  0.00  0.00     0.019 A 
ATOM     31  HN  UNK N   1      26.121  16.972   5.923  1.00  0.00     0.167 HD
HETATM   32  C   UNK N   1      23.978  15.517   5.952  0.00  0.00     0.069 C 
HETATM   33  C   UNK N   1      23.140  17.521   4.663  0.00  0.00     0.013 A 
HETATM   34  C   UNK N   1      21.855  16.973   4.571  0.00  0.00     0.015 A 
HETATM   35  C   UNK N   1      23.414  18.784   4.095  0.00  0.00     0.045 A 
HETATM   36  C   UNK N   1      20.842  17.683   3.927  0.00  0.00     0.001 A 
HETATM   37  C   UNK N   1      21.108  18.940   3.374  0.00  0.00     0.002 A 
HETATM   38  C   UNK N   1      22.393  19.490   3.454  0.00  0.00     0.030 A 
HETATM   39  N   UNK N   1      24.663  19.317   4.186  0.00  0.00    -0.344 N 
ATOM     40  HN  UNK N   1      24.859  20.228   3.771  1.00  0.00     0.167 HD
ENDBRANCH  27  28
ENDBRANCH  21  27
ENDBRANCH   4   5
ENDBRANCH   3   4
TORSDOF 5
ENDMDL
MODEL 4
REMARK VINA RESULT:      -8.2      7.420     11.171
REMARK  5 active torsions:
REMARK  status: ('A' for Active; 'I' for Inactive)
REMARK    1  A    between atoms: C_13  and  C_5 
REMARK    2  A    between atoms: N_35  and  C_13 
REMARK    3  A    between atoms: C_20  and  C_15 
REMARK    4  A    between atoms: N_36  and  C_15 
REMARK    5  A    between atoms: C_17  and  N_26 
REMARK       I    between atoms: N_34  and  C_24 
ROOT
HETATM    1  C   UNK N   1      28.439  17.620   9.332  0.00  0.00     0.112 C 
HETATM    2  C   UNK N   1      28.231  18.250   8.029  0.00  0.00    -0.109 C 
HETATM    3  C   UNK N   1      28.055  18.704   6.924  0.00  0.00    -0.086 C 
ENDROOT
BRANCH   3   4
HETATM    4  C   UNK N   1      27.718  19.120   5.562  0.00  0.00     0.241 C 
BRANCH   4   5
HETATM    5  N   UNK N   1      27.556  18.077   4.537  0.00  0.00    -0.163 N 
HETATM    6  C   UNK N   1      26.336  17.666   4.121  0.00  0.00     0.165 A 
HETATM    7  C   UNK N   1      26.469  16.520   3.424  0.00  0.00     0.160 A 
HETATM    8  C   UNK N   1      25.064  18.140   4.446  0.00  0.00     0.283 A 
HETATM    9  N   UNK N   1      27.743  16.142   3.376  0.00  0.00    -0.174 N 
HETATM   10  N   UNK N   1      25.426  15.774   3.021  0.00  0.00    -0.287 N 
HETATM   11  C   UNK N   1      28.396  17.082   4.097  0.00  0.00     0.685 A 
ATOM     12  HN  UNK N   1      28.138  15.329   2.902  1.00  0.00     0.186 HD
HETATM   13  N   UNK N   1      29.698  16.808   4.586  0.00  0.00    -0.215 N 
HETATM   14  C   UNK N   1      30.732  17.803   4.718  0.00  0.00     0.141 C 
HETATM   15  C   UNK N   1      30.045  15.421   4.821  0.00  0.00     0.165 C 
HETATM   16  C   UNK N   1      32.044  17.303   4.082  0.00  0.00     0.022 C 
HETATM   17  C   UNK N   1      31.806  16.118   3.137  0.00  0.00     0.028 C 
HETATM   18  C   UNK N   1      31.139  14.948   3.873  0.00  0.00     0.092 C 
HETATM   19  C   UNK N   1      25.650  14.506   2.334  0.00  0.00     0.163 C 
HETATM   20  C   UNK N   1      24.162  16.160   3.404  0.00  0.00     0.333 A 
HETATM   21  N   UNK N   1      23.962  17.358   4.111  0.00  0.00    -0.257 N 
HETATM   22  O   UNK N   1      23.239  15.404   3.180  0.00  0.00    -0.246 OA
HETATM   23  O   UNK N   1      24.930  19.161   5.102  0.00  0.00    -0.265 OA
BRANCH  18  24
HETATM   24  N   UNK N   1      30.569  14.029   2.903  0.00  0.00    -0.424 N 
HETATM   25  H   UNK N   1      31.110  13.398   2.313  0.00  0.00     0.150 HD
HETATM   26  H   UNK N   1      29.553  14.014   2.806  0.00  0.00     0.150 HD
ENDBRANCH  18  24
BRANCH  21  27
HETATM   27  C   UNK N   1      22.663  17.727   4.721  0.00  0.00     0.213 C 
BRANCH  27  28
HETATM   28  C   UNK N   1      22.226  17.016   5.967  0.00  0.00     0.100 A 
HETATM   29  N   UNK N   1      21.194  17.507   6.695  0.00  0.00    -0.347 N 
HETATM   30  C   UNK N   1      20.688  16.867   7.768  0.00  0.00     0.019 A 
ATOM     31  HN  UNK N   1      20.782  18.399   6.419  1.00  0.00     0.167 HD
HETATM   32  C   UNK N   1      19.580  17.508   8.533  0.00  0.00     0.069 C 
HETATM   33  C   UNK N   1      21.206  15.621   8.115  0.00  0.00     0.013 A 
HETATM   34  C   UNK N   1      20.701  14.894   9.199  0.00  0.00     0.015 A 
HETATM   35  C   UNK N   1      22.255  15.090   7.333  0.00  0.00     0.045 A 
HETATM   36  C   UNK N   1      21.229  13.638   9.499  0.00  0.00     0.001 A 
HETATM   37  C   UNK N   1      22.260  13.106   8.718  0.00  0.00     0.002 A 
HETATM   38  C   UNK N   1      22.776  13.830   7.638  0.00  0.00     0.030 A 
HETATM   39  N   UNK N   1      22.744  15.798   6.278  0.00  0.00    -0.344 N 
ATOM     40  HN  UNK N   1      23.505  15.413   5.717  1.00  0.00     0.167 HD
ENDBRANCH  27  28
ENDBRANCH  21  27
ENDBRANCH   4   5
ENDBRANCH   3   4
TORSDOF 5
ENDMDL
MODEL 5
REMARK VINA RESULT:      -8.0      2.638      8.976
REMARK  5 active torsions:
REMARK  status: ('A' for Active; 'I' for Inactive)
REMARK    1  A    between atoms: C_13  and  C_5 
REMARK    2  A    between atoms: N_35  and  C_13 
REMARK    3  A    between atoms: C_20  and  C_15 
REMARK    4  A    between atoms: N_36  and  C_15 
REMARK    5  A    between atoms: C_17  and  N_26 
REMARK       I    between atoms: N_34  and  C_24 
ROOT
HETATM    1  C   UNK N   1      31.168   7.883   9.812  0.00  0.00     0.112 C 
HETATM    2  C   UNK N   1      32.039   9.037   9.596  0.00  0.00    -0.109 C 
HETATM    3  C   UNK N   1      32.810   9.944   9.395  0.00  0.00    -0.086 C 
ENDROOT
BRANCH   3   4
HETATM    4  C   UNK N   1      33.794  10.953   8.999  0.00  0.00     0.241 C 
BRANCH   4   5
HETATM    5  N   UNK N   1      34.170  11.980   9.983  0.00  0.00    -0.163 N 
HETATM    6  C   UNK N   1      33.929  13.295   9.773  0.00  0.00     0.165 A 
HETATM    7  C   UNK N   1      34.631  14.022  10.666  0.00  0.00     0.160 A 
HETATM    8  C   UNK N   1      33.251  13.934   8.733  0.00  0.00     0.283 A 
HETATM    9  N   UNK N   1      35.348  13.231  11.457  0.00  0.00    -0.174 N 
HETATM   10  N   UNK N   1      34.735  15.360  10.610  0.00  0.00    -0.287 N 
HETATM   11  C   UNK N   1      35.091  11.983  11.004  0.00  0.00     0.685 A 
ATOM     12  HN  UNK N   1      35.954  13.503  12.232  1.00  0.00     0.186 HD
HETATM   13  N   UNK N   1      35.964  10.920  11.346  0.00  0.00    -0.215 N 
HETATM   14  C   UNK N   1      35.530   9.564  11.565  0.00  0.00     0.141 C 
HETATM   15  C   UNK N   1      37.342  11.256  11.637  0.00  0.00     0.165 C 
HETATM   16  C   UNK N   1      36.107   9.020  12.887  0.00  0.00     0.022 C 
HETATM   17  C   UNK N   1      36.611  10.149  13.797  0.00  0.00     0.028 C 
HETATM   18  C   UNK N   1      37.690  10.986  13.096  0.00  0.00     0.092 C 
HETATM   19  C   UNK N   1      35.573  16.073  11.569  0.00  0.00     0.163 C 
HETATM   20  C   UNK N   1      34.159  16.016   9.546  0.00  0.00     0.333 A 
HETATM   21  N   UNK N   1      33.396  15.312   8.599  0.00  0.00    -0.257 N 
HETATM   22  O   UNK N   1      34.389  17.200   9.409  0.00  0.00    -0.246 OA
HETATM   23  O   UNK N   1      32.636  13.285   7.901  0.00  0.00    -0.265 OA
BRANCH  18  24
HETATM   24  N   UNK N   1      37.850  12.250  13.793  0.00  0.00    -0.424 N 
HETATM   25  H   UNK N   1      38.323  12.363  14.689  0.00  0.00     0.150 HD
HETATM   26  H   UNK N   1      37.460  13.085  13.355  0.00  0.00     0.150 HD
ENDBRANCH  18  24
BRANCH  21  27
HETATM   27  C   UNK N   1      32.921  15.920   7.334  0.00  0.00     0.213 C 
BRANCH  27  28
HETATM   28  C   UNK N   1      31.595  16.620   7.326  0.00  0.00     0.100 A 
HETATM   29  N   UNK N   1      31.167  17.262   8.439  0.00  0.00    -0.347 N 
HETATM   30  C   UNK N   1      30.034  17.991   8.470  0.00  0.00     0.019 A 
ATOM     31  HN  UNK N   1      31.725  17.190   9.290  1.00  0.00     0.167 HD
HETATM   32  C   UNK N   1      29.620  18.625   9.755  0.00  0.00     0.069 C 
HETATM   33  C   UNK N   1      29.297  18.143   7.297  0.00  0.00     0.013 A 
HETATM   34  C   UNK N   1      28.130  18.913   7.260  0.00  0.00     0.015 A 
HETATM   35  C   UNK N   1      29.764  17.506   6.127  0.00  0.00     0.045 A 
HETATM   36  C   UNK N   1      27.434  19.062   6.060  0.00  0.00     0.001 A 
HETATM   37  C   UNK N   1      27.902  18.442   4.896  0.00  0.00     0.002 A 
HETATM   38  C   UNK N   1      29.064  17.663   4.929  0.00  0.00     0.030 A 
HETATM   39  N   UNK N   1      30.901  16.758   6.164  0.00  0.00    -0.344 N 
ATOM     40  HN  UNK N   1      31.234  16.296   5.317  1.00  0.00     0.167 HD
ENDBRANCH  27  28
ENDBRANCH  21  27
ENDBRANCH   4   5
ENDBRANCH   3   4
TORSDOF 5
ENDMDL
MODEL 6
REMARK VINA RESULT:      -7.8      2.533      8.796
REMARK  5 active torsions:
REMARK  status: ('A' for Active; 'I' for Inactive)
REMARK    1  A    between atoms: C_13  and  C_5 
REMARK    2  A    between atoms: N_35  and  C_13 
REMARK    3  A    between atoms: C_20  and  C_15 
REMARK    4  A    between atoms: N_36  and  C_15 
REMARK    5  A    between atoms: C_17  and  N_26 
REMARK       I    between atoms: N_34  and  C_24 
ROOT
HETATM    1  C   UNK N   1      31.233   8.348   9.442  0.00  0.00     0.112 C 
HETATM    2  C   UNK N   1      32.352   9.262   9.215  0.00  0.00    -0.109 C 
HETATM    3  C   UNK N   1      33.260  10.048   9.091  0.00  0.00    -0.086 C 
ENDROOT
BRANCH   3   4
HETATM    4  C   UNK N   1      34.393  10.974   9.121  0.00  0.00     0.241 C 
BRANCH   4   5
HETATM    5  N   UNK N   1      34.644  11.725  10.360  0.00  0.00    -0.163 N 
HETATM    6  C   UNK N   1      34.574  13.075  10.406  0.00  0.00     0.165 A 
HETATM    7  C   UNK N   1      35.134  13.509  11.552  0.00  0.00     0.160 A 
HETATM    8  C   UNK N   1      34.191  13.993   9.426  0.00  0.00     0.283 A 
HETATM    9  N   UNK N   1      35.594  12.488  12.269  0.00  0.00    -0.174 N 
HETATM   10  N   UNK N   1      35.368  14.806  11.816  0.00  0.00    -0.287 N 
HETATM   11  C   UNK N   1      35.326  11.401  11.510  0.00  0.00     0.685 A 
ATOM     12  HN  UNK N   1      36.045  12.518  13.184  1.00  0.00     0.186 HD
HETATM   13  N   UNK N   1      36.007  10.184  11.765  0.00  0.00    -0.215 N 
HETATM   14  C   UNK N   1      35.416   8.882  11.592  0.00  0.00     0.141 C 
HETATM   15  C   UNK N   1      37.318  10.269  12.376  0.00  0.00     0.165 C 
HETATM   16  C   UNK N   1      35.649   8.015  12.845  0.00  0.00     0.022 C 
HETATM   17  C   UNK N   1      36.050   8.862  14.060  0.00  0.00     0.028 C 
HETATM   18  C   UNK N   1      37.324   9.670  13.777  0.00  0.00     0.092 C 
HETATM   19  C   UNK N   1      36.046  15.196  13.048  0.00  0.00     0.163 C 
HETATM   20  C   UNK N   1      35.092  15.731  10.835  0.00  0.00     0.333 A 
HETATM   21  N   UNK N   1      34.486  15.338   9.630  0.00  0.00    -0.257 N 
HETATM   22  O   UNK N   1      35.452  16.877  11.010  0.00  0.00    -0.246 OA
HETATM   23  O   UNK N   1      33.710  13.611   8.370  0.00  0.00    -0.265 OA
BRANCH  18  24
HETATM   24  N   UNK N   1      37.447  10.737  14.754  0.00  0.00    -0.424 N 
HETATM   25  H   UNK N   1      37.083  10.698  15.706  0.00  0.00     0.150 HD
HETATM   26  H   UNK N   1      37.932  11.588  14.467  0.00  0.00     0.150 HD
ENDBRANCH  18  24
BRANCH  21  27
HETATM   27  C   UNK N   1      34.346  16.243   8.465  0.00  0.00     0.213 C 
BRANCH  27  28
HETATM   28  C   UNK N   1      32.968  16.647   8.030  0.00  0.00     0.100 A 
HETATM   29  N   UNK N   1      32.447  16.136   6.888  0.00  0.00    -0.347 N 
HETATM   30  C   UNK N   1      31.182  16.380   6.491  0.00  0.00     0.019 A 
ATOM     31  HN  UNK N   1      33.036  15.541   6.305  1.00  0.00     0.167 HD
HETATM   32  C   UNK N   1      30.711  15.809   5.197  0.00  0.00     0.069 C 
HETATM   33  C   UNK N   1      30.353  17.142   7.312  0.00  0.00     0.013 A 
HETATM   34  C   UNK N   1      29.022  17.403   6.969  0.00  0.00     0.015 A 
HETATM   35  C   UNK N   1      30.885  17.642   8.521  0.00  0.00     0.045 A 
HETATM   36  C   UNK N   1      28.217  18.149   7.829  0.00  0.00     0.001 A 
HETATM   37  C   UNK N   1      28.738  18.635   9.033  0.00  0.00     0.002 A 
HETATM   38  C   UNK N   1      30.071  18.386   9.379  0.00  0.00     0.030 A 
HETATM   39  N   UNK N   1      32.179  17.387   8.854  0.00  0.00    -0.344 N 
ATOM     40  HN  UNK N   1      32.561  17.753   9.727  1.00  0.00     0.167 HD
ENDBRANCH  27  28
ENDBRANCH  21  27
ENDBRANCH   4   5
ENDBRANCH   3   4
TORSDOF 5
ENDMDL
MODEL 7
REMARK VINA RESULT:      -7.8     17.463     20.821
REMARK  5 active torsions:
REMARK  status: ('A' for Active; 'I' for Inactive)
REMARK    1  A    between atoms: C_13  and  C_5 
REMARK    2  A    between atoms: N_35  and  C_13 
REMARK    3  A    between atoms: C_20  and  C_15 
REMARK    4  A    between atoms: N_36  and  C_15 
REMARK    5  A    between atoms: C_17  and  N_26 
REMARK       I    between atoms: N_34  and  C_24 
ROOT
HETATM    1  C   UNK N   1      28.770  23.544  -2.817  0.00  0.00     0.112 C 
HETATM    2  C   UNK N   1      27.598  24.199  -3.394  0.00  0.00    -0.109 C 
HETATM    3  C   UNK N   1      26.675  24.787  -3.903  0.00  0.00    -0.086 C 
ENDROOT
BRANCH   3   4
HETATM    4  C   UNK N   1      25.660  25.510  -4.672  0.00  0.00     0.241 C 
BRANCH   4   5
HETATM    5  N   UNK N   1      26.104  26.331  -5.809  0.00  0.00    -0.163 N 
HETATM    6  C   UNK N   1      26.278  25.808  -7.045  0.00  0.00     0.165 A 
HETATM    7  C   UNK N   1      26.965  26.686  -7.803  0.00  0.00     0.160 A 
HETATM    8  C   UNK N   1      26.016  24.525  -7.527  0.00  0.00     0.283 A 
HETATM    9  N   UNK N   1      27.271  27.775  -7.105  0.00  0.00    -0.174 N 
HETATM   10  N   UNK N   1      27.440  26.392  -9.025  0.00  0.00    -0.287 N 
HETATM   11  C   UNK N   1      26.775  27.530  -5.871  0.00  0.00     0.685 A 
ATOM     12  HN  UNK N   1      27.766  28.607  -7.427  1.00  0.00     0.186 HD
HETATM   13  N   UNK N   1      27.240  28.287  -4.766  0.00  0.00    -0.215 N 
HETATM   14  C   UNK N   1      26.417  28.655  -3.642  0.00  0.00     0.141 C 
HETATM   15  C   UNK N   1      28.574  28.844  -4.854  0.00  0.00     0.165 C 
HETATM   16  C   UNK N   1      26.556  30.162  -3.345  0.00  0.00     0.022 C 
HETATM   17  C   UNK N   1      27.164  30.925  -4.530  0.00  0.00     0.028 C 
HETATM   18  C   UNK N   1      28.545  30.367  -4.899  0.00  0.00     0.092 C 
HETATM   19  C   UNK N   1      28.239  27.369  -9.758  0.00  0.00     0.163 C 
HETATM   20  C   UNK N   1      27.284  25.108  -9.495  0.00  0.00     0.333 A 
HETATM   21  N   UNK N   1      26.556  24.159  -8.757  0.00  0.00    -0.257 N 
HETATM   22  O   UNK N   1      27.852  24.800 -10.523  0.00  0.00    -0.246 OA
HETATM   23  O   UNK N   1      25.420  23.711  -6.838  0.00  0.00    -0.265 OA
BRANCH  18  24
HETATM   24  N   UNK N   1      28.906  30.814  -6.232  0.00  0.00    -0.424 N 
HETATM   25  H   UNK N   1      29.863  30.918  -6.570  0.00  0.00     0.150 HD
HETATM   26  H   UNK N   1      28.149  31.042  -6.877  0.00  0.00     0.150 HD
ENDBRANCH  18  24
BRANCH  21  27
HETATM   27  C   UNK N   1      26.520  22.720  -9.108  0.00  0.00     0.213 C 
BRANCH  27  28
HETATM   28  C   UNK N   1      27.629  21.834  -8.624  0.00  0.00     0.100 A 
HETATM   29  N   UNK N   1      28.241  20.989  -9.488  0.00  0.00    -0.347 N 
HETATM   30  C   UNK N   1      29.306  20.239  -9.144  0.00  0.00     0.019 A 
ATOM     31  HN  UNK N   1      27.880  20.918 -10.440  1.00  0.00     0.167 HD
HETATM   32  C   UNK N   1      29.886  19.305 -10.152  0.00  0.00     0.069 C 
HETATM   33  C   UNK N   1      29.841  20.374  -7.864  0.00  0.00     0.013 A 
HETATM   34  C   UNK N   1      30.965  19.645  -7.458  0.00  0.00     0.015 A 
HETATM   35  C   UNK N   1      29.228  21.284  -6.975  0.00  0.00     0.045 A 
HETATM   36  C   UNK N   1      31.485  19.828  -6.178  0.00  0.00     0.001 A 
HETATM   37  C   UNK N   1      30.886  20.737  -5.300  0.00  0.00     0.002 A 
HETATM   38  C   UNK N   1      29.757  21.463  -5.695  0.00  0.00     0.030 A 
HETATM   39  N   UNK N   1      28.135  21.993  -7.371  0.00  0.00    -0.344 N 
ATOM     40  HN  UNK N   1      27.692  22.647  -6.725  1.00  0.00     0.167 HD
ENDBRANCH  27  28
ENDBRANCH  21  27
ENDBRANCH   4   5
ENDBRANCH   3   4
TORSDOF 5
ENDMDL
MODEL 8
REMARK VINA RESULT:      -7.7      4.974     10.675
REMARK  5 active torsions:
REMARK  status: ('A' for Active; 'I' for Inactive)
REMARK    1  A    between atoms: C_13  and  C_5 
REMARK    2  A    between atoms: N_35  and  C_13 
REMARK    3  A    between atoms: C_20  and  C_15 
REMARK    4  A    between atoms: N_36  and  C_15 
REMARK    5  A    between atoms: C_17  and  N_26 
REMARK       I    between atoms: N_34  and  C_24 
ROOT
HETATM    1  C   UNK N   1      31.222  12.693   2.593  0.00  0.00     0.112 C 
HETATM    2  C   UNK N   1      31.195  14.060   3.112  0.00  0.00    -0.109 C 
HETATM    3  C   UNK N   1      31.222  15.167   3.590  0.00  0.00    -0.086 C 
ENDROOT
BRANCH   3   4
HETATM    4  C   UNK N   1      31.436  16.488   4.185  0.00  0.00     0.241 C 
BRANCH   4   5
HETATM    5  N   UNK N   1      31.170  16.654   5.622  0.00  0.00    -0.163 N 
HETATM    6  C   UNK N   1      30.050  17.263   6.076  0.00  0.00     0.165 A 
HETATM    7  C   UNK N   1      30.201  17.547   7.385  0.00  0.00     0.160 A 
HETATM    8  C   UNK N   1      28.939  17.745   5.382  0.00  0.00     0.283 A 
HETATM    9  N   UNK N   1      31.398  17.161   7.817  0.00  0.00    -0.174 N 
HETATM   10  N   UNK N   1      29.333  18.299   8.083  0.00  0.00    -0.287 N 
HETATM   11  C   UNK N   1      32.000  16.652   6.717  0.00  0.00     0.685 A 
ATOM     12  HN  UNK N   1      31.775  17.231   8.762  1.00  0.00     0.186 HD
HETATM   13  N   UNK N   1      33.409  16.497   6.700  0.00  0.00    -0.215 N 
HETATM   14  C   UNK N   1      34.091  15.428   6.017  0.00  0.00     0.141 C 
HETATM   15  C   UNK N   1      34.187  17.382   7.542  0.00  0.00     0.165 C 
HETATM   16  C   UNK N   1      35.118  14.760   6.953  0.00  0.00     0.022 C 
HETATM   17  C   UNK N   1      34.856  15.103   8.426  0.00  0.00     0.028 C 
HETATM   18  C   UNK N   1      34.892  16.619   8.658  0.00  0.00     0.092 C 
HETATM   19  C   UNK N   1      29.601  18.626   9.480  0.00  0.00     0.163 C 
HETATM   20  C   UNK N   1      28.278  18.871   7.411  0.00  0.00     0.333 A 
HETATM   21  N   UNK N   1      28.058  18.590   6.051  0.00  0.00    -0.257 N 
HETATM   22  O   UNK N   1      27.589  19.677   8.002  0.00  0.00    -0.246 OA
HETATM   23  O   UNK N   1      28.806  17.520   4.189  0.00  0.00    -0.265 OA
BRANCH  18  24
HETATM   24  N   UNK N   1      34.256  16.930   9.926  0.00  0.00    -0.424 N 
HETATM   25  H   UNK N   1      33.518  16.374  10.357  0.00  0.00     0.150 HD
HETATM   26  H   UNK N   1      34.571  17.765  10.421  0.00  0.00     0.150 HD
ENDBRANCH  18  24
BRANCH  21  27
HETATM   27  C   UNK N   1      27.068  19.322   5.227  0.00  0.00     0.213 C 
BRANCH  27  28
HETATM   28  C   UNK N   1      25.710  18.716   5.028  0.00  0.00     0.100 A 
HETATM   29  N   UNK N   1      24.779  19.378   4.298  0.00  0.00    -0.347 N 
HETATM   30  C   UNK N   1      23.576  18.849   4.000  0.00  0.00     0.019 A 
ATOM     31  HN  UNK N   1      24.998  20.316   3.961  1.00  0.00     0.167 HD
HETATM   32  C   UNK N   1      22.599  19.670   3.228  0.00  0.00     0.069 C 
HETATM   33  C   UNK N   1      23.292  17.546   4.406  0.00  0.00     0.013 A 
HETATM   34  C   UNK N   1      22.073  16.932   4.099  0.00  0.00     0.015 A 
HETATM   35  C   UNK N   1      24.278  16.842   5.133  0.00  0.00     0.045 A 
HETATM   36  C   UNK N   1      21.837  15.618   4.502  0.00  0.00     0.001 A 
HETATM   37  C   UNK N   1      22.817  14.915   5.211  0.00  0.00     0.002 A 
HETATM   38  C   UNK N   1      24.035  15.526   5.530  0.00  0.00     0.030 A 
HETATM   39  N   UNK N   1      25.464  17.441   5.430  0.00  0.00    -0.344 N 
ATOM     40  HN  UNK N   1      26.172  16.930   5.958  1.00  0.00     0.167 HD
ENDBRANCH  27  28
ENDBRANCH  21  27
ENDBRANCH   4   5
ENDBRANCH   3   4
TORSDOF 5
ENDMDL
MODEL 9
REMARK VINA RESULT:      -7.4      6.506     10.091
REMARK  5 active torsions:
REMARK  status: ('A' for Active; 'I' for Inactive)
REMARK    1  A    between atoms: C_13  and  C_5 
REMARK    2  A    between atoms: N_35  and  C_13 
REMARK    3  A    between atoms: C_20  and  C_15 
REMARK    4  A    between atoms: N_36  and  C_15 
REMARK    5  A    between atoms: C_17  and  N_26 
REMARK       I    between atoms: N_34  and  C_24 
ROOT
HETATM    1  C   UNK N   1      22.769  13.756   8.501  0.00  0.00     0.112 C 
HETATM    2  C   UNK N   1      23.249  14.174   7.184  0.00  0.00    -0.109 C 
HETATM    3  C   UNK N   1      23.708  14.535   6.129  0.00  0.00    -0.086 C 
ENDROOT
BRANCH   3   4
HETATM    4  C   UNK N   1      24.422  14.893   4.901  0.00  0.00     0.241 C 
BRANCH   4   5
HETATM    5  N   UNK N   1      24.568  16.320   4.574  0.00  0.00    -0.163 N 
HETATM    6  C   UNK N   1      25.629  17.046   4.996  0.00  0.00     0.165 A 
HETATM    7  C   UNK N   1      25.365  18.356   4.822  0.00  0.00     0.160 A 
HETATM    8  C   UNK N   1      26.776  16.651   5.685  0.00  0.00     0.283 A 
HETATM    9  N   UNK N   1      24.150  18.530   4.311  0.00  0.00    -0.174 N 
HETATM   10  N   UNK N   1      26.151  19.338   5.296  0.00  0.00    -0.287 N 
HETATM   11  C   UNK N   1      23.653  17.276   4.202  0.00  0.00     0.685 A 
ATOM     12  HN  UNK N   1      23.696  19.408   4.058  1.00  0.00     0.186 HD
HETATM   13  N   UNK N   1      22.255  17.088   4.060  0.00  0.00    -0.215 N 
HETATM   14  C   UNK N   1      21.662  16.030   3.282  0.00  0.00     0.141 C 
HETATM   15  C   UNK N   1      21.386  18.108   4.608  0.00  0.00     0.165 C 
HETATM   16  C   UNK N   1      20.584  16.597   2.336  0.00  0.00     0.022 C 
HETATM   17  C   UNK N   1      20.718  18.116   2.163  0.00  0.00     0.028 C 
HETATM   18  C   UNK N   1      20.618  18.839   3.513  0.00  0.00     0.092 C 
HETATM   19  C   UNK N   1      25.763  20.735   5.133  0.00  0.00     0.163 C 
HETATM   20  C   UNK N   1      27.239  18.989   6.063  0.00  0.00     0.333 A 
HETATM   21  N   UNK N   1      27.575  17.637   6.256  0.00  0.00    -0.257 N 
HETATM   22  O   UNK N   1      27.854  19.873   6.624  0.00  0.00    -0.246 OA
HETATM   23  O   UNK N   1      27.011  15.468   5.876  0.00  0.00    -0.265 OA
BRANCH  18  24
HETATM   24  N   UNK N   1      21.140  20.187   3.379  0.00  0.00    -0.424 N 
HETATM   25  H   UNK N   1      21.556  20.727   4.138  0.00  0.00     0.150 HD
HETATM   26  H   UNK N   1      21.087  20.627   2.460  0.00  0.00     0.150 HD
ENDBRANCH  18  24
BRANCH  21  27
HETATM   27  C   UNK N   1      28.606  17.194   7.225  0.00  0.00     0.213 C 
BRANCH  27  28
HETATM   28  C   UNK N   1      30.012  17.002   6.740  0.00  0.00     0.100 A 
HETATM   29  N   UNK N   1      31.044  17.521   7.450  0.00  0.00    -0.347 N 
HETATM   30  C   UNK N   1      32.334  17.303   7.124  0.00  0.00     0.019 A 
ATOM     31  HN  UNK N   1      30.836  18.100   8.263  1.00  0.00     0.167 HD
HETATM   32  C   UNK N   1      33.401  17.952   7.939  0.00  0.00     0.069 C 
HETATM   33  C   UNK N   1      32.627  16.465   6.050  0.00  0.00     0.013 A 
HETATM   34  C   UNK N   1      33.946  16.176   5.685  0.00  0.00     0.015 A 
HETATM   35  C   UNK N   1      31.552  15.893   5.335  0.00  0.00     0.045 A 
HETATM   36  C   UNK N   1      34.198  15.313   4.619  0.00  0.00     0.001 A 
HETATM   37  C   UNK N   1      33.135  14.735   3.917  0.00  0.00     0.002 A 
HETATM   38  C   UNK N   1      31.813  15.026   4.272  0.00  0.00     0.030 A 
HETATM   39  N   UNK N   1      30.268  16.174   5.693  0.00  0.00    -0.344 N 
ATOM     40  HN  UNK N   1      29.494  15.762   5.171  1.00  0.00     0.167 HD
ENDBRANCH  27  28
ENDBRANCH  21  27
ENDBRANCH   4   5
ENDBRANCH   3   4
TORSDOF 5
ENDMDL
