MODEL 1
REMARK VINA RESULT:      -5.4      0.000      0.000
REMARK  6 active torsions:
REMARK  status: ('A' for Active; 'I' for Inactive)
REMARK    1  A    between atoms: C_5  and  C_2 
REMARK    2  A    between atoms: C_5  and  C_3 
REMARK    3  A    between atoms: C_6  and  C_3 
REMARK    4  A    between atoms: C_11  and  C_5 
REMARK    5  A    between atoms: N_15  and  C_10 
REMARK    6  A    between atoms: O_17  and  C_11 
ROOT
HETATM    1  C   UNK N   1      29.025  17.953   4.516  0.00  0.00     0.039 A 
HETATM    2  C   UNK N   1      30.219  17.220   6.505  0.00  0.00    -0.022 A 
HETATM    3  C   UNK N   1      30.059  17.220   5.102  0.00  0.00     0.015 A 
HETATM    4  C   UNK N   1      28.142  18.690   5.302  0.00  0.00     0.035 A 
HETATM    5  C   UNK N   1      29.312  17.954   7.303  0.00  0.00     0.041 A 
HETATM    6  C   UNK N   1      28.281  18.693   6.695  0.00  0.00     0.059 A 
HETATM    7  I   UNK N   1      31.312  16.109   3.809  0.00  0.00    -0.044 I 
HETATM    8  I   UNK N   1      26.596  19.774   4.350  0.00  0.00    -0.042 I 
HETATM    9  I   UNK N   1      29.448  17.961   9.429  0.00  0.00    -0.042 I 
ENDROOT
BRANCH   2  10
HETATM   10  C   UNK N   1      31.327  16.420   7.140  0.00  0.00     0.056 C 
BRANCH  10  11
HETATM   11  C   UNK N   1      32.691  17.101   6.973  0.00  0.00     0.087 C 
BRANCH  11  12
HETATM   12  C   UNK N   1      32.992  18.043   8.146  0.00  0.00     0.011 C 
HETATM   13  C   UNK N   1      34.451  18.485   8.190  0.00  0.00     0.006 C 
ENDBRANCH  11  12
BRANCH  11  14
HETATM   14  C   UNK N   1      33.794  16.096   6.730  0.00  0.00     0.144 C 
HETATM   15  O   UNK N   1      33.858  15.091   7.417  0.00  0.00    -0.650 OA
BRANCH  14  16
HETATM   16  O   UNK N   1      34.691  16.275   5.738  0.00  0.00    -0.776 OA
HETATM   17  H   UNK N   1      35.267  17.013   5.747  0.00  0.00     0.167 HD
ENDBRANCH  14  16
ENDBRANCH  11  14
ENDBRANCH  10  11
ENDBRANCH   2  10
BRANCH   6  18
HETATM   18  N   UNK N   1      27.380  19.436   7.488  0.00  0.00    -0.397 N 
HETATM   19  H   UNK N   1      27.705  20.194   8.025  0.00  0.00     0.156 HD
HETATM   20  H   UNK N   1      26.425  19.195   7.504  0.00  0.00     0.156 HD
ENDBRANCH   6  18
TORSDOF 6
ENDMDL
MODEL 2
REMARK VINA RESULT:      -5.2      2.224      3.367
REMARK  6 active torsions:
REMARK  status: ('A' for Active; 'I' for Inactive)
REMARK    1  A    between atoms: C_5  and  C_2 
REMARK    2  A    between atoms: C_5  and  C_3 
REMARK    3  A    between atoms: C_6  and  C_3 
REMARK    4  A    between atoms: C_11  and  C_5 
REMARK    5  A    between atoms: N_15  and  C_10 
REMARK    6  A    between atoms: O_17  and  C_11 
ROOT
HETATM    1  C   UNK N   1      28.387  17.132   6.522  0.00  0.00     0.039 A 
HETATM    2  C   UNK N   1      30.782  17.350   6.891  0.00  0.00    -0.022 A 
HETATM    3  C   UNK N   1      29.461  17.329   7.391  0.00  0.00     0.015 A 
HETATM    4  C   UNK N   1      28.601  16.953   5.157  0.00  0.00     0.035 A 
HETATM    5  C   UNK N   1      30.997  17.185   5.503  0.00  0.00     0.041 A 
HETATM    6  C   UNK N   1      29.903  16.979   4.643  0.00  0.00     0.059 A 
HETATM    7  I   UNK N   1      29.009  17.630   9.436  0.00  0.00    -0.044 I 
HETATM    8  I   UNK N   1      26.929  16.663   3.895  0.00  0.00    -0.042 I 
HETATM    9  I   UNK N   1      32.951  17.258   4.660  0.00  0.00    -0.042 I 
ENDROOT
BRANCH   2  10
HETATM   10  C   UNK N   1      31.942  17.574   7.826  0.00  0.00     0.056 C 
BRANCH  10  11
HETATM   11  C   UNK N   1      32.872  16.356   7.886  0.00  0.00     0.087 C 
BRANCH  11  12
HETATM   12  C   UNK N   1      34.255  16.736   8.430  0.00  0.00     0.011 C 
HETATM   13  C   UNK N   1      34.568  18.219   8.263  0.00  0.00     0.006 C 
ENDBRANCH  11  12
BRANCH  11  14
HETATM   14  C   UNK N   1      32.242  15.205   8.637  0.00  0.00     0.144 C 
HETATM   15  O   UNK N   1      31.995  14.164   8.053  0.00  0.00    -0.650 OA
BRANCH  14  16
HETATM   16  O   UNK N   1      31.978  15.299   9.957  0.00  0.00    -0.776 OA
HETATM   17  H   UNK N   1      31.153  15.017  10.298  0.00  0.00     0.167 HD
ENDBRANCH  14  16
ENDBRANCH  11  14
ENDBRANCH  10  11
ENDBRANCH   2  10
BRANCH   6  18
HETATM   18  N   UNK N   1      30.114  16.804   3.259  0.00  0.00    -0.397 N 
HETATM   19  H   UNK N   1      30.438  15.940   2.915  0.00  0.00     0.156 HD
HETATM   20  H   UNK N   1      29.938  17.546   2.636  0.00  0.00     0.156 HD
ENDBRANCH   6  18
TORSDOF 6
ENDMDL
MODEL 3
REMARK VINA RESULT:      -5.1      2.006      2.258
REMARK  6 active torsions:
REMARK  status: ('A' for Active; 'I' for Inactive)
REMARK    1  A    between atoms: C_5  and  C_2 
REMARK    2  A    between atoms: C_5  and  C_3 
REMARK    3  A    between atoms: C_6  and  C_3 
REMARK    4  A    between atoms: C_11  and  C_5 
REMARK    5  A    between atoms: N_15  and  C_10 
REMARK    6  A    between atoms: O_17  and  C_11 
ROOT
HETATM    1  C   UNK N   1      29.883  16.532   4.841  0.00  0.00     0.039 A 
HETATM    2  C   UNK N   1      30.746  17.188   7.019  0.00  0.00    -0.022 A 
HETATM    3  C   UNK N   1      30.963  16.862   5.662  0.00  0.00     0.015 A 
HETATM    4  C   UNK N   1      28.584  16.520   5.344  0.00  0.00     0.035 A 
HETATM    5  C   UNK N   1      29.429  17.159   7.534  0.00  0.00     0.041 A 
HETATM    6  C   UNK N   1      28.352  16.832   6.690  0.00  0.00     0.059 A 
HETATM    7  I   UNK N   1      32.892  16.807   4.794  0.00  0.00    -0.044 I 
HETATM    8  I   UNK N   1      26.995  16.007   4.047  0.00  0.00    -0.042 I 
HETATM    9  I   UNK N   1      29.022  17.582   9.581  0.00  0.00    -0.042 I 
ENDROOT
BRANCH   2  10
HETATM   10  C   UNK N   1      31.911  17.533   7.910  0.00  0.00     0.056 C 
BRANCH  10  11
HETATM   11  C   UNK N   1      32.891  16.361   8.049  0.00  0.00     0.087 C 
BRANCH  11  12
HETATM   12  C   UNK N   1      34.248  16.830   8.589  0.00  0.00     0.011 C 
HETATM   13  C   UNK N   1      34.551  18.284   8.242  0.00  0.00     0.006 C 
ENDBRANCH  11  12
BRANCH  11  14
HETATM   14  C   UNK N   1      32.299  15.227   8.856  0.00  0.00     0.144 C 
HETATM   15  O   UNK N   1      32.095  14.149   8.324  0.00  0.00    -0.650 OA
BRANCH  14  16
HETATM   16  O   UNK N   1      32.024  15.378  10.167  0.00  0.00    -0.776 OA
HETATM   17  H   UNK N   1      31.844  16.227  10.520  0.00  0.00     0.167 HD
ENDBRANCH  14  16
ENDBRANCH  11  14
ENDBRANCH  10  11
ENDBRANCH   2  10
BRANCH   6  18
HETATM   18  N   UNK N   1      27.036  16.812   7.197  0.00  0.00    -0.397 N 
HETATM   19  H   UNK N   1      26.446  17.590   7.069  0.00  0.00     0.156 HD
HETATM   20  H   UNK N   1      26.706  16.019   7.680  0.00  0.00     0.156 HD
ENDBRANCH   6  18
TORSDOF 6
ENDMDL
MODEL 4
REMARK VINA RESULT:      -5.1      1.730      3.101
REMARK  6 active torsions:
REMARK  status: ('A' for Active; 'I' for Inactive)
REMARK    1  A    between atoms: C_5  and  C_2 
REMARK    2  A    between atoms: C_5  and  C_3 
REMARK    3  A    between atoms: C_6  and  C_3 
REMARK    4  A    between atoms: C_11  and  C_5 
REMARK    5  A    between atoms: N_15  and  C_10 
REMARK    6  A    between atoms: O_17  and  C_11 
ROOT
HETATM    1  C   UNK N   1      28.727  18.257   6.498  0.00  0.00     0.039 A 
HETATM    2  C   UNK N   1      30.655  16.773   6.512  0.00  0.00    -0.022 A 
HETATM    3  C   UNK N   1      29.749  17.613   7.197  0.00  0.00     0.015 A 
HETATM    4  C   UNK N   1      28.585  18.082   5.124  0.00  0.00     0.035 A 
HETATM    5  C   UNK N   1      30.521  16.610   5.113  0.00  0.00     0.041 A 
HETATM    6  C   UNK N   1      29.480  17.261   4.427  0.00  0.00     0.059 A 
HETATM    7  I   UNK N   1      29.887  17.987   9.275  0.00  0.00    -0.044 I 
HETATM    8  I   UNK N   1      27.018  19.092   4.126  0.00  0.00    -0.042 I 
HETATM    9  I   UNK N   1      31.877  15.407   3.996  0.00  0.00    -0.042 I 
ENDROOT
BRANCH   2  10
HETATM   10  C   UNK N   1      31.766  16.086   7.262  0.00  0.00     0.056 C 
BRANCH  10  11
HETATM   11  C   UNK N   1      32.904  17.053   7.610  0.00  0.00     0.087 C 
BRANCH  11  12
HETATM   12  C   UNK N   1      33.503  16.737   8.987  0.00  0.00     0.011 C 
HETATM   13  C   UNK N   1      33.235  15.304   9.433  0.00  0.00     0.006 C 
ENDBRANCH  11  12
BRANCH  11  14
HETATM   14  C   UNK N   1      33.946  17.110   6.516  0.00  0.00     0.144 C 
HETATM   15  O   UNK N   1      33.965  18.056   5.748  0.00  0.00    -0.650 OA
BRANCH  14  16
HETATM   16  O   UNK N   1      34.881  16.145   6.397  0.00  0.00    -0.776 OA
HETATM   17  H   UNK N   1      34.648  15.295   6.080  0.00  0.00     0.167 HD
ENDBRANCH  14  16
ENDBRANCH  11  14
ENDBRANCH  10  11
ENDBRANCH   2  10
BRANCH   6  18
HETATM   18  N   UNK N   1      29.337  17.092   3.033  0.00  0.00    -0.397 N 
HETATM   19  H   UNK N   1      29.810  17.692   2.413  0.00  0.00     0.156 HD
HETATM   20  H   UNK N   1      28.763  16.373   2.681  0.00  0.00     0.156 HD
ENDBRANCH   6  18
TORSDOF 6
ENDMDL
MODEL 5
REMARK VINA RESULT:      -5.0      8.033     10.538
REMARK  6 active torsions:
REMARK  status: ('A' for Active; 'I' for Inactive)
REMARK    1  A    between atoms: C_5  and  C_2 
REMARK    2  A    between atoms: C_5  and  C_3 
REMARK    3  A    between atoms: C_6  and  C_3 
REMARK    4  A    between atoms: C_11  and  C_5 
REMARK    5  A    between atoms: N_15  and  C_10 
REMARK    6  A    between atoms: O_17  and  C_11 
ROOT
HETATM    1  C   UNK N   1      23.820  19.941   3.399  0.00  0.00     0.039 A 
HETATM    2  C   UNK N   1      22.203  18.243   4.047  0.00  0.00    -0.022 A 
HETATM    3  C   UNK N   1      22.519  19.436   3.361  0.00  0.00     0.015 A 
HETATM    4  C   UNK N   1      24.819  19.280   4.110  0.00  0.00     0.035 A 
HETATM    5  C   UNK N   1      23.214  17.581   4.782  0.00  0.00     0.041 A 
HETATM    6  C   UNK N   1      24.521  18.101   4.803  0.00  0.00     0.059 A 
HETATM    7  I   UNK N   1      21.079  20.549   2.282  0.00  0.00    -0.044 I 
HETATM    8  I   UNK N   1      26.767  20.103   4.130  0.00  0.00    -0.042 I 
HETATM    9  I   UNK N   1      22.809  15.808   5.890  0.00  0.00    -0.042 I 
ENDROOT
BRANCH   2  10
HETATM   10  C   UNK N   1      20.797  17.701   4.017  0.00  0.00     0.056 C 
BRANCH  10  11
HETATM   11  C   UNK N   1      20.653  16.539   3.026  0.00  0.00     0.087 C 
BRANCH  11  12
HETATM   12  C   UNK N   1      19.878  15.370   3.647  0.00  0.00     0.011 C 
HETATM   13  C   UNK N   1      18.970  15.805   4.792  0.00  0.00     0.006 C 
ENDBRANCH  11  12
BRANCH  11  14
HETATM   14  C   UNK N   1      20.072  16.995   1.707  0.00  0.00     0.144 C 
HETATM   15  O   UNK N   1      20.609  16.667   0.664  0.00  0.00    -0.650 OA
BRANCH  14  16
HETATM   16  O   UNK N   1      18.943  17.733   1.664  0.00  0.00    -0.776 OA
HETATM   17  H   UNK N   1      18.114  17.323   1.516  0.00  0.00     0.167 HD
ENDBRANCH  14  16
ENDBRANCH  11  14
ENDBRANCH  10  11
ENDBRANCH   2  10
BRANCH   6  18
HETATM   18  N   UNK N   1      25.535  17.438   5.527  0.00  0.00    -0.397 N 
HETATM   19  H   UNK N   1      25.448  16.479   5.731  0.00  0.00     0.156 HD
HETATM   20  H   UNK N   1      26.330  17.935   5.829  0.00  0.00     0.156 HD
ENDBRANCH   6  18
TORSDOF 6
ENDMDL
MODEL 6
REMARK VINA RESULT:      -5.0      3.756      6.210
REMARK  6 active torsions:
REMARK  status: ('A' for Active; 'I' for Inactive)
REMARK    1  A    between atoms: C_5  and  C_2 
REMARK    2  A    between atoms: C_5  and  C_3 
REMARK    3  A    between atoms: C_6  and  C_3 
REMARK    4  A    between atoms: C_11  and  C_5 
REMARK    5  A    between atoms: N_15  and  C_10 
REMARK    6  A    between atoms: O_17  and  C_11 
ROOT
HETATM    1  C   UNK N   1      31.307  17.690   8.186  0.00  0.00     0.039 A 
HETATM    2  C   UNK N   1      29.849  17.161   6.312  0.00  0.00    -0.022 A 
HETATM    3  C   UNK N   1      30.022  17.518   7.668  0.00  0.00     0.015 A 
HETATM    4  C   UNK N   1      32.429  17.516   7.379  0.00  0.00     0.035 A 
HETATM    5  C   UNK N   1      30.989  16.968   5.498  0.00  0.00     0.041 A 
HETATM    6  C   UNK N   1      32.275  17.154   6.035  0.00  0.00     0.059 A 
HETATM    7  I   UNK N   1      28.398  17.772   9.000  0.00  0.00    -0.044 I 
HETATM    8  I   UNK N   1      34.346  17.789   8.229  0.00  0.00    -0.042 I 
HETATM    9  I   UNK N   1      30.816  16.375   3.460  0.00  0.00    -0.042 I 
ENDROOT
BRANCH   2  10
HETATM   10  C   UNK N   1      28.463  16.963   5.753  0.00  0.00     0.056 C 
BRANCH  10  11
HETATM   11  C   UNK N   1      28.021  18.150   4.888  0.00  0.00     0.087 C 
BRANCH  11  12
HETATM   12  C   UNK N   1      27.212  17.681   3.671  0.00  0.00     0.011 C 
HETATM   13  C   UNK N   1      26.701  16.252   3.816  0.00  0.00     0.006 C 
ENDBRANCH  11  12
BRANCH  11  14
HETATM   14  C   UNK N   1      27.300  19.200   5.702  0.00  0.00     0.144 C 
HETATM   15  O   UNK N   1      27.906  20.184   6.090  0.00  0.00    -0.650 OA
BRANCH  14  16
HETATM   16  O   UNK N   1      25.985  19.084   5.977  0.00  0.00    -0.776 OA
HETATM   17  H   UNK N   1      25.348  19.181   5.298  0.00  0.00     0.167 HD
ENDBRANCH  14  16
ENDBRANCH  11  14
ENDBRANCH  10  11
ENDBRANCH   2  10
BRANCH   6  18
HETATM   18  N   UNK N   1      33.414  16.971   5.223  0.00  0.00    -0.397 N 
HETATM   19  H   UNK N   1      34.291  16.798   5.636  0.00  0.00     0.156 HD
HETATM   20  H   UNK N   1      33.333  17.017   4.243  0.00  0.00     0.156 HD
ENDBRANCH   6  18
TORSDOF 6
ENDMDL
MODEL 7
REMARK VINA RESULT:      -4.9     13.238     14.817
REMARK  6 active torsions:
REMARK  status: ('A' for Active; 'I' for Inactive)
REMARK    1  A    between atoms: C_5  and  C_2 
REMARK    2  A    between atoms: C_5  and  C_3 
REMARK    3  A    between atoms: C_6  and  C_3 
REMARK    4  A    between atoms: C_11  and  C_5 
REMARK    5  A    between atoms: N_15  and  C_10 
REMARK    6  A    between atoms: O_17  and  C_11 
ROOT
HETATM    1  C   UNK N   1      29.477  28.259  -3.194  0.00  0.00     0.039 A 
HETATM    2  C   UNK N   1      28.280  26.764  -4.694  0.00  0.00    -0.022 A 
HETATM    3  C   UNK N   1      29.471  27.148  -4.039  0.00  0.00     0.015 A 
HETATM    4  C   UNK N   1      28.316  29.000  -2.984  0.00  0.00     0.035 A 
HETATM    5  C   UNK N   1      27.106  27.527  -4.495  0.00  0.00     0.041 A 
HETATM    6  C   UNK N   1      27.129  28.638  -3.633  0.00  0.00     0.059 A 
HETATM    7  I   UNK N   1      31.304  26.126  -4.309  0.00  0.00    -0.044 I 
HETATM    8  I   UNK N   1      28.396  30.674  -1.695  0.00  0.00    -0.042 I 
HETATM    9  I   UNK N   1      25.284  27.049  -5.488  0.00  0.00    -0.042 I 
ENDROOT
BRANCH   2  10
HETATM   10  C   UNK N   1      28.274  25.572  -5.617  0.00  0.00     0.056 C 
BRANCH  10  11
HETATM   11  C   UNK N   1      27.337  24.466  -5.115  0.00  0.00     0.087 C 
BRANCH  11  12
HETATM   12  C   UNK N   1      27.257  23.307  -6.117  0.00  0.00     0.011 C 
HETATM   13  C   UNK N   1      25.822  22.940  -6.482  0.00  0.00     0.006 C 
ENDBRANCH  11  12
BRANCH  11  14
HETATM   14  C   UNK N   1      27.702  24.012  -3.720  0.00  0.00     0.144 C 
HETATM   15  O   UNK N   1      28.785  23.492  -3.518  0.00  0.00    -0.650 OA
BRANCH  14  16
HETATM   16  O   UNK N   1      26.860  24.206  -2.684  0.00  0.00    -0.776 OA
HETATM   17  H   UNK N   1      25.933  24.216  -2.821  0.00  0.00     0.167 HD
ENDBRANCH  14  16
ENDBRANCH  11  14
ENDBRANCH  10  11
ENDBRANCH   2  10
BRANCH   6  18
HETATM   18  N   UNK N   1      25.957  29.395  -3.424  0.00  0.00    -0.397 N 
HETATM   19  H   UNK N   1      25.230  29.373  -4.087  0.00  0.00     0.156 HD
HETATM   20  H   UNK N   1      25.866  29.948  -2.613  0.00  0.00     0.156 HD
ENDBRANCH   6  18
TORSDOF 6
ENDMDL
MODEL 8
REMARK VINA RESULT:      -4.9     14.675     16.636
REMARK  6 active torsions:
REMARK  status: ('A' for Active; 'I' for Inactive)
REMARK    1  A    between atoms: C_5  and  C_2 
REMARK    2  A    between atoms: C_5  and  C_3 
REMARK    3  A    between atoms: C_6  and  C_3 
REMARK    4  A    between atoms: C_11  and  C_5 
REMARK    5  A    between atoms: N_15  and  C_10 
REMARK    6  A    between atoms: O_17  and  C_11 
ROOT
HETATM    1  C   UNK N   1      28.368  27.939  -8.308  0.00  0.00     0.039 A 
HETATM    2  C   UNK N   1      26.740  26.951  -6.793  0.00  0.00    -0.022 A 
HETATM    3  C   UNK N   1      27.443  26.934  -8.019  0.00  0.00     0.015 A 
HETATM    4  C   UNK N   1      28.611  28.965  -7.397  0.00  0.00     0.035 A 
HETATM    5  C   UNK N   1      26.975  28.002  -5.877  0.00  0.00     0.041 A 
HETATM    6  C   UNK N   1      27.916  29.001  -6.182  0.00  0.00     0.059 A 
HETATM    7  I   UNK N   1      27.130  25.451  -9.495  0.00  0.00    -0.044 I 
HETATM    8  I   UNK N   1      30.022  30.458  -7.900  0.00  0.00    -0.042 I 
HETATM    9  I   UNK N   1      25.918  28.131  -4.033  0.00  0.00    -0.042 I 
ENDROOT
BRANCH   2  10
HETATM   10  C   UNK N   1      25.732  25.873  -6.484  0.00  0.00     0.056 C 
BRANCH  10  11
HETATM   11  C   UNK N   1      26.385  24.654  -5.821  0.00  0.00     0.087 C 
BRANCH  11  12
HETATM   12  C   UNK N   1      25.960  24.524  -4.353  0.00  0.00     0.011 C 
HETATM   13  C   UNK N   1      27.132  24.228  -3.423  0.00  0.00     0.006 C 
ENDBRANCH  11  12
BRANCH  11  14
HETATM   14  C   UNK N   1      26.146  23.389  -6.615  0.00  0.00     0.144 C 
HETATM   15  O   UNK N   1      25.052  23.184  -7.110  0.00  0.00    -0.650 OA
BRANCH  14  16
HETATM   16  O   UNK N   1      27.138  22.498  -6.816  0.00  0.00    -0.776 OA
HETATM   17  H   UNK N   1      27.992  22.787  -7.072  0.00  0.00     0.167 HD
ENDBRANCH  14  16
ENDBRANCH  11  14
ENDBRANCH  10  11
ENDBRANCH   2  10
BRANCH   6  18
HETATM   18  N   UNK N   1      28.161  30.047  -5.266  0.00  0.00    -0.397 N 
HETATM   19  H   UNK N   1      27.810  29.990  -4.348  0.00  0.00     0.156 HD
HETATM   20  H   UNK N   1      28.682  30.834  -5.545  0.00  0.00     0.156 HD
ENDBRANCH   6  18
TORSDOF 6
ENDMDL
MODEL 9
REMARK VINA RESULT:      -4.8      7.096      9.219
REMARK  6 active torsions:
REMARK  status: ('A' for Active; 'I' for Inactive)
REMARK    1  A    between atoms: C_5  and  C_2 
REMARK    2  A    between atoms: C_5  and  C_3 
REMARK    3  A    between atoms: C_6  and  C_3 
REMARK    4  A    between atoms: C_11  and  C_5 
REMARK    5  A    between atoms: N_15  and  C_10 
REMARK    6  A    between atoms: O_17  and  C_11 
ROOT
HETATM    1  C   UNK N   1      21.748  15.166   2.975  0.00  0.00     0.039 A 
HETATM    2  C   UNK N   1      22.223  17.415   3.771  0.00  0.00    -0.022 A 
HETATM    3  C   UNK N   1      22.514  16.033   3.756  0.00  0.00     0.015 A 
HETATM    4  C   UNK N   1      20.693  15.647   2.204  0.00  0.00     0.035 A 
HETATM    5  C   UNK N   1      21.140  17.901   3.001  0.00  0.00     0.041 A 
HETATM    6  C   UNK N   1      20.384  17.013   2.215  0.00  0.00     0.059 A 
HETATM    7  I   UNK N   1      24.065  15.180   4.915  0.00  0.00    -0.044 I 
HETATM    8  I   UNK N   1      19.570  14.278   1.048  0.00  0.00    -0.042 I 
HETATM    9  I   UNK N   1      20.599  19.961   3.012  0.00  0.00    -0.042 I 
ENDROOT
BRANCH   2  10
HETATM   10  C   UNK N   1      23.041  18.352   4.622  0.00  0.00     0.056 C 
BRANCH  10  11
HETATM   11  C   UNK N   1      24.323  18.800   3.909  0.00  0.00     0.087 C 
BRANCH  11  12
HETATM   12  C   UNK N   1      24.141  20.171   3.245  0.00  0.00     0.011 C 
HETATM   13  C   UNK N   1      25.377  20.623   2.474  0.00  0.00     0.006 C 
ENDBRANCH  11  12
BRANCH  11  14
HETATM   14  C   UNK N   1      25.523  18.747   4.826  0.00  0.00     0.144 C 
HETATM   15  O   UNK N   1      26.430  17.967   4.590  0.00  0.00    -0.650 OA
BRANCH  14  16
HETATM   16  O   UNK N   1      25.625  19.576   5.885  0.00  0.00    -0.776 OA
HETATM   17  H   UNK N   1      25.303  19.315   6.725  0.00  0.00     0.167 HD
ENDBRANCH  14  16
ENDBRANCH  11  14
ENDBRANCH  10  11
ENDBRANCH   2  10
BRANCH   6  18
HETATM   18  N   UNK N   1      19.310  17.495   1.438  0.00  0.00    -0.397 N 
HETATM   19  H   UNK N   1      18.975  18.411   1.573  0.00  0.00     0.156 HD
HETATM   20  H   UNK N   1      18.894  16.915   0.759  0.00  0.00     0.156 HD
ENDBRANCH   6  18
TORSDOF 6
ENDMDL
