MODEL 1
REMARK VINA RESULT:      -6.3      0.000      0.000
REMARK  10 active torsions:
REMARK  status: ('A' for Active; 'I' for Inactive)
REMARK    1  A    between atoms: C_4  and  C_7 
REMARK    2  A    between atoms: C_4  and  C_8 
REMARK    3  A    between atoms: C_7  and  C_21 
REMARK    4  A    between atoms: C_8  and  N_9 
REMARK       I    between atoms: N_9  and  C_10 
REMARK    5  A    between atoms: C_10  and  O_11 
REMARK    6  A    between atoms: O_11  and  C_13 
REMARK    7  A    between atoms: C_13  and  O_14 
REMARK    8  A    between atoms: O_14  and  C_16 
REMARK    9  A    between atoms: C_16  and  C_17 
REMARK   10  A    between atoms: C_21  and  O_22 
ROOT
HETATM    1  N   UNK N   1      33.280  15.388   9.878  0.00  0.00    -0.336 N 
HETATM    2  C   UNK N   1      34.478  15.168  10.489  0.00  0.00     0.362 C 
HETATM    3  O   UNK N   1      35.508  15.114   9.841  0.00  0.00    -0.238 OA
HETATM    4  H   UNK N   1      32.478  15.412  10.447  0.00  0.00     0.164 HD
ENDROOT
BRANCH   1   5
HETATM    5  C   UNK N   1      33.098  15.589   8.452  0.00  0.00     0.135 C 
BRANCH   5   6
HETATM    6  C   UNK N   1      32.052  16.663   8.089  0.00  0.00    -0.015 C 
HETATM    7  C   UNK N   1      30.835  16.564   9.029  0.00  0.00     0.012 C 
HETATM    8  C   UNK N   1      29.714  17.516   8.624  0.00  0.00     0.001 C 
HETATM    9  C   UNK N   1      29.263  17.198   7.205  0.00  0.00     0.000 C 
HETATM   10  C   UNK N   1      30.437  17.328   6.241  0.00  0.00     0.001 C 
HETATM   11  C   UNK N   1      31.573  16.386   6.654  0.00  0.00     0.012 C 
BRANCH   6  12
HETATM   12  C   UNK N   1      32.691  18.062   8.191  0.00  0.00     0.121 C 
BRANCH  12  13
HETATM   13  C   UNK N   1      34.172  18.079   7.929  0.00  0.00     0.140 C 
HETATM   14  O   UNK N   1      34.598  18.077   6.786  0.00  0.00    -0.650 OA
BRANCH  13  15
HETATM   15  O   UNK N   1      35.032  18.104   8.963  0.00  0.00    -0.776 OA
HETATM   16  H   UNK N   1      35.127  18.877   9.483  0.00  0.00     0.167 HD
ENDBRANCH  13  15
ENDBRANCH  12  13
ENDBRANCH   6  12
ENDBRANCH   5   6
ENDBRANCH   1   5
BRANCH   2  17
HETATM   17  O   UNK N   1      34.534  15.015  11.834  0.00  0.00    -0.272 OA
BRANCH  17  18
HETATM   18  C   UNK N   1      35.259  14.007  12.433  0.00  0.00     0.276 C 
HETATM   19  C   UNK N   1      36.294  14.589  13.385  0.00  0.00     0.072 C 
BRANCH  18  20
HETATM   20  O   UNK N   1      34.420  13.118  13.082  0.00  0.00    -0.289 OA
BRANCH  20  21
HETATM   21  C   UNK N   1      34.843  12.027  13.778  0.00  0.00     0.264 C 
HETATM   22  O   UNK N   1      35.704  11.290  13.316  0.00  0.00    -0.265 OA
BRANCH  21  23
HETATM   23  C   UNK N   1      34.261  11.719  15.129  0.00  0.00     0.077 C 
HETATM   24  C   UNK N   1      34.838  12.658  16.171  0.00  0.00     0.020 C 
HETATM   25  C   UNK N   1      34.530  10.285  15.556  0.00  0.00     0.020 C 
ENDBRANCH  21  23
ENDBRANCH  20  21
ENDBRANCH  18  20
ENDBRANCH  17  18
ENDBRANCH   2  17
TORSDOF 10
ENDMDL
MODEL 2
REMARK VINA RESULT:      -6.1     10.610     12.919
REMARK  10 active torsions:
REMARK  status: ('A' for Active; 'I' for Inactive)
REMARK    1  A    between atoms: C_4  and  C_7 
REMARK    2  A    between atoms: C_4  and  C_8 
REMARK    3  A    between atoms: C_7  and  C_21 
REMARK    4  A    between atoms: C_8  and  N_9 
REMARK       I    between atoms: N_9  and  C_10 
REMARK    5  A    between atoms: C_10  and  O_11 
REMARK    6  A    between atoms: O_11  and  C_13 
REMARK    7  A    between atoms: C_13  and  O_14 
REMARK    8  A    between atoms: O_14  and  C_16 
REMARK    9  A    between atoms: C_16  and  C_17 
REMARK   10  A    between atoms: C_21  and  O_22 
ROOT
HETATM    1  N   UNK N   1      20.771  15.372   8.337  0.00  0.00    -0.336 N 
HETATM    2  C   UNK N   1      19.746  14.986   9.148  0.00  0.00     0.362 C 
HETATM    3  O   UNK N   1      18.772  15.700   9.303  0.00  0.00    -0.238 OA
HETATM    4  H   UNK N   1      21.539  14.762   8.255  0.00  0.00     0.164 HD
ENDROOT
BRANCH   1   5
HETATM    5  C   UNK N   1      20.817  16.613   7.586  0.00  0.00     0.135 C 
BRANCH   5   6
HETATM    6  C   UNK N   1      21.522  16.506   6.219  0.00  0.00    -0.015 C 
HETATM    7  C   UNK N   1      22.941  15.929   6.394  0.00  0.00     0.012 C 
HETATM    8  C   UNK N   1      23.728  15.930   5.087  0.00  0.00     0.001 C 
HETATM    9  C   UNK N   1      23.840  17.354   4.560  0.00  0.00     0.000 C 
HETATM   10  C   UNK N   1      22.450  17.940   4.337  0.00  0.00     0.001 C 
HETATM   11  C   UNK N   1      21.649  17.925   5.642  0.00  0.00     0.012 C 
BRANCH   6  12
HETATM   12  C   UNK N   1      20.695  15.605   5.280  0.00  0.00     0.121 C 
BRANCH  12  13
HETATM   13  C   UNK N   1      19.268  16.050   5.108  0.00  0.00     0.140 C 
HETATM   14  O   UNK N   1      18.419  15.736   5.926  0.00  0.00    -0.650 OA
BRANCH  13  15
HETATM   15  O   UNK N   1      18.928  16.807   4.049  0.00  0.00    -0.776 OA
HETATM   16  H   UNK N   1      18.220  16.552   3.491  0.00  0.00     0.167 HD
ENDBRANCH  13  15
ENDBRANCH  12  13
ENDBRANCH   6  12
ENDBRANCH   5   6
ENDBRANCH   1   5
BRANCH   2  17
HETATM   17  O   UNK N   1      19.799  13.792   9.786  0.00  0.00    -0.272 OA
BRANCH  17  18
HETATM   18  C   UNK N   1      20.991  13.186  10.121  0.00  0.00     0.276 C 
HETATM   19  C   UNK N   1      20.791  12.230  11.288  0.00  0.00     0.072 C 
BRANCH  18  20
HETATM   20  O   UNK N   1      21.538  12.540   9.027  0.00  0.00    -0.289 OA
BRANCH  20  21
HETATM   21  C   UNK N   1      22.843  12.163   8.927  0.00  0.00     0.264 C 
HETATM   22  O   UNK N   1      23.147  11.114   8.376  0.00  0.00    -0.265 OA
BRANCH  21  23
HETATM   23  C   UNK N   1      23.929  13.040   9.486  0.00  0.00     0.077 C 
HETATM   24  C   UNK N   1      24.895  13.437   8.387  0.00  0.00     0.020 C 
HETATM   25  C   UNK N   1      24.703  12.354  10.599  0.00  0.00     0.020 C 
ENDBRANCH  21  23
ENDBRANCH  20  21
ENDBRANCH  18  20
ENDBRANCH  17  18
ENDBRANCH   2  17
TORSDOF 10
ENDMDL
MODEL 3
REMARK VINA RESULT:      -6.1     15.933     19.377
REMARK  10 active torsions:
REMARK  status: ('A' for Active; 'I' for Inactive)
REMARK    1  A    between atoms: C_4  and  C_7 
REMARK    2  A    between atoms: C_4  and  C_8 
REMARK    3  A    between atoms: C_7  and  C_21 
REMARK    4  A    between atoms: C_8  and  N_9 
REMARK       I    between atoms: N_9  and  C_10 
REMARK    5  A    between atoms: C_10  and  O_11 
REMARK    6  A    between atoms: O_11  and  C_13 
REMARK    7  A    between atoms: C_13  and  O_14 
REMARK    8  A    between atoms: O_14  and  C_16 
REMARK    9  A    between atoms: C_16  and  C_17 
REMARK   10  A    between atoms: C_21  and  O_22 
ROOT
HETATM    1  N   UNK N   1      30.878  24.920  -4.914  0.00  0.00    -0.336 N 
HETATM    2  C   UNK N   1      30.508  26.042  -4.235  0.00  0.00     0.362 C 
HETATM    3  O   UNK N   1      30.744  26.156  -3.046  0.00  0.00    -0.238 OA
HETATM    4  H   UNK N   1      30.655  24.874  -5.872  0.00  0.00     0.164 HD
ENDROOT
BRANCH   1   5
HETATM    5  C   UNK N   1      31.576  23.787  -4.333  0.00  0.00     0.135 C 
BRANCH   5   6
HETATM    6  C   UNK N   1      30.965  22.415  -4.682  0.00  0.00    -0.015 C 
HETATM    7  C   UNK N   1      32.057  21.458  -5.197  0.00  0.00     0.012 C 
HETATM    8  C   UNK N   1      31.479  20.132  -5.683  0.00  0.00     0.001 C 
HETATM    9  C   UNK N   1      30.484  20.390  -6.806  0.00  0.00     0.000 C 
HETATM   10  C   UNK N   1      29.366  21.302  -6.314  0.00  0.00     0.001 C 
HETATM   11  C   UNK N   1      29.942  22.629  -5.809  0.00  0.00     0.012 C 
BRANCH   6  12
HETATM   12  C   UNK N   1      30.285  21.821  -3.432  0.00  0.00     0.121 C 
BRANCH  12  13
HETATM   13  C   UNK N   1      29.815  22.852  -2.443  0.00  0.00     0.140 C 
HETATM   14  O   UNK N   1      30.393  22.998  -1.379  0.00  0.00    -0.650 OA
BRANCH  13  15
HETATM   15  O   UNK N   1      28.754  23.626  -2.739  0.00  0.00    -0.776 OA
HETATM   16  H   UNK N   1      28.866  24.420  -3.222  0.00  0.00     0.167 HD
ENDBRANCH  13  15
ENDBRANCH  12  13
ENDBRANCH   6  12
ENDBRANCH   5   6
ENDBRANCH   1   5
BRANCH   2  17
HETATM   17  O   UNK N   1      29.878  27.049  -4.885  0.00  0.00    -0.272 OA
BRANCH  17  18
HETATM   18  C   UNK N   1      28.513  27.228  -4.825  0.00  0.00     0.276 C 
HETATM   19  C   UNK N   1      28.074  28.312  -5.798  0.00  0.00     0.072 C 
BRANCH  18  20
HETATM   20  O   UNK N   1      27.851  26.037  -5.064  0.00  0.00    -0.289 OA
BRANCH  20  21
HETATM   21  C   UNK N   1      26.609  25.736  -4.593  0.00  0.00     0.264 C 
HETATM   22  O   UNK N   1      26.436  25.487  -3.408  0.00  0.00    -0.265 OA
BRANCH  21  23
HETATM   23  C   UNK N   1      25.430  25.717  -5.526  0.00  0.00     0.077 C 
HETATM   24  C   UNK N   1      25.877  25.329  -6.923  0.00  0.00     0.020 C 
HETATM   25  C   UNK N   1      24.726  27.062  -5.589  0.00  0.00     0.020 C 
ENDBRANCH  21  23
ENDBRANCH  20  21
ENDBRANCH  18  20
ENDBRANCH  17  18
ENDBRANCH   2  17
TORSDOF 10
ENDMDL
MODEL 4
REMARK VINA RESULT:      -6.0     16.216     19.837
REMARK  10 active torsions:
REMARK  status: ('A' for Active; 'I' for Inactive)
REMARK    1  A    between atoms: C_4  and  C_7 
REMARK    2  A    between atoms: C_4  and  C_8 
REMARK    3  A    between atoms: C_7  and  C_21 
REMARK    4  A    between atoms: C_8  and  N_9 
REMARK       I    between atoms: N_9  and  C_10 
REMARK    5  A    between atoms: C_10  and  O_11 
REMARK    6  A    between atoms: O_11  and  C_13 
REMARK    7  A    between atoms: C_13  and  O_14 
REMARK    8  A    between atoms: O_14  and  C_16 
REMARK    9  A    between atoms: C_16  and  C_17 
REMARK   10  A    between atoms: C_21  and  O_22 
ROOT
HETATM    1  N   UNK N   1      29.367  26.755  -3.502  0.00  0.00    -0.336 N 
HETATM    2  C   UNK N   1      29.932  27.974  -3.731  0.00  0.00     0.362 C 
HETATM    3  O   UNK N   1      30.979  28.071  -4.345  0.00  0.00    -0.238 OA
HETATM    4  H   UNK N   1      28.526  26.733  -2.992  0.00  0.00     0.164 HD
ENDROOT
BRANCH   1   5
HETATM    5  C   UNK N   1      29.911  25.488  -3.955  0.00  0.00     0.135 C 
BRANCH   5   6
HETATM    6  C   UNK N   1      28.848  24.420  -4.285  0.00  0.00    -0.015 C 
HETATM    7  C   UNK N   1      28.634  24.332  -5.809  0.00  0.00     0.012 C 
HETATM    8  C   UNK N   1      27.496  23.386  -6.177  0.00  0.00     0.001 C 
HETATM    9  C   UNK N   1      26.204  23.865  -5.528  0.00  0.00     0.000 C 
HETATM   10  C   UNK N   1      26.370  23.923  -4.014  0.00  0.00     0.001 C 
HETATM   11  C   UNK N   1      27.524  24.859  -3.639  0.00  0.00     0.012 C 
BRANCH   6  12
HETATM   12  C   UNK N   1      29.300  23.053  -3.732  0.00  0.00     0.121 C 
BRANCH  12  13
HETATM   13  C   UNK N   1      30.491  23.128  -2.817  0.00  0.00     0.140 C 
HETATM   14  O   UNK N   1      31.622  23.140  -3.272  0.00  0.00    -0.650 OA
BRANCH  13  15
HETATM   15  O   UNK N   1      30.306  23.190  -1.485  0.00  0.00    -0.776 OA
HETATM   16  H   UNK N   1      30.738  22.584  -0.917  0.00  0.00     0.167 HD
ENDBRANCH  13  15
ENDBRANCH  12  13
ENDBRANCH   6  12
ENDBRANCH   5   6
ENDBRANCH   1   5
BRANCH   2  17
HETATM   17  O   UNK N   1      29.324  29.097  -3.279  0.00  0.00    -0.272 OA
BRANCH  17  18
HETATM   18  C   UNK N   1      28.138  29.066  -2.578  0.00  0.00     0.276 C 
HETATM   19  C   UNK N   1      28.185  30.038  -1.409  0.00  0.00     0.072 C 
BRANCH  18  20
HETATM   20  O   UNK N   1      27.067  29.331  -3.413  0.00  0.00    -0.289 OA
BRANCH  20  21
HETATM   21  C   UNK N   1      26.140  28.410  -3.794  0.00  0.00     0.264 C 
HETATM   22  O   UNK N   1      25.519  27.769  -2.957  0.00  0.00    -0.265 OA
BRANCH  21  23
HETATM   23  C   UNK N   1      25.861  28.175  -5.253  0.00  0.00     0.077 C 
HETATM   24  C   UNK N   1      24.775  27.129  -5.413  0.00  0.00     0.020 C 
HETATM   25  C   UNK N   1      27.098  27.722  -6.008  0.00  0.00     0.020 C 
ENDBRANCH  21  23
ENDBRANCH  20  21
ENDBRANCH  18  20
ENDBRANCH  17  18
ENDBRANCH   2  17
TORSDOF 10
ENDMDL
MODEL 5
REMARK VINA RESULT:      -6.0     15.775     19.967
REMARK  10 active torsions:
REMARK  status: ('A' for Active; 'I' for Inactive)
REMARK    1  A    between atoms: C_4  and  C_7 
REMARK    2  A    between atoms: C_4  and  C_8 
REMARK    3  A    between atoms: C_7  and  C_21 
REMARK    4  A    between atoms: C_8  and  N_9 
REMARK       I    between atoms: N_9  and  C_10 
REMARK    5  A    between atoms: C_10  and  O_11 
REMARK    6  A    between atoms: O_11  and  C_13 
REMARK    7  A    between atoms: C_13  and  O_14 
REMARK    8  A    between atoms: O_14  and  C_16 
REMARK    9  A    between atoms: C_16  and  C_17 
REMARK   10  A    between atoms: C_21  and  O_22 
ROOT
HETATM    1  N   UNK N   1      27.292  23.962  -4.718  0.00  0.00    -0.336 N 
HETATM    2  C   UNK N   1      26.278  24.832  -4.449  0.00  0.00     0.362 C 
HETATM    3  O   UNK N   1      26.249  25.452  -3.401  0.00  0.00    -0.238 OA
HETATM    4  H   UNK N   1      27.260  23.480  -5.575  0.00  0.00     0.164 HD
ENDROOT
BRANCH   1   5
HETATM    5  C   UNK N   1      28.413  23.694  -3.836  0.00  0.00     0.135 C 
BRANCH   5   6
HETATM    6  C   UNK N   1      29.756  23.476  -4.562  0.00  0.00    -0.015 C 
HETATM    7  C   UNK N   1      29.850  24.391  -5.799  0.00  0.00     0.012 C 
HETATM    8  C   UNK N   1      31.101  24.115  -6.627  0.00  0.00     0.001 C 
HETATM    9  C   UNK N   1      31.097  22.664  -7.090  0.00  0.00     0.000 C 
HETATM   10  C   UNK N   1      31.047  21.731  -5.886  0.00  0.00     0.001 C 
HETATM   11  C   UNK N   1      29.800  22.016  -5.041  0.00  0.00     0.012 C 
BRANCH   6  12
HETATM   12  C   UNK N   1      30.920  23.770  -3.595  0.00  0.00     0.121 C 
BRANCH  12  13
HETATM   13  C   UNK N   1      30.972  22.851  -2.405  0.00  0.00     0.140 C 
HETATM   14  O   UNK N   1      31.749  21.910  -2.383  0.00  0.00    -0.650 OA
BRANCH  13  15
HETATM   15  O   UNK N   1      30.162  23.074  -1.354  0.00  0.00    -0.776 OA
HETATM   16  H   UNK N   1      30.403  23.691  -0.691  0.00  0.00     0.167 HD
ENDBRANCH  13  15
ENDBRANCH  12  13
ENDBRANCH   6  12
ENDBRANCH   5   6
ENDBRANCH   1   5
BRANCH   2  17
HETATM   17  O   UNK N   1      25.290  25.022  -5.356  0.00  0.00    -0.272 OA
BRANCH  17  18
HETATM   18  C   UNK N   1      25.536  25.474  -6.634  0.00  0.00     0.276 C 
HETATM   19  C   UNK N   1      26.315  26.781  -6.596  0.00  0.00     0.072 C 
BRANCH  18  20
HETATM   20  O   UNK N   1      26.200  24.512  -7.375  0.00  0.00    -0.289 OA
BRANCH  20  21
HETATM   21  C   UNK N   1      25.622  23.379  -7.862  0.00  0.00     0.264 C 
HETATM   22  O   UNK N   1      24.631  23.443  -8.577  0.00  0.00    -0.265 OA
BRANCH  21  23
HETATM   23  C   UNK N   1      26.201  22.032  -7.531  0.00  0.00     0.077 C 
HETATM   24  C   UNK N   1      27.611  21.923  -8.079  0.00  0.00     0.020 C 
HETATM   25  C   UNK N   1      25.365  20.894  -8.092  0.00  0.00     0.020 C 
ENDBRANCH  21  23
ENDBRANCH  20  21
ENDBRANCH  18  20
ENDBRANCH  17  18
ENDBRANCH   2  17
TORSDOF 10
ENDMDL
MODEL 6
REMARK VINA RESULT:      -6.0     15.407     19.767
REMARK  10 active torsions:
REMARK  status: ('A' for Active; 'I' for Inactive)
REMARK    1  A    between atoms: C_4  and  C_7 
REMARK    2  A    between atoms: C_4  and  C_8 
REMARK    3  A    between atoms: C_7  and  C_21 
REMARK    4  A    between atoms: C_8  and  N_9 
REMARK       I    between atoms: N_9  and  C_10 
REMARK    5  A    between atoms: C_10  and  O_11 
REMARK    6  A    between atoms: O_11  and  C_13 
REMARK    7  A    between atoms: C_13  and  O_14 
REMARK    8  A    between atoms: O_14  and  C_16 
REMARK    9  A    between atoms: C_16  and  C_17 
REMARK   10  A    between atoms: C_21  and  O_22 
ROOT
HETATM    1  N   UNK N   1      28.116  24.568  -4.401  0.00  0.00    -0.336 N 
HETATM    2  C   UNK N   1      26.868  24.625  -3.856  0.00  0.00     0.362 C 
HETATM    3  O   UNK N   1      26.655  24.191  -2.738  0.00  0.00    -0.238 OA
HETATM    4  H   UNK N   1      28.230  24.924  -5.311  0.00  0.00     0.164 HD
ENDROOT
BRANCH   1   5
HETATM    5  C   UNK N   1      29.288  24.023  -3.740  0.00  0.00     0.135 C 
BRANCH   5   6
HETATM    6  C   UNK N   1      30.022  22.930  -4.544  0.00  0.00    -0.015 C 
HETATM    7  C   UNK N   1      31.344  23.482  -5.112  0.00  0.00     0.012 C 
HETATM    8  C   UNK N   1      32.040  22.480  -6.028  0.00  0.00     0.001 C 
HETATM    9  C   UNK N   1      31.120  22.124  -7.188  0.00  0.00     0.000 C 
HETATM   10  C   UNK N   1      29.816  21.536  -6.659  0.00  0.00     0.001 C 
HETATM   11  C   UNK N   1      29.122  22.532  -5.725  0.00  0.00     0.012 C 
BRANCH   6  12
HETATM   12  C   UNK N   1      30.299  21.718  -3.633  0.00  0.00     0.121 C 
BRANCH  12  13
HETATM   13  C   UNK N   1      31.168  22.031  -2.446  0.00  0.00     0.140 C 
HETATM   14  O   UNK N   1      30.803  22.837  -1.607  0.00  0.00    -0.650 OA
BRANCH  13  15
HETATM   15  O   UNK N   1      32.354  21.410  -2.305  0.00  0.00    -0.776 OA
HETATM   16  H   UNK N   1      32.611  20.737  -2.903  0.00  0.00     0.167 HD
ENDBRANCH  13  15
ENDBRANCH  12  13
ENDBRANCH   6  12
ENDBRANCH   5   6
ENDBRANCH   1   5
BRANCH   2  17
HETATM   17  O   UNK N   1      25.848  25.176  -4.557  0.00  0.00    -0.272 OA
BRANCH  17  18
HETATM   18  C   UNK N   1      26.031  26.232  -5.423  0.00  0.00     0.276 C 
HETATM   19  C   UNK N   1      25.656  25.828  -6.842  0.00  0.00     0.072 C 
BRANCH  18  20
HETATM   20  O   UNK N   1      25.314  27.339  -5.007  0.00  0.00    -0.289 OA
BRANCH  20  21
HETATM   21  C   UNK N   1      25.690  28.165  -3.991  0.00  0.00     0.264 C 
HETATM   22  O   UNK N   1      25.517  27.835  -2.826  0.00  0.00    -0.265 OA
BRANCH  21  23
HETATM   23  C   UNK N   1      26.333  29.490  -4.291  0.00  0.00     0.077 C 
HETATM   24  C   UNK N   1      27.386  29.326  -5.370  0.00  0.00     0.020 C 
HETATM   25  C   UNK N   1      26.978  30.106  -3.061  0.00  0.00     0.020 C 
ENDBRANCH  21  23
ENDBRANCH  20  21
ENDBRANCH  18  20
ENDBRANCH  17  18
ENDBRANCH   2  17
TORSDOF 10
ENDMDL
MODEL 7
REMARK VINA RESULT:      -5.9      2.136      8.199
REMARK  10 active torsions:
REMARK  status: ('A' for Active; 'I' for Inactive)
REMARK    1  A    between atoms: C_4  and  C_7 
REMARK    2  A    between atoms: C_4  and  C_8 
REMARK    3  A    between atoms: C_7  and  C_21 
REMARK    4  A    between atoms: C_8  and  N_9 
REMARK       I    between atoms: N_9  and  C_10 
REMARK    5  A    between atoms: C_10  and  O_11 
REMARK    6  A    between atoms: O_11  and  C_13 
REMARK    7  A    between atoms: C_13  and  O_14 
REMARK    8  A    between atoms: O_14  and  C_16 
REMARK    9  A    between atoms: C_16  and  C_17 
REMARK   10  A    between atoms: C_21  and  O_22 
ROOT
HETATM    1  N   UNK N   1      37.020  13.947  11.963  0.00  0.00    -0.336 N 
HETATM    2  C   UNK N   1      37.054  14.469  10.705  0.00  0.00     0.362 C 
HETATM    3  O   UNK N   1      37.466  13.810   9.767  0.00  0.00    -0.238 OA
HETATM    4  H   UNK N   1      36.687  14.526  12.686  0.00  0.00     0.164 HD
ENDROOT
BRANCH   1   5
HETATM    5  C   UNK N   1      37.435  12.602  12.318  0.00  0.00     0.135 C 
BRANCH   5   6
HETATM    6  C   UNK N   1      36.572  11.935  13.408  0.00  0.00    -0.015 C 
HETATM    7  C   UNK N   1      35.521  12.929  13.939  0.00  0.00     0.012 C 
HETATM    8  C   UNK N   1      34.732  12.359  15.114  0.00  0.00     0.001 C 
HETATM    9  C   UNK N   1      35.687  12.005  16.246  0.00  0.00     0.000 C 
HETATM   10  C   UNK N   1      36.717  10.990  15.764  0.00  0.00     0.001 C 
HETATM   11  C   UNK N   1      37.500  11.551  14.572  0.00  0.00     0.012 C 
BRANCH   6  12
HETATM   12  C   UNK N   1      35.879  10.687  12.827  0.00  0.00     0.121 C 
BRANCH  12  13
HETATM   13  C   UNK N   1      34.747  11.000  11.887  0.00  0.00     0.140 C 
HETATM   14  O   UNK N   1      34.948  11.636  10.865  0.00  0.00    -0.650 OA
BRANCH  13  15
HETATM   15  O   UNK N   1      33.504  10.567  12.171  0.00  0.00    -0.776 OA
HETATM   16  H   UNK N   1      33.092  10.804  12.978  0.00  0.00     0.167 HD
ENDBRANCH  13  15
ENDBRANCH  12  13
ENDBRANCH   6  12
ENDBRANCH   5   6
ENDBRANCH   1   5
BRANCH   2  17
HETATM   17  O   UNK N   1      36.620  15.733  10.484  0.00  0.00    -0.272 OA
BRANCH  17  18
HETATM   18  C   UNK N   1      35.388  16.006   9.930  0.00  0.00     0.276 C 
HETATM   19  C   UNK N   1      34.283  15.336  10.734  0.00  0.00     0.072 C 
BRANCH  18  20
HETATM   20  O   UNK N   1      35.185  17.370   9.832  0.00  0.00    -0.289 OA
BRANCH  20  21
HETATM   21  C   UNK N   1      34.703  18.001   8.726  0.00  0.00     0.264 C 
HETATM   22  O   UNK N   1      35.183  19.064   8.357  0.00  0.00    -0.265 OA
BRANCH  21  23
HETATM   23  C   UNK N   1      33.578  17.392   7.937  0.00  0.00     0.077 C 
HETATM   24  C   UNK N   1      33.777  17.655   6.456  0.00  0.00     0.020 C 
HETATM   25  C   UNK N   1      32.223  17.936   8.356  0.00  0.00     0.020 C 
ENDBRANCH  21  23
ENDBRANCH  20  21
ENDBRANCH  18  20
ENDBRANCH  17  18
ENDBRANCH   2  17
TORSDOF 10
ENDMDL
MODEL 8
REMARK VINA RESULT:      -5.9     16.350     19.529
REMARK  10 active torsions:
REMARK  status: ('A' for Active; 'I' for Inactive)
REMARK    1  A    between atoms: C_4  and  C_7 
REMARK    2  A    between atoms: C_4  and  C_8 
REMARK    3  A    between atoms: C_7  and  C_21 
REMARK    4  A    between atoms: C_8  and  N_9 
REMARK       I    between atoms: N_9  and  C_10 
REMARK    5  A    between atoms: C_10  and  O_11 
REMARK    6  A    between atoms: O_11  and  C_13 
REMARK    7  A    between atoms: C_13  and  O_14 
REMARK    8  A    between atoms: O_14  and  C_16 
REMARK    9  A    between atoms: C_16  and  C_17 
REMARK   10  A    between atoms: C_21  and  O_22 
ROOT
HETATM    1  N   UNK N   1      27.644  25.428  -3.792  0.00  0.00    -0.336 N 
HETATM    2  C   UNK N   1      27.804  24.175  -3.280  0.00  0.00     0.362 C 
HETATM    3  O   UNK N   1      27.034  23.741  -2.442  0.00  0.00    -0.238 OA
HETATM    4  H   UNK N   1      28.300  25.733  -4.458  0.00  0.00     0.164 HD
ENDROOT
BRANCH   1   5
HETATM    5  C   UNK N   1      26.579  26.345  -3.429  0.00  0.00     0.135 C 
BRANCH   5   6
HETATM    6  C   UNK N   1      26.486  27.599  -4.323  0.00  0.00    -0.015 C 
HETATM    7  C   UNK N   1      27.770  27.753  -5.162  0.00  0.00     0.012 C 
HETATM    8  C   UNK N   1      27.783  29.052  -5.962  0.00  0.00     0.001 C 
HETATM    9  C   UNK N   1      27.673  30.237  -5.012  0.00  0.00     0.000 C 
HETATM   10  C   UNK N   1      26.390  30.136  -4.195  0.00  0.00     0.001 C 
HETATM   11  C   UNK N   1      26.364  28.824  -3.403  0.00  0.00     0.012 C 
BRANCH   6  12
HETATM   12  C   UNK N   1      25.258  27.484  -5.248  0.00  0.00     0.121 C 
BRANCH  12  13
HETATM   13  C   UNK N   1      25.323  26.330  -6.211  0.00  0.00     0.140 C 
HETATM   14  O   UNK N   1      25.078  25.196  -5.835  0.00  0.00    -0.650 OA
BRANCH  13  15
HETATM   15  O   UNK N   1      25.645  26.553  -7.498  0.00  0.00    -0.776 OA
HETATM   16  H   UNK N   1      26.216  27.258  -7.729  0.00  0.00     0.167 HD
ENDBRANCH  13  15
ENDBRANCH  12  13
ENDBRANCH   6  12
ENDBRANCH   5   6
ENDBRANCH   1   5
BRANCH   2  17
HETATM   17  O   UNK N   1      28.825  23.394  -3.707  0.00  0.00    -0.272 OA
BRANCH  17  18
HETATM   18  C   UNK N   1      29.782  22.895  -2.850  0.00  0.00     0.276 C 
HETATM   19  C   UNK N   1      30.286  21.546  -3.343  0.00  0.00     0.072 C 
BRANCH  18  20
HETATM   20  O   UNK N   1      30.821  23.796  -2.697  0.00  0.00    -0.289 OA
BRANCH  20  21
HETATM   21  C   UNK N   1      31.038  24.868  -3.508  0.00  0.00     0.264 C 
HETATM   22  O   UNK N   1      30.760  25.999  -3.133  0.00  0.00    -0.265 OA
BRANCH  21  23
HETATM   23  C   UNK N   1      31.634  24.675  -4.875  0.00  0.00     0.077 C 
HETATM   24  C   UNK N   1      32.833  23.750  -4.795  0.00  0.00     0.020 C 
HETATM   25  C   UNK N   1      32.065  25.989  -5.504  0.00  0.00     0.020 C 
ENDBRANCH  21  23
ENDBRANCH  20  21
ENDBRANCH  18  20
ENDBRANCH  17  18
ENDBRANCH   2  17
TORSDOF 10
ENDMDL
MODEL 9
REMARK VINA RESULT:      -5.9     15.993     18.798
REMARK  10 active torsions:
REMARK  status: ('A' for Active; 'I' for Inactive)
REMARK    1  A    between atoms: C_4  and  C_7 
REMARK    2  A    between atoms: C_4  and  C_8 
REMARK    3  A    between atoms: C_7  and  C_21 
REMARK    4  A    between atoms: C_8  and  N_9 
REMARK       I    between atoms: N_9  and  C_10 
REMARK    5  A    between atoms: C_10  and  O_11 
REMARK    6  A    between atoms: O_11  and  C_13 
REMARK    7  A    between atoms: C_13  and  O_14 
REMARK    8  A    between atoms: O_14  and  C_16 
REMARK    9  A    between atoms: C_16  and  C_17 
REMARK   10  A    between atoms: C_21  and  O_22 
ROOT
HETATM    1  N   UNK N   1      28.248  23.970  -3.457  0.00  0.00    -0.336 N 
HETATM    2  C   UNK N   1      28.762  23.322  -2.375  0.00  0.00     0.362 C 
HETATM    3  O   UNK N   1      28.056  23.043  -1.422  0.00  0.00    -0.238 OA
HETATM    4  H   UNK N   1      28.865  24.181  -4.195  0.00  0.00     0.164 HD
ENDROOT
BRANCH   1   5
HETATM    5  C   UNK N   1      26.862  24.374  -3.605  0.00  0.00     0.135 C 
BRANCH   5   6
HETATM    6  C   UNK N   1      26.652  25.622  -4.487  0.00  0.00    -0.015 C 
HETATM    7  C   UNK N   1      27.998  26.099  -5.066  0.00  0.00     0.012 C 
HETATM    8  C   UNK N   1      27.861  27.410  -5.835  0.00  0.00     0.001 C 
HETATM    9  C   UNK N   1      27.316  28.490  -4.909  0.00  0.00     0.000 C 
HETATM   10  C   UNK N   1      25.962  28.065  -4.351  0.00  0.00     0.001 C 
HETATM   11  C   UNK N   1      26.090  26.739  -3.593  0.00  0.00     0.012 C 
BRANCH   6  12
HETATM   12  C   UNK N   1      25.670  25.289  -5.628  0.00  0.00     0.121 C 
BRANCH  12  13
HETATM   13  C   UNK N   1      25.964  23.990  -6.327  0.00  0.00     0.140 C 
HETATM   14  O   UNK N   1      25.231  23.027  -6.177  0.00  0.00    -0.650 OA
BRANCH  13  15
HETATM   15  O   UNK N   1      27.038  23.893  -7.131  0.00  0.00    -0.776 OA
HETATM   16  H   UNK N   1      27.165  23.134  -7.665  0.00  0.00     0.167 HD
ENDBRANCH  13  15
ENDBRANCH  12  13
ENDBRANCH   6  12
ENDBRANCH   5   6
ENDBRANCH   1   5
BRANCH   2  17
HETATM   17  O   UNK N   1      30.071  22.973  -2.352  0.00  0.00    -0.272 OA
BRANCH  17  18
HETATM   18  C   UNK N   1      30.743  22.550  -3.479  0.00  0.00     0.276 C 
HETATM   19  C   UNK N   1      32.130  22.043  -3.112  0.00  0.00     0.072 C 
BRANCH  18  20
HETATM   20  O   UNK N   1      30.015  21.586  -4.151  0.00  0.00    -0.289 OA
BRANCH  20  21
HETATM   21  C   UNK N   1      29.816  21.570  -5.499  0.00  0.00     0.264 C 
HETATM   22  O   UNK N   1      29.297  22.524  -6.062  0.00  0.00    -0.265 OA
BRANCH  21  23
HETATM   23  C   UNK N   1      30.243  20.380  -6.313  0.00  0.00     0.077 C 
HETATM   24  C   UNK N   1      31.691  20.532  -6.738  0.00  0.00     0.020 C 
HETATM   25  C   UNK N   1      29.382  20.195  -7.551  0.00  0.00     0.020 C 
ENDBRANCH  21  23
ENDBRANCH  20  21
ENDBRANCH  18  20
ENDBRANCH  17  18
ENDBRANCH   2  17
TORSDOF 10
ENDMDL
