MODEL 1
REMARK VINA RESULT:      -8.1      0.000      0.000
REMARK  9 active torsions:
REMARK  status: ('A' for Active; 'I' for Inactive)
REMARK    1  A    between atoms: O_1  and  C_11 
REMARK    2  A    between atoms: O_2  and  C_15 
REMARK    3  A    between atoms: O_2  and  C_24 
REMARK    4  A    between atoms: N_3  and  C_12 
REMARK    5  A    between atoms: C_4  and  C_11 
REMARK    6  A    between atoms: C_11  and  C_13 
REMARK    7  A    between atoms: C_11  and  C_14 
REMARK    8  A    between atoms: C_12  and  C_15 
REMARK    9  A    between atoms: C_24  and  C_27 
ROOT
HETATM    1  N   UNK N   1      35.100  14.554   9.750  0.00  0.00    -0.065 N 
HETATM    2  C   UNK N   1      33.762  16.126   8.150  0.00  0.00     0.004 C 
HETATM    3  C   UNK N   1      34.915  15.410   7.426  0.00  0.00     0.041 C 
HETATM    4  C   UNK N   1      32.859  15.041   8.776  0.00  0.00     0.041 C 
HETATM    5  C   UNK N   1      34.423  16.914   9.305  0.00  0.00     0.041 C 
HETATM    6  C   UNK N   1      35.618  14.437   8.377  0.00  0.00     0.238 C 
HETATM    7  C   UNK N   1      33.680  14.162   9.744  0.00  0.00     0.238 C 
HETATM    8  C   UNK N   1      35.208  15.947  10.230  0.00  0.00     0.238 C 
ENDROOT
BRANCH   2   9
HETATM    9  C   UNK N   1      32.962  17.053   7.159  0.00  0.00     0.120 C 
BRANCH   9  10
HETATM   10  O   UNK N   1      33.658  18.263   7.042  0.00  0.00    -0.379 OA
HETATM   11  H   UNK N   1      34.315  18.966   6.917  0.00  0.00     0.211 HD
ENDBRANCH   9  10
BRANCH   9  12
HETATM   12  C   UNK N   1      31.549  17.406   7.650  0.00  0.00    -0.019 A 
HETATM   13  C   UNK N   1      31.407  18.280   8.745  0.00  0.00     0.010 A 
HETATM   14  C   UNK N   1      30.142  18.625   9.224  0.00  0.00     0.001 A 
HETATM   15  C   UNK N   1      28.999  18.101   8.619  0.00  0.00     0.000 A 
HETATM   16  C   UNK N   1      29.121  17.228   7.537  0.00  0.00     0.001 A 
HETATM   17  C   UNK N   1      30.387  16.882   7.055  0.00  0.00     0.010 A 
ENDBRANCH   9  12
BRANCH   9  18
HETATM   18  C   UNK N   1      32.902  16.401   5.762  0.00  0.00    -0.019 A 
HETATM   19  C   UNK N   1      33.149  17.174   4.611  0.00  0.00     0.010 A 
HETATM   20  C   UNK N   1      33.113  16.600   3.339  0.00  0.00     0.001 A 
HETATM   21  C   UNK N   1      32.829  15.243   3.193  0.00  0.00     0.000 A 
HETATM   22  C   UNK N   1      32.576  14.459   4.321  0.00  0.00     0.001 A 
HETATM   23  C   UNK N   1      32.611  15.033   5.596  0.00  0.00     0.010 A 
ENDBRANCH   9  18
ENDBRANCH   2   9
BRANCH   1  24
HETATM   24  C   UNK N   1      35.803  13.612  10.630  0.00  0.00     0.263 C 
BRANCH  24  25
HETATM   25  C   UNK N   1      36.181  14.136  12.037  0.00  0.00     0.196 C 
BRANCH  25  26
HETATM   26  O   UNK N   1      35.415  13.604  13.091  0.00  0.00    -0.385 OA
BRANCH  26  27
HETATM   27  C   UNK N   1      36.304  13.061  14.035  0.00  0.00     0.206 C 
BRANCH  27  28
HETATM   28  C   UNK N   1      36.335  13.795  15.333  0.00  0.00    -0.035 A 
HETATM   29  C   UNK N   1      37.167  14.903  15.539  0.00  0.00     0.009 A 
HETATM   30  C   UNK N   1      37.149  15.570  16.768  0.00  0.00     0.001 A 
HETATM   31  C   UNK N   1      36.305  15.129  17.792  0.00  0.00     0.000 A 
HETATM   32  C   UNK N   1      35.478  14.021  17.589  0.00  0.00     0.001 A 
HETATM   33  C   UNK N   1      35.492  13.359  16.360  0.00  0.00     0.009 A 
ENDBRANCH  27  28
ENDBRANCH  26  27
ENDBRANCH  25  26
ENDBRANCH  24  25
ENDBRANCH   1  24
TORSDOF 9
ENDMDL
MODEL 2
REMARK VINA RESULT:      -8.0      0.924      1.921
REMARK  9 active torsions:
REMARK  status: ('A' for Active; 'I' for Inactive)
REMARK    1  A    between atoms: O_1  and  C_11 
REMARK    2  A    between atoms: O_2  and  C_15 
REMARK    3  A    between atoms: O_2  and  C_24 
REMARK    4  A    between atoms: N_3  and  C_12 
REMARK    5  A    between atoms: C_4  and  C_11 
REMARK    6  A    between atoms: C_11  and  C_13 
REMARK    7  A    between atoms: C_11  and  C_14 
REMARK    8  A    between atoms: C_12  and  C_15 
REMARK    9  A    between atoms: C_24  and  C_27 
ROOT
HETATM    1  N   UNK N   1      35.212  14.758   9.965  0.00  0.00    -0.065 N 
HETATM    2  C   UNK N   1      33.898  16.172   8.206  0.00  0.00     0.004 C 
HETATM    3  C   UNK N   1      32.989  15.171   8.940  0.00  0.00     0.041 C 
HETATM    4  C   UNK N   1      34.567  17.063   9.274  0.00  0.00     0.041 C 
HETATM    5  C   UNK N   1      35.003  15.318   7.543  0.00  0.00     0.041 C 
HETATM    6  C   UNK N   1      33.779  14.425  10.019  0.00  0.00     0.238 C 
HETATM    7  C   UNK N   1      35.366  16.191  10.267  0.00  0.00     0.238 C 
HETATM    8  C   UNK N   1      35.758  14.493   8.618  0.00  0.00     0.238 C 
ENDROOT
BRANCH   2   9
HETATM    9  C   UNK N   1      33.076  17.022   7.164  0.00  0.00     0.120 C 
BRANCH   9  10
HETATM   10  O   UNK N   1      33.769  18.218   6.941  0.00  0.00    -0.379 OA
HETATM   11  H   UNK N   1      34.356  18.990   6.976  0.00  0.00     0.211 HD
ENDBRANCH   9  10
BRANCH   9  12
HETATM   12  C   UNK N   1      31.675  17.413   7.658  0.00  0.00    -0.019 A 
HETATM   13  C   UNK N   1      30.548  16.862   7.017  0.00  0.00     0.010 A 
HETATM   14  C   UNK N   1      29.256  17.192   7.432  0.00  0.00     0.001 A 
HETATM   15  C   UNK N   1      29.069  18.080   8.492  0.00  0.00     0.000 A 
HETATM   16  C   UNK N   1      30.174  18.641   9.135  0.00  0.00     0.001 A 
HETATM   17  C   UNK N   1      31.468  18.311   8.721  0.00  0.00     0.010 A 
ENDBRANCH   9  12
BRANCH   9  18
HETATM   18  C   UNK N   1      32.987  16.265   5.823  0.00  0.00    -0.019 A 
HETATM   19  C   UNK N   1      33.263  16.935   4.615  0.00  0.00     0.010 A 
HETATM   20  C   UNK N   1      33.201  16.266   3.392  0.00  0.00     0.001 A 
HETATM   21  C   UNK N   1      32.859  14.914   3.352  0.00  0.00     0.000 A 
HETATM   22  C   UNK N   1      32.576  14.233   4.537  0.00  0.00     0.001 A 
HETATM   23  C   UNK N   1      32.638  14.902   5.763  0.00  0.00     0.010 A 
ENDBRANCH   9  18
ENDBRANCH   2   9
BRANCH   1  24
HETATM   24  C   UNK N   1      35.935  14.019  11.008  0.00  0.00     0.263 C 
BRANCH  24  25
HETATM   25  C   UNK N   1      35.068  13.216  12.008  0.00  0.00     0.196 C 
BRANCH  25  26
HETATM   26  O   UNK N   1      35.047  13.730  13.318  0.00  0.00    -0.385 OA
BRANCH  26  27
HETATM   27  C   UNK N   1      36.223  13.311  13.962  0.00  0.00     0.206 C 
BRANCH  27  28
HETATM   28  C   UNK N   1      35.994  12.669  15.289  0.00  0.00    -0.035 A 
HETATM   29  C   UNK N   1      35.309  13.323  16.321  0.00  0.00     0.009 A 
HETATM   30  C   UNK N   1      35.103  12.674  17.542  0.00  0.00     0.001 A 
HETATM   31  C   UNK N   1      35.584  11.376  17.736  0.00  0.00     0.000 A 
HETATM   32  C   UNK N   1      36.272  10.725  16.709  0.00  0.00     0.001 A 
HETATM   33  C   UNK N   1      36.473  11.370  15.487  0.00  0.00     0.009 A 
ENDBRANCH  27  28
ENDBRANCH  26  27
ENDBRANCH  25  26
ENDBRANCH  24  25
ENDBRANCH   1  24
TORSDOF 9
ENDMDL
MODEL 3
REMARK VINA RESULT:      -7.9      1.133      3.521
REMARK  9 active torsions:
REMARK  status: ('A' for Active; 'I' for Inactive)
REMARK    1  A    between atoms: O_1  and  C_11 
REMARK    2  A    between atoms: O_2  and  C_15 
REMARK    3  A    between atoms: O_2  and  C_24 
REMARK    4  A    between atoms: N_3  and  C_12 
REMARK    5  A    between atoms: C_4  and  C_11 
REMARK    6  A    between atoms: C_11  and  C_13 
REMARK    7  A    between atoms: C_11  and  C_14 
REMARK    8  A    between atoms: C_12  and  C_15 
REMARK    9  A    between atoms: C_24  and  C_27 
ROOT
HETATM    1  N   UNK N   1      35.041  15.572   9.829  0.00  0.00    -0.065 N 
HETATM    2  C   UNK N   1      33.037  15.736   8.162  0.00  0.00     0.004 C 
HETATM    3  C   UNK N   1      34.215  14.940   7.574  0.00  0.00     0.041 C 
HETATM    4  C   UNK N   1      32.629  15.053   9.486  0.00  0.00     0.041 C 
HETATM    5  C   UNK N   1      33.610  17.130   8.506  0.00  0.00     0.041 C 
HETATM    6  C   UNK N   1      35.332  14.796   8.613  0.00  0.00     0.238 C 
HETATM    7  C   UNK N   1      33.830  15.015  10.455  0.00  0.00     0.238 C 
HETATM    8  C   UNK N   1      34.797  16.990   9.496  0.00  0.00     0.238 C 
ENDROOT
BRANCH   2   9
HETATM    9  C   UNK N   1      31.838  15.803   7.143  0.00  0.00     0.120 C 
BRANCH   9  10
HETATM   10  O   UNK N   1      31.234  14.540   7.102  0.00  0.00    -0.379 OA
HETATM   11  H   UNK N   1      30.773  13.721   6.861  0.00  0.00     0.211 HD
ENDBRANCH   9  10
BRANCH   9  12
HETATM   12  C   UNK N   1      32.269  16.129   5.705  0.00  0.00    -0.019 A 
HETATM   13  C   UNK N   1      32.307  15.092   4.753  0.00  0.00     0.010 A 
HETATM   14  C   UNK N   1      32.695  15.344   3.436  0.00  0.00     0.001 A 
HETATM   15  C   UNK N   1      33.055  16.636   3.049  0.00  0.00     0.000 A 
HETATM   16  C   UNK N   1      33.030  17.675   3.981  0.00  0.00     0.001 A 
HETATM   17  C   UNK N   1      32.642  17.424   5.300  0.00  0.00     0.010 A 
ENDBRANCH   9  12
BRANCH   9  18
HETATM   18  C   UNK N   1      30.786  16.819   7.636  0.00  0.00    -0.019 A 
HETATM   19  C   UNK N   1      29.491  16.817   7.084  0.00  0.00     0.010 A 
HETATM   20  C   UNK N   1      28.520  17.719   7.525  0.00  0.00     0.001 A 
HETATM   21  C   UNK N   1      28.828  18.640   8.526  0.00  0.00     0.000 A 
HETATM   22  C   UNK N   1      30.108  18.662   9.083  0.00  0.00     0.001 A 
HETATM   23  C   UNK N   1      31.080  17.760   8.642  0.00  0.00     0.010 A 
ENDBRANCH   9  18
ENDBRANCH   2   9
BRANCH   1  24
HETATM   24  C   UNK N   1      36.136  15.414  10.795  0.00  0.00     0.263 C 
BRANCH  24  25
HETATM   25  C   UNK N   1      35.763  14.783  12.159  0.00  0.00     0.196 C 
BRANCH  25  26
HETATM   26  O   UNK N   1      36.799  14.059  12.779  0.00  0.00    -0.385 OA
BRANCH  26  27
HETATM   27  C   UNK N   1      36.213  13.183  13.708  0.00  0.00     0.206 C 
BRANCH  27  28
HETATM   28  C   UNK N   1      36.188  13.706  15.105  0.00  0.00    -0.035 A 
HETATM   29  C   UNK N   1      37.052  14.723  15.531  0.00  0.00     0.009 A 
HETATM   30  C   UNK N   1      36.981  15.193  16.846  0.00  0.00     0.001 A 
HETATM   31  C   UNK N   1      36.052  14.646  17.736  0.00  0.00     0.000 A 
HETATM   32  C   UNK N   1      35.193  13.628  17.313  0.00  0.00     0.001 A 
HETATM   33  C   UNK N   1      35.260  13.163  15.999  0.00  0.00     0.009 A 
ENDBRANCH  27  28
ENDBRANCH  26  27
ENDBRANCH  25  26
ENDBRANCH  24  25
ENDBRANCH   1  24
TORSDOF 9
ENDMDL
MODEL 4
REMARK VINA RESULT:      -7.8      6.353      9.764
REMARK  9 active torsions:
REMARK  status: ('A' for Active; 'I' for Inactive)
REMARK    1  A    between atoms: O_1  and  C_11 
REMARK    2  A    between atoms: O_2  and  C_15 
REMARK    3  A    between atoms: O_2  and  C_24 
REMARK    4  A    between atoms: N_3  and  C_12 
REMARK    5  A    between atoms: C_4  and  C_11 
REMARK    6  A    between atoms: C_11  and  C_13 
REMARK    7  A    between atoms: C_11  and  C_14 
REMARK    8  A    between atoms: C_12  and  C_15 
REMARK    9  A    between atoms: C_24  and  C_27 
ROOT
HETATM    1  N   UNK N   1      26.131  14.229   4.992  0.00  0.00    -0.065 N 
HETATM    2  C   UNK N   1      27.810  16.213   4.743  0.00  0.00     0.004 C 
HETATM    3  C   UNK N   1      26.916  16.053   3.502  0.00  0.00     0.041 C 
HETATM    4  C   UNK N   1      26.883  16.396   5.965  0.00  0.00     0.041 C 
HETATM    5  C   UNK N   1      28.542  14.861   4.904  0.00  0.00     0.041 C 
HETATM    6  C   UNK N   1      25.892  14.936   3.724  0.00  0.00     0.238 C 
HETATM    7  C   UNK N   1      25.937  15.183   6.098  0.00  0.00     0.238 C 
HETATM    8  C   UNK N   1      27.513  13.710   5.047  0.00  0.00     0.238 C 
ENDROOT
BRANCH   2   9
HETATM    9  C   UNK N   1      28.800  17.427   4.573  0.00  0.00     0.120 C 
BRANCH   9  10
HETATM   10  O   UNK N   1      29.165  17.500   3.223  0.00  0.00    -0.379 OA
HETATM   11  H   UNK N   1      29.216  17.646   2.265  0.00  0.00     0.211 HD
ENDBRANCH   9  10
BRANCH   9  12
HETATM   12  C   UNK N   1      30.104  17.275   5.371  0.00  0.00    -0.019 A 
HETATM   13  C   UNK N   1      31.334  17.389   4.696  0.00  0.00     0.010 A 
HETATM   14  C   UNK N   1      32.543  17.255   5.383  0.00  0.00     0.001 A 
HETATM   15  C   UNK N   1      32.541  17.003   6.756  0.00  0.00     0.000 A 
HETATM   16  C   UNK N   1      31.331  16.881   7.441  0.00  0.00     0.001 A 
HETATM   17  C   UNK N   1      30.121  17.014   6.754  0.00  0.00     0.010 A 
ENDBRANCH   9  12
BRANCH   9  18
HETATM   18  C   UNK N   1      28.087  18.743   4.946  0.00  0.00    -0.019 A 
HETATM   19  C   UNK N   1      27.362  19.453   3.970  0.00  0.00     0.010 A 
HETATM   20  C   UNK N   1      26.698  20.640   4.289  0.00  0.00     0.001 A 
HETATM   21  C   UNK N   1      26.748  21.138   5.591  0.00  0.00     0.000 A 
HETATM   22  C   UNK N   1      27.466  20.452   6.572  0.00  0.00     0.001 A 
HETATM   23  C   UNK N   1      28.131  19.265   6.253  0.00  0.00     0.010 A 
ENDBRANCH   9  18
ENDBRANCH   2   9
BRANCH   1  24
HETATM   24  C   UNK N   1      25.135  13.163   5.165  0.00  0.00     0.263 C 
BRANCH  24  25
HETATM   25  C   UNK N   1      24.161  13.319   6.358  0.00  0.00     0.196 C 
BRANCH  25  26
HETATM   26  O   UNK N   1      24.278  12.328   7.350  0.00  0.00    -0.385 OA
BRANCH  26  27
HETATM   27  C   UNK N   1      24.594  12.969   8.560  0.00  0.00     0.206 C 
BRANCH  27  28
HETATM   28  C   UNK N   1      23.670  12.638   9.683  0.00  0.00    -0.035 A 
HETATM   29  C   UNK N   1      24.133  12.101  10.891  0.00  0.00     0.009 A 
HETATM   30  C   UNK N   1      23.230  11.822  11.922  0.00  0.00     0.001 A 
HETATM   31  C   UNK N   1      21.866  12.075  11.747  0.00  0.00     0.000 A 
HETATM   32  C   UNK N   1      21.403  12.605  10.540  0.00  0.00     0.001 A 
HETATM   33  C   UNK N   1      22.304  12.889   9.513  0.00  0.00     0.009 A 
ENDBRANCH  27  28
ENDBRANCH  26  27
ENDBRANCH  25  26
ENDBRANCH  24  25
ENDBRANCH   1  24
TORSDOF 9
ENDMDL
MODEL 5
REMARK VINA RESULT:      -7.8      5.352      7.663
REMARK  9 active torsions:
REMARK  status: ('A' for Active; 'I' for Inactive)
REMARK    1  A    between atoms: O_1  and  C_11 
REMARK    2  A    between atoms: O_2  and  C_15 
REMARK    3  A    between atoms: O_2  and  C_24 
REMARK    4  A    between atoms: N_3  and  C_12 
REMARK    5  A    between atoms: C_4  and  C_11 
REMARK    6  A    between atoms: C_11  and  C_13 
REMARK    7  A    between atoms: C_11  and  C_14 
REMARK    8  A    between atoms: C_12  and  C_15 
REMARK    9  A    between atoms: C_24  and  C_27 
ROOT
HETATM    1  N   UNK N   1      31.167  15.737   3.569  0.00  0.00    -0.065 N 
HETATM    2  C   UNK N   1      28.938  16.558   4.655  0.00  0.00     0.004 C 
HETATM    3  C   UNK N   1      30.114  17.500   4.965  0.00  0.00     0.041 C 
HETATM    4  C   UNK N   1      28.822  16.448   3.119  0.00  0.00     0.041 C 
HETATM    5  C   UNK N   1      29.363  15.174   5.197  0.00  0.00     0.041 C 
HETATM    6  C   UNK N   1      31.379  17.030   4.241  0.00  0.00     0.238 C 
HETATM    7  C   UNK N   1      30.145  15.921   2.524  0.00  0.00     0.238 C 
HETATM    8  C   UNK N   1      30.689  14.723   4.530  0.00  0.00     0.238 C 
ENDROOT
BRANCH   2   9
HETATM    9  C   UNK N   1      27.605  17.085   5.307  0.00  0.00     0.120 C 
BRANCH   9  10
HETATM   10  O   UNK N   1      26.680  16.033   5.312  0.00  0.00    -0.379 OA
HETATM   11  H   UNK N   1      26.033  15.346   5.536  0.00  0.00     0.211 HD
ENDBRANCH   9  10
BRANCH   9  12
HETATM   12  C   UNK N   1      26.952  18.238   4.528  0.00  0.00    -0.019 A 
HETATM   13  C   UNK N   1      25.610  18.112   4.121  0.00  0.00     0.010 A 
HETATM   14  C   UNK N   1      24.979  19.135   3.410  0.00  0.00     0.001 A 
HETATM   15  C   UNK N   1      25.681  20.298   3.091  0.00  0.00     0.000 A 
HETATM   16  C   UNK N   1      27.014  20.438   3.480  0.00  0.00     0.001 A 
HETATM   17  C   UNK N   1      27.647  19.415   4.192  0.00  0.00     0.010 A 
ENDBRANCH   9  12
BRANCH   9  18
HETATM   18  C   UNK N   1      27.864  17.499   6.771  0.00  0.00    -0.019 A 
HETATM   19  C   UNK N   1      28.322  18.798   7.066  0.00  0.00     0.010 A 
HETATM   20  C   UNK N   1      28.550  19.197   8.384  0.00  0.00     0.001 A 
HETATM   21  C   UNK N   1      28.326  18.305   9.432  0.00  0.00     0.000 A 
HETATM   22  C   UNK N   1      27.877  17.011   9.161  0.00  0.00     0.001 A 
HETATM   23  C   UNK N   1      27.648  16.610   7.841  0.00  0.00     0.010 A 
ENDBRANCH   9  18
ENDBRANCH   2   9
BRANCH   1  24
HETATM   24  C   UNK N   1      32.402  15.318   2.893  0.00  0.00     0.263 C 
BRANCH  24  25
HETATM   25  C   UNK N   1      33.476  14.643   3.781  0.00  0.00     0.196 C 
BRANCH  25  26
HETATM   26  O   UNK N   1      34.258  15.532   4.543  0.00  0.00    -0.385 OA
BRANCH  26  27
HETATM   27  C   UNK N   1      34.209  15.106   5.881  0.00  0.00     0.206 C 
BRANCH  27  28
HETATM   28  C   UNK N   1      33.488  16.042   6.791  0.00  0.00    -0.035 A 
HETATM   29  C   UNK N   1      33.935  17.351   7.014  0.00  0.00     0.009 A 
HETATM   30  C   UNK N   1      33.217  18.199   7.863  0.00  0.00     0.001 A 
HETATM   31  C   UNK N   1      32.055  17.740   8.492  0.00  0.00     0.000 A 
HETATM   32  C   UNK N   1      31.611  16.433   8.275  0.00  0.00     0.001 A 
HETATM   33  C   UNK N   1      32.325  15.589   7.423  0.00  0.00     0.009 A 
ENDBRANCH  27  28
ENDBRANCH  26  27
ENDBRANCH  25  26
ENDBRANCH  24  25
ENDBRANCH   1  24
TORSDOF 9
ENDMDL
MODEL 6
REMARK VINA RESULT:      -7.6      5.983      8.677
REMARK  9 active torsions:
REMARK  status: ('A' for Active; 'I' for Inactive)
REMARK    1  A    between atoms: O_1  and  C_11 
REMARK    2  A    between atoms: O_2  and  C_15 
REMARK    3  A    between atoms: O_2  and  C_24 
REMARK    4  A    between atoms: N_3  and  C_12 
REMARK    5  A    between atoms: C_4  and  C_11 
REMARK    6  A    between atoms: C_11  and  C_13 
REMARK    7  A    between atoms: C_11  and  C_14 
REMARK    8  A    between atoms: C_12  and  C_15 
REMARK    9  A    between atoms: C_24  and  C_27 
ROOT
HETATM    1  N   UNK N   1      29.431  13.836   3.754  0.00  0.00    -0.065 N 
HETATM    2  C   UNK N   1      28.283  15.754   5.104  0.00  0.00     0.004 C 
HETATM    3  C   UNK N   1      29.484  15.156   5.857  0.00  0.00     0.041 C 
HETATM    4  C   UNK N   1      28.792  16.243   3.731  0.00  0.00     0.041 C 
HETATM    5  C   UNK N   1      27.319  14.572   4.857  0.00  0.00     0.041 C 
HETATM    6  C   UNK N   1      30.178  14.096   4.996  0.00  0.00     0.238 C 
HETATM    7  C   UNK N   1      29.424  15.071   2.951  0.00  0.00     0.238 C 
HETATM    8  C   UNK N   1      28.037  13.454   4.055  0.00  0.00     0.238 C 
ENDROOT
BRANCH   2   9
HETATM    9  C   UNK N   1      27.622  16.919   5.933  0.00  0.00     0.120 C 
BRANCH   9  10
HETATM   10  O   UNK N   1      26.434  16.430   6.492  0.00  0.00    -0.379 OA
HETATM   11  H   UNK N   1      25.525  16.281   6.796  0.00  0.00     0.211 HD
ENDBRANCH   9  10
BRANCH   9  12
HETATM   12  C   UNK N   1      27.235  18.138   5.082  0.00  0.00    -0.019 A 
HETATM   13  C   UNK N   1      26.074  18.075   4.287  0.00  0.00     0.010 A 
HETATM   14  C   UNK N   1      25.688  19.159   3.497  0.00  0.00     0.001 A 
HETATM   15  C   UNK N   1      26.457  20.323   3.485  0.00  0.00     0.000 A 
HETATM   16  C   UNK N   1      27.615  20.402   4.261  0.00  0.00     0.001 A 
HETATM   17  C   UNK N   1      28.003  19.317   5.053  0.00  0.00     0.010 A 
ENDBRANCH   9  12
BRANCH   9  18
HETATM   18  C   UNK N   1      28.555  17.338   7.087  0.00  0.00    -0.019 A 
HETATM   19  C   UNK N   1      28.031  17.553   8.377  0.00  0.00     0.010 A 
HETATM   20  C   UNK N   1      28.861  17.920   9.438  0.00  0.00     0.001 A 
HETATM   21  C   UNK N   1      30.230  18.081   9.230  0.00  0.00     0.000 A 
HETATM   22  C   UNK N   1      30.769  17.879   7.958  0.00  0.00     0.001 A 
HETATM   23  C   UNK N   1      29.940  17.511   6.894  0.00  0.00     0.010 A 
ENDBRANCH   9  18
ENDBRANCH   2   9
BRANCH   1  24
HETATM   24  C   UNK N   1      30.124  12.811   2.961  0.00  0.00     0.263 C 
BRANCH  24  25
HETATM   25  C   UNK N   1      31.390  13.272   2.198  0.00  0.00     0.196 C 
BRANCH  25  26
HETATM   26  O   UNK N   1      32.594  13.140   2.915  0.00  0.00    -0.385 OA
BRANCH  26  27
HETATM   27  C   UNK N   1      33.429  14.210   2.551  0.00  0.00     0.206 C 
BRANCH  27  28
HETATM   28  C   UNK N   1      33.356  15.379   3.474  0.00  0.00    -0.035 A 
HETATM   29  C   UNK N   1      32.667  16.551   3.133  0.00  0.00     0.009 A 
HETATM   30  C   UNK N   1      32.611  17.616   4.038  0.00  0.00     0.001 A 
HETATM   31  C   UNK N   1      33.247  17.514   5.279  0.00  0.00     0.000 A 
HETATM   32  C   UNK N   1      33.938  16.348   5.618  0.00  0.00     0.001 A 
HETATM   33  C   UNK N   1      33.989  15.283   4.717  0.00  0.00     0.009 A 
ENDBRANCH  27  28
ENDBRANCH  26  27
ENDBRANCH  25  26
ENDBRANCH  24  25
ENDBRANCH   1  24
TORSDOF 9
ENDMDL
MODEL 7
REMARK VINA RESULT:      -7.5      2.004      9.696
REMARK  9 active torsions:
REMARK  status: ('A' for Active; 'I' for Inactive)
REMARK    1  A    between atoms: O_1  and  C_11 
REMARK    2  A    between atoms: O_2  and  C_15 
REMARK    3  A    between atoms: O_2  and  C_24 
REMARK    4  A    between atoms: N_3  and  C_12 
REMARK    5  A    between atoms: C_4  and  C_11 
REMARK    6  A    between atoms: C_11  and  C_13 
REMARK    7  A    between atoms: C_11  and  C_14 
REMARK    8  A    between atoms: C_12  and  C_15 
REMARK    9  A    between atoms: C_24  and  C_27 
ROOT
HETATM    1  N   UNK N   1      35.978  13.604  10.404  0.00  0.00    -0.065 N 
HETATM    2  C   UNK N   1      35.651  12.807  12.869  0.00  0.00     0.004 C 
HETATM    3  C   UNK N   1      35.125  14.235  12.649  0.00  0.00     0.041 C 
HETATM    4  C   UNK N   1      34.925  11.884  11.867  0.00  0.00     0.041 C 
HETATM    5  C   UNK N   1      37.145  12.850  12.475  0.00  0.00     0.041 C 
HETATM    6  C   UNK N   1      35.258  14.631  11.175  0.00  0.00     0.238 C 
HETATM    7  C   UNK N   1      35.179  12.367  10.423  0.00  0.00     0.238 C 
HETATM    8  C   UNK N   1      37.297  13.329  11.007  0.00  0.00     0.238 C 
ENDROOT
BRANCH   2   9
HETATM    9  C   UNK N   1      35.426  12.346  14.359  0.00  0.00     0.120 C 
BRANCH   9  10
HETATM   10  O   UNK N   1      34.049  12.178  14.555  0.00  0.00    -0.379 OA
HETATM   11  H   UNK N   1      33.081  12.240  14.557  0.00  0.00     0.211 HD
ENDBRANCH   9  10
BRANCH   9  12
HETATM   12  C   UNK N   1      35.893  13.376  15.399  0.00  0.00    -0.019 A 
HETATM   13  C   UNK N   1      35.291  13.381  16.672  0.00  0.00     0.010 A 
HETATM   14  C   UNK N   1      35.684  14.301  17.646  0.00  0.00     0.001 A 
HETATM   15  C   UNK N   1      36.684  15.232  17.363  0.00  0.00     0.000 A 
HETATM   16  C   UNK N   1      37.289  15.246  16.105  0.00  0.00     0.001 A 
HETATM   17  C   UNK N   1      36.896  14.326  15.129  0.00  0.00     0.010 A 
ENDBRANCH   9  12
BRANCH   9  18
HETATM   18  C   UNK N   1      36.112  10.985  14.597  0.00  0.00    -0.019 A 
HETATM   19  C   UNK N   1      37.510  10.919  14.756  0.00  0.00     0.010 A 
HETATM   20  C   UNK N   1      38.149   9.699  14.986  0.00  0.00     0.001 A 
HETATM   21  C   UNK N   1      37.403   8.523  15.060  0.00  0.00     0.000 A 
HETATM   22  C   UNK N   1      36.017   8.566  14.900  0.00  0.00     0.001 A 
HETATM   23  C   UNK N   1      35.375   9.787  14.670  0.00  0.00     0.010 A 
ENDBRANCH   9  18
ENDBRANCH   2   9
BRANCH   1  24
HETATM   24  C   UNK N   1      36.089  14.022   9.000  0.00  0.00     0.263 C 
BRANCH  24  25
HETATM   25  C   UNK N   1      34.817  14.629   8.360  0.00  0.00     0.196 C 
BRANCH  25  26
HETATM   26  O   UNK N   1      34.935  15.976   7.971  0.00  0.00    -0.385 OA
BRANCH  26  27
HETATM   27  C   UNK N   1      33.688  16.592   8.176  0.00  0.00     0.206 C 
BRANCH  27  28
HETATM   28  C   UNK N   1      32.949  16.900   6.917  0.00  0.00    -0.035 A 
HETATM   29  C   UNK N   1      31.552  16.829   6.841  0.00  0.00     0.009 A 
HETATM   30  C   UNK N   1      30.901  17.144   5.644  0.00  0.00     0.001 A 
HETATM   31  C   UNK N   1      31.644  17.525   4.523  0.00  0.00     0.000 A 
HETATM   32  C   UNK N   1      33.038  17.591   4.596  0.00  0.00     0.001 A 
HETATM   33  C   UNK N   1      33.687  17.283   5.793  0.00  0.00     0.009 A 
ENDBRANCH  27  28
ENDBRANCH  26  27
ENDBRANCH  25  26
ENDBRANCH  24  25
ENDBRANCH   1  24
TORSDOF 9
ENDMDL
MODEL 8
REMARK VINA RESULT:      -7.4      2.156      9.255
REMARK  9 active torsions:
REMARK  status: ('A' for Active; 'I' for Inactive)
REMARK    1  A    between atoms: O_1  and  C_11 
REMARK    2  A    between atoms: O_2  and  C_15 
REMARK    3  A    between atoms: O_2  and  C_24 
REMARK    4  A    between atoms: N_3  and  C_12 
REMARK    5  A    between atoms: C_4  and  C_11 
REMARK    6  A    between atoms: C_11  and  C_13 
REMARK    7  A    between atoms: C_11  and  C_14 
REMARK    8  A    between atoms: C_12  and  C_15 
REMARK    9  A    between atoms: C_24  and  C_27 
ROOT
HETATM    1  N   UNK N   1      36.487  13.676  10.631  0.00  0.00    -0.065 N 
HETATM    2  C   UNK N   1      35.777  12.868  13.011  0.00  0.00     0.004 C 
HETATM    3  C   UNK N   1      37.216  12.448  12.662  0.00  0.00     0.041 C 
HETATM    4  C   UNK N   1      35.696  14.404  12.878  0.00  0.00     0.041 C 
HETATM    5  C   UNK N   1      34.888  12.250  11.907  0.00  0.00     0.041 C 
HETATM    6  C   UNK N   1      37.620  13.014  11.298  0.00  0.00     0.238 C 
HETATM    7  C   UNK N   1      36.083  14.834  11.447  0.00  0.00     0.238 C 
HETATM    8  C   UNK N   1      35.341  12.753  10.512  0.00  0.00     0.238 C 
ENDROOT
BRANCH   2   9
HETATM    9  C   UNK N   1      35.383  12.382  14.456  0.00  0.00     0.120 C 
BRANCH   9  10
HETATM   10  O   UNK N   1      33.987  12.287  14.514  0.00  0.00    -0.379 OA
HETATM   11  H   UNK N   1      33.061  12.001  14.568  0.00  0.00     0.211 HD
ENDBRANCH   9  10
BRANCH   9  12
HETATM   12  C   UNK N   1      35.802  13.355  15.569  0.00  0.00    -0.019 A 
HETATM   13  C   UNK N   1      35.093  13.346  16.786  0.00  0.00     0.010 A 
HETATM   14  C   UNK N   1      35.439  14.215  17.822  0.00  0.00     0.001 A 
HETATM   15  C   UNK N   1      36.497  15.111  17.658  0.00  0.00     0.000 A 
HETATM   16  C   UNK N   1      37.207  15.139  16.456  0.00  0.00     0.001 A 
HETATM   17  C   UNK N   1      36.861  14.269  15.418  0.00  0.00     0.010 A 
ENDBRANCH   9  12
BRANCH   9  18
HETATM   18  C   UNK N   1      35.967  10.978  14.717  0.00  0.00    -0.019 A 
HETATM   19  C   UNK N   1      37.279  10.841  15.210  0.00  0.00     0.010 A 
HETATM   20  C   UNK N   1      37.823   9.580  15.465  0.00  0.00     0.001 A 
HETATM   21  C   UNK N   1      37.065   8.433  15.230  0.00  0.00     0.000 A 
HETATM   22  C   UNK N   1      35.764   8.547  14.736  0.00  0.00     0.001 A 
HETATM   23  C   UNK N   1      35.219   9.809  14.480  0.00  0.00     0.010 A 
ENDBRANCH   9  18
ENDBRANCH   2   9
BRANCH   1  24
HETATM   24  C   UNK N   1      36.913  14.199   9.326  0.00  0.00     0.263 C 
BRANCH  24  25
HETATM   25  C   UNK N   1      36.213  13.597   8.083  0.00  0.00     0.196 C 
BRANCH  25  26
HETATM   26  O   UNK N   1      35.670  14.544   7.194  0.00  0.00    -0.385 OA
BRANCH  26  27
HETATM   27  C   UNK N   1      34.269  14.468   7.290  0.00  0.00     0.206 C 
BRANCH  27  28
HETATM   28  C   UNK N   1      33.613  15.759   7.645  0.00  0.00    -0.035 A 
HETATM   29  C   UNK N   1      32.263  15.830   8.010  0.00  0.00     0.009 A 
HETATM   30  C   UNK N   1      31.695  17.061   8.351  0.00  0.00     0.001 A 
HETATM   31  C   UNK N   1      32.473  18.223   8.323  0.00  0.00     0.000 A 
HETATM   32  C   UNK N   1      33.819  18.154   7.954  0.00  0.00     0.001 A 
HETATM   33  C   UNK N   1      34.387  16.924   7.619  0.00  0.00     0.009 A 
ENDBRANCH  27  28
ENDBRANCH  26  27
ENDBRANCH  25  26
ENDBRANCH  24  25
ENDBRANCH   1  24
TORSDOF 9
ENDMDL
MODEL 9
REMARK VINA RESULT:      -7.3     10.454     13.530
REMARK  9 active torsions:
REMARK  status: ('A' for Active; 'I' for Inactive)
REMARK    1  A    between atoms: O_1  and  C_11 
REMARK    2  A    between atoms: O_2  and  C_15 
REMARK    3  A    between atoms: O_2  and  C_24 
REMARK    4  A    between atoms: N_3  and  C_12 
REMARK    5  A    between atoms: C_4  and  C_11 
REMARK    6  A    between atoms: C_11  and  C_13 
REMARK    7  A    between atoms: C_11  and  C_14 
REMARK    8  A    between atoms: C_12  and  C_15 
REMARK    9  A    between atoms: C_24  and  C_27 
ROOT
HETATM    1  N   UNK N   1      20.899  14.986   7.635  0.00  0.00    -0.065 N 
HETATM    2  C   UNK N   1      20.783  15.509   5.078  0.00  0.00     0.004 C 
HETATM    3  C   UNK N   1      19.684  16.239   5.868  0.00  0.00     0.041 C 
HETATM    4  C   UNK N   1      22.143  15.917   5.687  0.00  0.00     0.041 C 
HETATM    5  C   UNK N   1      20.570  14.005   5.365  0.00  0.00     0.041 C 
HETATM    6  C   UNK N   1      19.840  15.974   7.369  0.00  0.00     0.238 C 
HETATM    7  C   UNK N   1      22.183  15.553   7.187  0.00  0.00     0.238 C 
HETATM    8  C   UNK N   1      20.644  13.736   6.891  0.00  0.00     0.238 C 
ENDROOT
BRANCH   2   9
HETATM    9  C   UNK N   1      20.701  15.856   3.544  0.00  0.00     0.120 C 
BRANCH   9  10
HETATM   10  O   UNK N   1      19.461  15.412   3.067  0.00  0.00    -0.379 OA
HETATM   11  H   UNK N   1      18.722  14.926   2.669  0.00  0.00     0.211 HD
ENDBRANCH   9  10
BRANCH   9  12
HETATM   12  C   UNK N   1      21.773  15.156   2.695  0.00  0.00    -0.019 A 
HETATM   13  C   UNK N   1      21.391  14.535   1.491  0.00  0.00     0.010 A 
HETATM   14  C   UNK N   1      22.333  13.885   0.691  0.00  0.00     0.001 A 
HETATM   15  C   UNK N   1      23.671  13.843   1.083  0.00  0.00     0.000 A 
HETATM   16  C   UNK N   1      24.068  14.447   2.277  0.00  0.00     0.001 A 
HETATM   17  C   UNK N   1      23.126  15.098   3.079  0.00  0.00     0.010 A 
ENDBRANCH   9  12
BRANCH   9  18
HETATM   18  C   UNK N   1      20.767  17.385   3.347  0.00  0.00    -0.019 A 
HETATM   19  C   UNK N   1      21.968  18.077   3.598  0.00  0.00     0.010 A 
HETATM   20  C   UNK N   1      22.054  19.458   3.413  0.00  0.00     0.001 A 
HETATM   21  C   UNK N   1      20.940  20.174   2.975  0.00  0.00     0.000 A 
HETATM   22  C   UNK N   1      19.738  19.508   2.726  0.00  0.00     0.001 A 
HETATM   23  C   UNK N   1      19.651  18.125   2.910  0.00  0.00     0.010 A 
ENDBRANCH   9  18
ENDBRANCH   2   9
BRANCH   1  24
HETATM   24  C   UNK N   1      21.013  14.754   9.081  0.00  0.00     0.263 C 
BRANCH  24  25
HETATM   25  C   UNK N   1      21.304  13.300   9.523  0.00  0.00     0.196 C 
BRANCH  25  26
HETATM   26  O   UNK N   1      22.549  13.110  10.150  0.00  0.00    -0.385 OA
BRANCH  26  27
HETATM   27  C   UNK N   1      23.203  12.053   9.494  0.00  0.00     0.206 C 
BRANCH  27  28
HETATM   28  C   UNK N   1      23.883  12.452   8.228  0.00  0.00    -0.035 A 
HETATM   29  C   UNK N   1      23.577  11.849   7.001  0.00  0.00     0.009 A 
HETATM   30  C   UNK N   1      24.228  12.267   5.836  0.00  0.00     0.001 A 
HETATM   31  C   UNK N   1      25.187  13.284   5.897  0.00  0.00     0.000 A 
HETATM   32  C   UNK N   1      25.496  13.882   7.121  0.00  0.00     0.001 A 
HETATM   33  C   UNK N   1      24.841  13.468   8.282  0.00  0.00     0.009 A 
ENDBRANCH  27  28
ENDBRANCH  26  27
ENDBRANCH  25  26
ENDBRANCH  24  25
ENDBRANCH   1  24
TORSDOF 9
ENDMDL
