REMARK  9 active torsions:
REMARK  status: ('A' for Active; 'I' for Inactive)
REMARK    1  A    between atoms: C_2  and  C_3 
REMARK    2  A    between atoms: C_3  and  C_4 
REMARK    3  A    between atoms: C_4  and  N_5 
REMARK    4  A    between atoms: N_5  and  C_6 
REMARK    5  A    between atoms: C_9  and  C_12 
REMARK    6  A    between atoms: C_12  and  O_14 
REMARK    7  A    between atoms: O_14  and  C_15 
REMARK    8  A    between atoms: C_15  and  C_16 
REMARK    9  A    between atoms: C_16  and  N_17 
ROOT
HETATM    1  C   UNK N   1      -2.086   3.560  -0.007  0.00  0.00     0.028 A 
HETATM    2  C   UNK N   1      -0.837   4.193  -0.012  0.00  0.00     0.030 A 
HETATM    3  C   UNK N   1       0.338   3.425  -0.014  0.00  0.00     0.020 A 
HETATM    4  C   UNK N   1       0.275   2.020  -0.012  0.00  0.00     0.039 A 
HETATM    5  C   UNK N   1      -0.982   1.403  -0.006  0.00  0.00     0.020 A 
HETATM    6  C   UNK N   1      -2.146   2.161  -0.004  0.00  0.00     0.030 A 
ENDROOT
BRANCH   4   7
HETATM    7  C   UNK N   1       1.486   1.144  -0.004  0.00  0.00     0.293 C 
HETATM    8  O   UNK N   1       1.325  -0.065   0.027  0.00  0.00    -0.259 OA
BRANCH   7   9
HETATM    9  O   UNK N   1       2.762   1.611  -0.014  0.00  0.00    -0.316 OA
BRANCH   9  10
HETATM   10  C   UNK N   1       3.154   2.923  -0.117  0.00  0.00     0.209 C 
BRANCH  10  11
HETATM   11  C   UNK N   1       4.566   3.077   0.434  0.00  0.00     0.298 C 
BRANCH  11  12
HETATM   12  N   UNK N   1       5.530   2.315  -0.350  0.00  0.00     0.082 N 
HETATM   13  C   UNK N   1       6.835   2.894  -0.087  0.00  0.00     0.309 C 
HETATM   14  C   UNK N   1       5.574   0.958   0.171  0.00  0.00     0.309 C 
ENDBRANCH  11  12
ENDBRANCH  10  11
ENDBRANCH   9  10
ENDBRANCH   7   9
ENDBRANCH   4   7
BRANCH   1  15
HETATM   15  N   UNK N   1      -3.281   4.322  -0.005  0.00  0.00    -0.390 N 
HETATM   16  H   UNK N   1      -3.240   5.306  -0.005  0.00  0.00     0.159 HD
BRANCH  15  17
HETATM   17  C   UNK N   1      -4.558   3.650  -0.002  0.00  0.00     0.119 C 
BRANCH  17  18
HETATM   18  C   UNK N   1      -5.714   4.620   0.000  0.00  0.00     0.019 C 
BRANCH  18  19
HETATM   19  C   UNK N   1      -6.983   3.789   0.000  0.00  0.00    -0.003 C 
HETATM   20  C   UNK N   1      -8.202   4.683   0.002  0.00  0.00     0.005 C 
ENDBRANCH  18  19
ENDBRANCH  17  18
ENDBRANCH  15  17
ENDBRANCH   1  15
TORSDOF 9
