MODEL 1
REMARK VINA RESULT:      -7.9      0.000      0.000
REMARK  4 active torsions:
REMARK  status: ('A' for Active; 'I' for Inactive)
REMARK    1  A    between atoms: N_2  and  C_5 
REMARK    2  A    between atoms: C_7  and  N_13 
REMARK    3  A    between atoms: C_12  and  C_16 
REMARK    4  A    between atoms: C_16  and  O_20 
ROOT
HETATM    1  C   UNK N   1      24.807  18.224   4.419  0.00  0.00     0.072 A 
HETATM    2  N   UNK N   1      23.495  17.755   4.386  0.00  0.00    -0.349 N 
HETATM    3  C   UNK N   1      25.895  17.537   5.085  0.00  0.00     0.102 A 
HETATM    4  C   UNK N   1      25.099  19.460   3.775  0.00  0.00     0.047 A 
HETATM    5  C   UNK N   1      22.520  18.487   3.755  0.00  0.00     0.114 A 
HETATM    6  C   UNK N   1      27.210  18.106   5.079  0.00  0.00     0.092 A 
HETATM    7  C   UNK N   1      24.091  20.191   3.139  0.00  0.00     0.202 A 
HETATM    8  C   UNK N   1      26.387  19.976   3.779  0.00  0.00     0.062 A 
HETATM    9  C   UNK N   1      22.781  19.703   3.128  0.00  0.00     0.104 A 
HETATM   10  C   UNK N   1      27.421  19.328   4.411  0.00  0.00     0.145 A 
HETATM   11  O   UNK N   1      24.357  21.255   2.599  0.00  0.00    -0.286 OA
HETATM   12  F   UNK N   1      28.650  19.898   4.344  0.00  0.00    -0.204 F 
HETATM   13  C   UNK N   1      25.680  16.331   5.860  0.00  0.00     0.104 C 
HETATM   14  N   UNK N   1      25.502  15.382   6.499  0.00  0.00    -0.191 NA
ENDROOT
BRANCH   6  15
HETATM   15  N   UNK N   1      28.322  17.480   5.745  0.00  0.00    -0.372 N 
HETATM   16  C   UNK N   1      28.682  17.809   7.107  0.00  0.00     0.157 C 
HETATM   17  C   UNK N   1      30.145  17.466   7.148  0.00  0.00     0.163 C 
HETATM   18  O   UNK N   1      30.661  17.240   8.448  0.00  0.00    -0.381 OA
HETATM   19  C   UNK N   1      30.196  16.243   6.245  0.00  0.00     0.125 C 
HETATM   20  C   UNK N   1      31.603  16.168   8.467  0.00  0.00     0.187 C 
HETATM   21  C   UNK N   1      32.420  16.003   7.151  0.00  0.00     0.140 C 
HETATM   22  N   UNK N   1      31.589  15.943   5.926  0.00  0.00    -0.411 N 
HETATM   23  H   UNK N   1      31.939  15.722   4.994  0.00  0.00     0.153 HD
HETATM   24  C   UNK N   1      29.307  16.646   5.084  0.00  0.00     0.150 C 
ENDBRANCH   6  15
BRANCH   2  25
HETATM   25  C   UNK N   1      23.111  16.461   4.987  0.00  0.00     0.090 A 
HETATM   26  C   UNK N   1      22.775  15.363   3.981  0.00  0.00     0.028 A 
HETATM   27  C   UNK N   1      21.665  16.130   4.665  0.00  0.00     0.028 A 
ENDBRANCH   2  25
BRANCH   9  28
HETATM   28  C   UNK N   1      21.666  20.437   2.471  0.00  0.00     0.181 C 
HETATM   29  O   UNK N   1      20.870  19.854   1.750  0.00  0.00    -0.646 OA
BRANCH  28  30
HETATM   30  O   UNK N   1      21.524  21.763   2.665  0.00  0.00    -0.772 OA
HETATM   31  H   UNK N   1      21.532  22.112   3.534  0.00  0.00     0.167 HD
ENDBRANCH  28  30
ENDBRANCH   9  28
TORSDOF 4
ENDMDL
MODEL 2
REMARK VINA RESULT:      -7.8      4.109      8.588
REMARK  4 active torsions:
REMARK  status: ('A' for Active; 'I' for Inactive)
REMARK    1  A    between atoms: N_2  and  C_5 
REMARK    2  A    between atoms: C_7  and  N_13 
REMARK    3  A    between atoms: C_12  and  C_16 
REMARK    4  A    between atoms: C_16  and  O_20 
ROOT
HETATM    1  C   UNK N   1      31.055  16.964   6.555  0.00  0.00     0.072 A 
HETATM    2  N   UNK N   1      30.978  17.410   7.874  0.00  0.00    -0.349 N 
HETATM    3  C   UNK N   1      29.911  16.518   5.785  0.00  0.00     0.102 A 
HETATM    4  C   UNK N   1      32.332  16.929   5.927  0.00  0.00     0.047 A 
HETATM    5  C   UNK N   1      32.119  17.788   8.537  0.00  0.00     0.114 A 
HETATM    6  C   UNK N   1      30.091  16.061   4.439  0.00  0.00     0.092 A 
HETATM    7  C   UNK N   1      33.482  17.317   6.621  0.00  0.00     0.202 A 
HETATM    8  C   UNK N   1      32.467  16.491   4.617  0.00  0.00     0.062 A 
HETATM    9  C   UNK N   1      33.380  17.750   7.946  0.00  0.00     0.104 A 
HETATM   10  C   UNK N   1      31.385  16.065   3.884  0.00  0.00     0.145 A 
HETATM   11  O   UNK N   1      34.572  17.270   6.070  0.00  0.00    -0.286 OA
HETATM   12  F   UNK N   1      31.612  15.675   2.605  0.00  0.00    -0.204 F 
HETATM   13  C   UNK N   1      28.588  16.414   6.367  0.00  0.00     0.104 C 
HETATM   14  N   UNK N   1      27.537  16.307   6.841  0.00  0.00    -0.191 NA
ENDROOT
BRANCH   6  15
HETATM   15  N   UNK N   1      28.996  15.583   3.636  0.00  0.00    -0.372 N 
HETATM   16  C   UNK N   1      27.961  16.470   3.147  0.00  0.00     0.157 C 
HETATM   17  C   UNK N   1      26.796  15.539   2.964  0.00  0.00     0.163 C 
HETATM   18  O   UNK N   1      25.801  16.009   2.072  0.00  0.00    -0.381 OA
HETATM   19  C   UNK N   1      27.491  14.270   2.495  0.00  0.00     0.125 C 
HETATM   20  C   UNK N   1      25.269  14.958   1.267  0.00  0.00     0.187 C 
HETATM   21  C   UNK N   1      25.246  13.562   1.958  0.00  0.00     0.140 C 
HETATM   22  N   UNK N   1      26.545  13.159   2.548  0.00  0.00    -0.411 N 
HETATM   23  H   UNK N   1      26.748  12.237   2.935  0.00  0.00     0.153 HD
HETATM   24  C   UNK N   1      28.690  14.183   3.420  0.00  0.00     0.150 C 
ENDBRANCH   6  15
BRANCH   2  25
HETATM   25  C   UNK N   1      29.689  17.525   8.587  0.00  0.00     0.090 A 
HETATM   26  C   UNK N   1      29.080  18.925   8.587  0.00  0.00     0.028 A 
HETATM   27  C   UNK N   1      29.830  18.424   9.802  0.00  0.00     0.028 A 
ENDBRANCH   2  25
BRANCH   9  28
HETATM   28  C   UNK N   1      34.567  18.173   8.737  0.00  0.00     0.181 C 
HETATM   29  O   UNK N   1      34.925  17.538   9.718  0.00  0.00    -0.646 OA
BRANCH  28  30
HETATM   30  O   UNK N   1      35.262  19.268   8.376  0.00  0.00    -0.772 OA
HETATM   31  H   UNK N   1      36.196  19.230   8.310  0.00  0.00     0.167 HD
ENDBRANCH  28  30
ENDBRANCH   9  28
TORSDOF 4
ENDMDL
MODEL 3
REMARK VINA RESULT:      -7.4      9.794     12.535
REMARK  4 active torsions:
REMARK  status: ('A' for Active; 'I' for Inactive)
REMARK    1  A    between atoms: N_2  and  C_5 
REMARK    2  A    between atoms: C_7  and  N_13 
REMARK    3  A    between atoms: C_12  and  C_16 
REMARK    4  A    between atoms: C_16  and  O_20 
ROOT
HETATM    1  C   UNK N   1      34.889  14.260  10.131  0.00  0.00     0.072 A 
HETATM    2  N   UNK N   1      34.346  14.225   8.848  0.00  0.00    -0.349 N 
HETATM    3  C   UNK N   1      35.008  13.099  10.990  0.00  0.00     0.102 A 
HETATM    4  C   UNK N   1      35.340  15.510  10.640  0.00  0.00     0.047 A 
HETATM    5  C   UNK N   1      34.245  15.380   8.113  0.00  0.00     0.114 A 
HETATM    6  C   UNK N   1      35.566  13.236  12.303  0.00  0.00     0.092 A 
HETATM    7  C   UNK N   1      35.227  16.677   9.876  0.00  0.00     0.202 A 
HETATM    8  C   UNK N   1      35.886  15.604  11.911  0.00  0.00     0.062 A 
HETATM    9  C   UNK N   1      34.670  16.616   8.596  0.00  0.00     0.104 A 
HETATM   10  C   UNK N   1      35.999  14.506  12.730  0.00  0.00     0.145 A 
HETATM   11  O   UNK N   1      35.611  17.744  10.332  0.00  0.00    -0.286 OA
HETATM   12  F   UNK N   1      36.565  14.691  13.949  0.00  0.00    -0.204 F 
HETATM   13  C   UNK N   1      34.480  11.805  10.608  0.00  0.00     0.104 C 
HETATM   14  N   UNK N   1      34.035  10.777  10.311  0.00  0.00    -0.191 NA
ENDROOT
BRANCH   6  15
HETATM   15  N   UNK N   1      35.686  12.123  13.207  0.00  0.00    -0.372 N 
HETATM   16  C   UNK N   1      34.674  11.830  14.199  0.00  0.00     0.157 C 
HETATM   17  C   UNK N   1      35.453  11.089  15.249  0.00  0.00     0.163 C 
HETATM   18  O   UNK N   1      34.666  10.278  16.104  0.00  0.00    -0.381 OA
HETATM   19  C   UNK N   1      36.441  10.306  14.399  0.00  0.00     0.125 C 
HETATM   20  C   UNK N   1      35.315   9.047  16.416  0.00  0.00     0.187 C 
HETATM   21  C   UNK N   1      36.870   9.130  16.463  0.00  0.00     0.140 C 
HETATM   22  N   UNK N   1      37.479   9.750  15.262  0.00  0.00    -0.411 N 
HETATM   23  H   UNK N   1      38.480   9.783  15.067  0.00  0.00     0.153 HD
HETATM   24  C   UNK N   1      36.889  11.331  13.375  0.00  0.00     0.150 C 
ENDBRANCH   6  15
BRANCH   2  25
HETATM   25  C   UNK N   1      33.896  12.964   8.222  0.00  0.00     0.090 A 
HETATM   26  C   UNK N   1      34.756  12.486   7.054  0.00  0.00     0.028 A 
HETATM   27  C   UNK N   1      33.452  13.206   6.791  0.00  0.00     0.028 A 
ENDBRANCH   2  25
BRANCH   9  28
HETATM   28  C   UNK N   1      34.520  17.823   7.737  0.00  0.00     0.181 C 
HETATM   29  O   UNK N   1      34.257  17.719   6.549  0.00  0.00    -0.646 OA
BRANCH  28  30
HETATM   30  O   UNK N   1      34.677  19.051   8.268  0.00  0.00    -0.772 OA
HETATM   31  H   UNK N   1      35.527  19.342   8.533  0.00  0.00     0.167 HD
ENDBRANCH  28  30
ENDBRANCH   9  28
TORSDOF 4
ENDMDL
MODEL 4
REMARK VINA RESULT:      -6.9      3.188      5.302
REMARK  4 active torsions:
REMARK  status: ('A' for Active; 'I' for Inactive)
REMARK    1  A    between atoms: N_2  and  C_5 
REMARK    2  A    between atoms: C_7  and  N_13 
REMARK    3  A    between atoms: C_12  and  C_16 
REMARK    4  A    between atoms: C_16  and  O_20 
ROOT
HETATM    1  C   UNK N   1      29.290  17.282   6.017  0.00  0.00     0.072 A 
HETATM    2  N   UNK N   1      28.815  16.876   4.771  0.00  0.00    -0.349 N 
HETATM    3  C   UNK N   1      30.431  16.686   6.681  0.00  0.00     0.102 A 
HETATM    4  C   UNK N   1      28.608  18.336   6.689  0.00  0.00     0.047 A 
HETATM    5  C   UNK N   1      27.708  17.480   4.228  0.00  0.00     0.114 A 
HETATM    6  C   UNK N   1      30.836  17.160   7.970  0.00  0.00     0.092 A 
HETATM    7  C   UNK N   1      27.480  18.937   6.120  0.00  0.00     0.202 A 
HETATM    8  C   UNK N   1      29.035  18.778   7.932  0.00  0.00     0.062 A 
HETATM    9  C   UNK N   1      27.018  18.504   4.874  0.00  0.00     0.104 A 
HETATM   10  C   UNK N   1      30.116  18.213   8.567  0.00  0.00     0.145 A 
HETATM   11  O   UNK N   1      26.901  19.833   6.715  0.00  0.00    -0.286 OA
HETATM   12  F   UNK N   1      30.472  18.727   9.770  0.00  0.00    -0.204 F 
HETATM   13  C   UNK N   1      31.125  15.539   6.130  0.00  0.00     0.104 C 
HETATM   14  N   UNK N   1      31.662  14.607   5.701  0.00  0.00    -0.191 NA
ENDROOT
BRANCH   6  15
HETATM   15  N   UNK N   1      31.946  16.589   8.686  0.00  0.00    -0.372 N 
HETATM   16  C   UNK N   1      33.268  17.177   8.646  0.00  0.00     0.157 C 
HETATM   17  C   UNK N   1      34.155  16.001   8.939  0.00  0.00     0.163 C 
HETATM   18  O   UNK N   1      35.443  16.340   9.423  0.00  0.00    -0.381 OA
HETATM   19  C   UNK N   1      33.311  15.222   9.936  0.00  0.00     0.125 C 
HETATM   20  C   UNK N   1      35.883  15.442  10.440  0.00  0.00     0.187 C 
HETATM   21  C   UNK N   1      35.353  13.985  10.290  0.00  0.00     0.140 C 
HETATM   22  N   UNK N   1      33.885  13.891  10.113  0.00  0.00    -0.411 N 
HETATM   23  H   UNK N   1      33.351  13.021  10.115  0.00  0.00     0.153 HD
HETATM   24  C   UNK N   1      31.925  15.286   9.324  0.00  0.00     0.150 C 
ENDBRANCH   6  15
BRANCH   2  25
HETATM   25  C   UNK N   1      29.488  15.824   3.982  0.00  0.00     0.090 A 
HETATM   26  C   UNK N   1      30.141  16.312   2.690  0.00  0.00     0.028 A 
HETATM   27  C   UNK N   1      28.791  15.629   2.647  0.00  0.00     0.028 A 
ENDBRANCH   2  25
BRANCH   9  28
HETATM   28  C   UNK N   1      25.823  19.102   4.219  0.00  0.00     0.181 C 
HETATM   29  O   UNK N   1      25.919  19.682   3.147  0.00  0.00    -0.646 OA
BRANCH  28  30
HETATM   30  O   UNK N   1      24.615  19.010   4.807  0.00  0.00    -0.772 OA
HETATM   31  H   UNK N   1      24.112  18.224   4.724  0.00  0.00     0.167 HD
ENDBRANCH  28  30
ENDBRANCH   9  28
TORSDOF 4
ENDMDL
MODEL 5
REMARK VINA RESULT:      -6.8      7.116     12.700
REMARK  4 active torsions:
REMARK  status: ('A' for Active; 'I' for Inactive)
REMARK    1  A    between atoms: N_2  and  C_5 
REMARK    2  A    between atoms: C_7  and  N_13 
REMARK    3  A    between atoms: C_12  and  C_16 
REMARK    4  A    between atoms: C_16  and  O_20 
ROOT
HETATM    1  C   UNK N   1      34.834  13.300  10.902  0.00  0.00     0.072 A 
HETATM    2  N   UNK N   1      35.034  12.011  11.394  0.00  0.00    -0.349 N 
HETATM    3  C   UNK N   1      34.194  13.591   9.634  0.00  0.00     0.102 A 
HETATM    4  C   UNK N   1      35.297  14.399  11.679  0.00  0.00     0.047 A 
HETATM    5  C   UNK N   1      35.675  11.826  12.593  0.00  0.00     0.114 A 
HETATM    6  C   UNK N   1      34.047  14.950   9.204  0.00  0.00     0.092 A 
HETATM    7  C   UNK N   1      35.950  14.189  12.898  0.00  0.00     0.202 A 
HETATM    8  C   UNK N   1      35.127  15.703  11.237  0.00  0.00     0.062 A 
HETATM    9  C   UNK N   1      36.147  12.886  13.364  0.00  0.00     0.104 A 
HETATM   10  C   UNK N   1      34.523  15.983  10.034  0.00  0.00     0.145 A 
HETATM   11  O   UNK N   1      36.350  15.144  13.548  0.00  0.00    -0.286 OA
HETATM   12  F   UNK N   1      34.383  17.289   9.695  0.00  0.00    -0.204 F 
HETATM   13  C   UNK N   1      33.786  12.542   8.722  0.00  0.00     0.104 C 
HETATM   14  N   UNK N   1      33.484  11.702   7.984  0.00  0.00    -0.191 NA
ENDROOT
BRANCH   6  15
HETATM   15  N   UNK N   1      33.443  15.297   7.945  0.00  0.00    -0.372 N 
HETATM   16  C   UNK N   1      34.235  15.562   6.763  0.00  0.00     0.157 C 
HETATM   17  C   UNK N   1      33.331  16.453   5.959  0.00  0.00     0.163 C 
HETATM   18  O   UNK N   1      33.626  16.497   4.574  0.00  0.00    -0.381 OA
HETATM   19  C   UNK N   1      31.964  15.866   6.277  0.00  0.00     0.125 C 
HETATM   20  C   UNK N   1      32.442  16.536   3.779  0.00  0.00     0.187 C 
HETATM   21  C   UNK N   1      31.237  17.263   4.448  0.00  0.00     0.140 C 
HETATM   22  N   UNK N   1      30.929  16.787   5.817  0.00  0.00    -0.411 N 
HETATM   23  H   UNK N   1      30.110  17.062   6.359  0.00  0.00     0.153 HD
HETATM   24  C   UNK N   1      32.042  15.626   7.772  0.00  0.00     0.150 C 
ENDBRANCH   6  15
BRANCH   2  25
HETATM   25  C   UNK N   1      34.544  10.815  10.677  0.00  0.00     0.090 A 
HETATM   26  C   UNK N   1      33.483  10.011  11.424  0.00  0.00     0.028 A 
HETATM   27  C   UNK N   1      34.924   9.551  11.426  0.00  0.00     0.028 A 
ENDBRANCH   2  25
BRANCH   9  28
HETATM   28  C   UNK N   1      36.837  12.600  14.651  0.00  0.00     0.181 C 
HETATM   29  O   UNK N   1      36.584  11.587  15.287  0.00  0.00    -0.646 OA
BRANCH  28  30
HETATM   30  O   UNK N   1      37.753  13.462  15.131  0.00  0.00    -0.772 OA
HETATM   31  H   UNK N   1      38.659  13.224  15.142  0.00  0.00     0.167 HD
ENDBRANCH  28  30
ENDBRANCH   9  28
TORSDOF 4
ENDMDL
MODEL 6
REMARK VINA RESULT:      -6.7      3.901      9.105
REMARK  4 active torsions:
REMARK  status: ('A' for Active; 'I' for Inactive)
REMARK    1  A    between atoms: N_2  and  C_5 
REMARK    2  A    between atoms: C_7  and  N_13 
REMARK    3  A    between atoms: C_12  and  C_16 
REMARK    4  A    between atoms: C_16  and  O_20 
ROOT
HETATM    1  C   UNK N   1      31.772  16.207   5.992  0.00  0.00     0.072 A 
HETATM    2  N   UNK N   1      33.142  15.995   5.849  0.00  0.00    -0.349 N 
HETATM    3  C   UNK N   1      30.770  15.636   5.115  0.00  0.00     0.102 A 
HETATM    4  C   UNK N   1      31.325  17.044   7.052  0.00  0.00     0.047 A 
HETATM    5  C   UNK N   1      34.023  16.600   6.712  0.00  0.00     0.114 A 
HETATM    6  C   UNK N   1      29.383  15.923   5.331  0.00  0.00     0.092 A 
HETATM    7  C   UNK N   1      32.239  17.653   7.919  0.00  0.00     0.202 A 
HETATM    8  C   UNK N   1      29.972  17.292   7.240  0.00  0.00     0.062 A 
HETATM    9  C   UNK N   1      33.608  17.432   7.748  0.00  0.00     0.104 A 
HETATM   10  C   UNK N   1      29.019  16.754   6.408  0.00  0.00     0.145 A 
HETATM   11  O   UNK N   1      31.838  18.377   8.818  0.00  0.00    -0.286 OA
HETATM   12  F   UNK N   1      27.721  17.035   6.683  0.00  0.00    -0.204 F 
HETATM   13  C   UNK N   1      31.129  14.859   3.945  0.00  0.00     0.104 C 
HETATM   14  N   UNK N   1      31.418  14.261   2.996  0.00  0.00    -0.191 NA
ENDROOT
BRANCH   6  15
HETATM   15  N   UNK N   1      28.348  15.404   4.477  0.00  0.00    -0.372 N 
HETATM   16  C   UNK N   1      27.778  16.188   3.402  0.00  0.00     0.157 C 
HETATM   17  C   UNK N   1      26.416  15.574   3.239  0.00  0.00     0.163 C 
HETATM   18  O   UNK N   1      25.811  15.808   1.980  0.00  0.00    -0.381 OA
HETATM   19  C   UNK N   1      26.709  14.107   3.516  0.00  0.00     0.125 C 
HETATM   20  C   UNK N   1      25.102  14.663   1.509  0.00  0.00     0.187 C 
HETATM   21  C   UNK N   1      24.487  13.776   2.632  0.00  0.00     0.140 C 
HETATM   22  N   UNK N   1      25.448  13.393   3.694  0.00  0.00    -0.411 N 
HETATM   23  H   UNK N   1      25.256  12.725   4.441  0.00  0.00     0.153 HD
HETATM   24  C   UNK N   1      27.627  14.170   4.721  0.00  0.00     0.150 C 
ENDBRANCH   6  15
BRANCH   2  25
HETATM   25  C   UNK N   1      33.692  15.104   4.807  0.00  0.00     0.090 A 
HETATM   26  C   UNK N   1      34.119  13.724   5.305  0.00  0.00     0.028 A 
HETATM   27  C   UNK N   1      35.156  14.804   5.079  0.00  0.00     0.028 A 
ENDBRANCH   2  25
BRANCH   9  28
HETATM   28  C   UNK N   1      34.629  18.054   8.636  0.00  0.00     0.181 C 
HETATM   29  O   UNK N   1      35.238  19.054   8.287  0.00  0.00    -0.646 OA
BRANCH  28  30
HETATM   30  O   UNK N   1      34.893  17.512   9.841  0.00  0.00    -0.772 OA
HETATM   31  H   UNK N   1      34.850  16.584   9.957  0.00  0.00     0.167 HD
ENDBRANCH  28  30
ENDBRANCH   9  28
TORSDOF 4
ENDMDL
MODEL 7
REMARK VINA RESULT:      -6.7      5.290      7.882
REMARK  4 active torsions:
REMARK  status: ('A' for Active; 'I' for Inactive)
REMARK    1  A    between atoms: N_2  and  C_5 
REMARK    2  A    between atoms: C_7  and  N_13 
REMARK    3  A    between atoms: C_12  and  C_16 
REMARK    4  A    between atoms: C_16  and  O_20 
ROOT
HETATM    1  C   UNK N   1      31.457  16.123   7.107  0.00  0.00     0.072 A 
HETATM    2  N   UNK N   1      30.207  15.956   6.511  0.00  0.00    -0.349 N 
HETATM    3  C   UNK N   1      32.603  15.281   6.830  0.00  0.00     0.102 A 
HETATM    4  C   UNK N   1      31.617  17.171   8.056  0.00  0.00     0.047 A 
HETATM    5  C   UNK N   1      29.167  16.784   6.855  0.00  0.00     0.114 A 
HETATM    6  C   UNK N   1      33.844  15.521   7.504  0.00  0.00     0.092 A 
HETATM    7  C   UNK N   1      30.544  18.003   8.394  0.00  0.00     0.202 A 
HETATM    8  C   UNK N   1      32.838  17.382   8.682  0.00  0.00     0.062 A 
HETATM    9  C   UNK N   1      29.299  17.808   7.790  0.00  0.00     0.104 A 
HETATM   10  C   UNK N   1      33.927  16.584   8.424  0.00  0.00     0.145 A 
HETATM   11  O   UNK N   1      30.697  18.892   9.218  0.00  0.00    -0.286 OA
HETATM   12  F   UNK N   1      35.084  16.880   9.068  0.00  0.00    -0.204 F 
HETATM   13  C   UNK N   1      32.513  14.124   5.963  0.00  0.00     0.104 C 
HETATM   14  N   UNK N   1      32.433  13.185   5.290  0.00  0.00    -0.191 NA
ENDROOT
BRANCH   6  15
HETATM   15  N   UNK N   1      35.008  14.702   7.287  0.00  0.00    -0.372 N 
HETATM   16  C   UNK N   1      35.476  13.758   8.279  0.00  0.00     0.157 C 
HETATM   17  C   UNK N   1      36.938  13.641   7.952  0.00  0.00     0.163 C 
HETATM   18  O   UNK N   1      37.557  12.461   8.435  0.00  0.00    -0.381 OA
HETATM   19  C   UNK N   1      36.920  13.748   6.435  0.00  0.00     0.125 C 
HETATM   20  C   UNK N   1      38.500  11.936   7.503  0.00  0.00     0.187 C 
HETATM   21  C   UNK N   1      39.210  13.010   6.626  0.00  0.00     0.140 C 
HETATM   22  N   UNK N   1      38.283  13.951   5.954  0.00  0.00    -0.411 N 
HETATM   23  H   UNK N   1      38.558  14.641   5.254  0.00  0.00     0.153 HD
HETATM   24  C   UNK N   1      35.939  14.878   6.190  0.00  0.00     0.150 C 
ENDBRANCH   6  15
BRANCH   2  25
HETATM   25  C   UNK N   1      29.963  14.925   5.482  0.00  0.00     0.090 A 
HETATM   26  C   UNK N   1      29.705  15.470   4.078  0.00  0.00     0.028 A 
HETATM   27  C   UNK N   1      28.546  15.030   4.946  0.00  0.00     0.028 A 
ENDBRANCH   2  25
BRANCH   9  28
HETATM   28  C   UNK N   1      28.120  18.657   8.110  0.00  0.00     0.181 C 
HETATM   29  O   UNK N   1      27.738  19.519   7.332  0.00  0.00    -0.646 OA
BRANCH  28  30
HETATM   30  O   UNK N   1      27.459  18.483   9.270  0.00  0.00    -0.772 OA
HETATM   31  H   UNK N   1      26.524  18.434   9.274  0.00  0.00     0.167 HD
ENDBRANCH  28  30
ENDBRANCH   9  28
TORSDOF 4
ENDMDL
MODEL 8
REMARK VINA RESULT:      -6.7      2.662      8.532
REMARK  4 active torsions:
REMARK  status: ('A' for Active; 'I' for Inactive)
REMARK    1  A    between atoms: N_2  and  C_5 
REMARK    2  A    between atoms: C_7  and  N_13 
REMARK    3  A    between atoms: C_12  and  C_16 
REMARK    4  A    between atoms: C_16  and  O_20 
ROOT
HETATM    1  C   UNK N   1      30.388  16.894   5.888  0.00  0.00     0.072 A 
HETATM    2  N   UNK N   1      31.638  16.971   5.274  0.00  0.00    -0.349 N 
HETATM    3  C   UNK N   1      29.161  16.574   5.187  0.00  0.00     0.102 A 
HETATM    4  C   UNK N   1      30.304  17.162   7.283  0.00  0.00     0.047 A 
HETATM    5  C   UNK N   1      32.745  17.309   6.012  0.00  0.00     0.114 A 
HETATM    6  C   UNK N   1      27.920  16.534   5.901  0.00  0.00     0.092 A 
HETATM    7  C   UNK N   1      31.444  17.507   8.017  0.00  0.00     0.202 A 
HETATM    8  C   UNK N   1      29.086  17.103   7.945  0.00  0.00     0.062 A 
HETATM    9  C   UNK N   1      32.683  17.587   7.375  0.00  0.00     0.104 A 
HETATM   10  C   UNK N   1      27.919  16.801   7.283  0.00  0.00     0.145 A 
HETATM   11  O   UNK N   1      31.352  17.743   9.212  0.00  0.00    -0.286 OA
HETATM   12  F   UNK N   1      26.781  16.747   8.018  0.00  0.00    -0.204 F 
HETATM   13  C   UNK N   1      29.125  16.392   3.749  0.00  0.00     0.104 C 
HETATM   14  N   UNK N   1      29.093  16.272   2.598  0.00  0.00    -0.191 NA
ENDROOT
BRANCH   6  15
HETATM   15  N   UNK N   1      26.668  16.246   5.251  0.00  0.00    -0.372 N 
HETATM   16  C   UNK N   1      25.752  17.293   4.856  0.00  0.00     0.157 C 
HETATM   17  C   UNK N   1      24.429  16.581   4.846  0.00  0.00     0.163 C 
HETATM   18  O   UNK N   1      23.428  17.206   4.061  0.00  0.00    -0.381 OA
HETATM   19  C   UNK N   1      24.829  15.202   4.345  0.00  0.00     0.125 C 
HETATM   20  C   UNK N   1      22.627  16.254   3.364  0.00  0.00     0.187 C 
HETATM   21  C   UNK N   1      22.447  14.894   4.103  0.00  0.00     0.140 C 
HETATM   22  N   UNK N   1      23.718  14.277   4.550  0.00  0.00    -0.411 N 
HETATM   23  H   UNK N   1      23.804  13.340   4.943  0.00  0.00     0.153 HD
HETATM   24  C   UNK N   1      26.099  14.918   5.124  0.00  0.00     0.150 C 
ENDBRANCH   6  15
BRANCH   2  25
HETATM   25  C   UNK N   1      31.826  16.663   3.841  0.00  0.00     0.090 A 
HETATM   26  C   UNK N   1      32.510  15.328   3.558  0.00  0.00     0.028 A 
HETATM   27  C   UNK N   1      33.303  16.615   3.495  0.00  0.00     0.028 A 
ENDBRANCH   2  25
BRANCH   9  28
HETATM   28  C   UNK N   1      33.930  17.952   8.101  0.00  0.00     0.181 C 
HETATM   29  O   UNK N   1      34.796  18.624   7.560  0.00  0.00    -0.646 OA
BRANCH  28  30
HETATM   30  O   UNK N   1      34.117  17.540   9.369  0.00  0.00    -0.772 OA
HETATM   31  H   UNK N   1      33.538  17.831  10.046  0.00  0.00     0.167 HD
ENDBRANCH  28  30
ENDBRANCH   9  28
TORSDOF 4
ENDMDL
MODEL 9
REMARK VINA RESULT:      -6.6     13.037     16.315
REMARK  4 active torsions:
REMARK  status: ('A' for Active; 'I' for Inactive)
REMARK    1  A    between atoms: N_2  and  C_5 
REMARK    2  A    between atoms: C_7  and  N_13 
REMARK    3  A    between atoms: C_12  and  C_16 
REMARK    4  A    between atoms: C_16  and  O_20 
ROOT
HETATM    1  C   UNK N   1      36.218  11.348  15.364  0.00  0.00     0.072 A 
HETATM    2  N   UNK N   1      36.414  10.289  16.249  0.00  0.00    -0.349 N 
HETATM    3  C   UNK N   1      36.539  11.292  13.952  0.00  0.00     0.102 A 
HETATM    4  C   UNK N   1      35.685  12.565  15.875  0.00  0.00     0.047 A 
HETATM    5  C   UNK N   1      36.107  10.440  17.578  0.00  0.00     0.114 A 
HETATM    6  C   UNK N   1      36.317  12.439  13.123  0.00  0.00     0.092 A 
HETATM    7  C   UNK N   1      35.380  12.699  17.234  0.00  0.00     0.202 A 
HETATM    8  C   UNK N   1      35.471  13.653  15.040  0.00  0.00     0.062 A 
HETATM    9  C   UNK N   1      35.595  11.625  18.102  0.00  0.00     0.104 A 
HETATM   10  C   UNK N   1      35.777  13.604  13.700  0.00  0.00     0.145 A 
HETATM   11  O   UNK N   1      34.932  13.755  17.657  0.00  0.00    -0.286 OA
HETATM   12  F   UNK N   1      35.514  14.709  12.960  0.00  0.00    -0.204 F 
HETATM   13  C   UNK N   1      37.185  10.138  13.358  0.00  0.00     0.104 C 
HETATM   14  N   UNK N   1      37.724   9.226  12.891  0.00  0.00    -0.191 NA
ENDROOT
BRANCH   6  15
HETATM   15  N   UNK N   1      36.640  12.448  11.720  0.00  0.00    -0.372 N 
HETATM   16  C   UNK N   1      37.922  12.911  11.233  0.00  0.00     0.157 C 
HETATM   17  C   UNK N   1      37.600  13.341   9.830  0.00  0.00     0.163 C 
HETATM   18  O   UNK N   1      38.718  13.399   8.961  0.00  0.00    -0.381 OA
HETATM   19  C   UNK N   1      36.561  12.307   9.425  0.00  0.00     0.125 C 
HETATM   20  C   UNK N   1      38.396  12.938   7.650  0.00  0.00     0.187 C 
HETATM   21  C   UNK N   1      36.924  13.203   7.214  0.00  0.00     0.140 C 
HETATM   22  N   UNK N   1      35.911  12.739   8.191  0.00  0.00    -0.411 N 
HETATM   23  H   UNK N   1      34.905  12.723   8.025  0.00  0.00     0.153 HD
HETATM   24  C   UNK N   1      35.681  12.216  10.658  0.00  0.00     0.150 C 
ENDBRANCH   6  15
BRANCH   2  25
HETATM   25  C   UNK N   1      36.918   8.975  15.798  0.00  0.00     0.090 A 
HETATM   26  C   UNK N   1      35.882   7.853  15.814  0.00  0.00     0.028 A 
HETATM   27  C   UNK N   1      36.889   7.972  16.937  0.00  0.00     0.028 A 
ENDBRANCH   2  25
BRANCH   9  28
HETATM   28  C   UNK N   1      35.294  11.708  19.557  0.00  0.00     0.181 C 
HETATM   29  O   UNK N   1      34.753  10.781  20.139  0.00  0.00    -0.646 OA
BRANCH  28  30
HETATM   30  O   UNK N   1      35.616  12.818  20.249  0.00  0.00    -0.772 OA
HETATM   31  H   UNK N   1      35.392  13.662  19.912  0.00  0.00     0.167 HD
ENDBRANCH  28  30
ENDBRANCH   9  28
TORSDOF 4
ENDMDL
