MODEL 1
REMARK VINA RESULT:      -5.2      0.000      0.000
REMARK  5 active torsions:
REMARK  status: ('A' for Active; 'I' for Inactive)
REMARK    1  A    between atoms: C_11  and  C_10 
REMARK    2  A    between atoms: N_16  and  C_10 
REMARK    3  A    between atoms: O_17  and  C_12 
REMARK    4  A    between atoms: O_18  and  C_13 
REMARK    5  A    between atoms: O_19  and  C_14 
ROOT
HETATM    1  C   UNK N   1      33.801  17.466   6.535  0.00  0.00     0.014 A 
HETATM    2  C   UNK N   1      33.231  17.369   5.276  0.00  0.00     0.040 A 
HETATM    3  C   UNK N   1      33.019  17.437   7.684  0.00  0.00     0.006 A 
HETATM    4  C   UNK N   1      31.856  17.212   5.118  0.00  0.00     0.104 A 
HETATM    5  C   UNK N   1      31.606  17.319   7.574  0.00  0.00     0.112 A 
HETATM    6  C   UNK N   1      31.017  17.183   6.269  0.00  0.00     0.135 A 
ENDROOT
BRANCH   3   7
HETATM    7  C   UNK N   1      33.768  17.494   8.997  0.00  0.00     0.314 C 
BRANCH   7   8
HETATM    8  N   UNK N   1      34.580  16.327   9.307  0.00  0.00     0.095 N 
HETATM    9  C   UNK N   1      33.645  15.258   9.670  0.00  0.00     0.292 C 
HETATM   10  C   UNK N   1      34.407  14.042  10.204  0.00  0.00     0.144 C 
HETATM   11  N   UNK N   1      35.189  14.418  11.381  0.00  0.00    -0.418 N 
HETATM   12  C   UNK N   1      36.130  15.467  10.999  0.00  0.00     0.144 C 
HETATM   13  H   UNK N   1      35.093  14.015  12.313  0.00  0.00     0.153 HD
HETATM   14  C   UNK N   1      35.354  16.681  10.500  0.00  0.00     0.292 C 
ENDBRANCH   7   8
ENDBRANCH   3   7
BRANCH   5  15
HETATM   15  O   UNK N   1      30.874  17.348   8.718  0.00  0.00    -0.352 OA
HETATM   16  C   UNK N   1      30.227  18.452   9.222  0.00  0.00     0.210 C 
ENDBRANCH   5  15
BRANCH   6  17
HETATM   17  O   UNK N   1      29.683  17.004   6.086  0.00  0.00    -0.351 OA
HETATM   18  C   UNK N   1      28.799  18.032   5.846  0.00  0.00     0.210 C 
ENDBRANCH   6  17
BRANCH   4  19
HETATM   19  O   UNK N   1      31.399  17.064   3.846  0.00  0.00    -0.353 OA
HETATM   20  C   UNK N   1      32.171  16.891   2.720  0.00  0.00     0.210 C 
ENDBRANCH   4  19
TORSDOF 5
ENDMDL
MODEL 2
REMARK VINA RESULT:      -5.2      3.496      6.583
REMARK  5 active torsions:
REMARK  status: ('A' for Active; 'I' for Inactive)
REMARK    1  A    between atoms: C_11  and  C_10 
REMARK    2  A    between atoms: N_16  and  C_10 
REMARK    3  A    between atoms: O_17  and  C_12 
REMARK    4  A    between atoms: O_18  and  C_13 
REMARK    5  A    between atoms: O_19  and  C_14 
ROOT
HETATM    1  C   UNK N   1      30.940  17.266   4.868  0.00  0.00     0.014 A 
HETATM    2  C   UNK N   1      32.310  17.063   4.876  0.00  0.00     0.040 A 
HETATM    3  C   UNK N   1      30.219  17.360   6.054  0.00  0.00     0.006 A 
HETATM    4  C   UNK N   1      33.018  16.971   6.072  0.00  0.00     0.104 A 
HETATM    5  C   UNK N   1      30.891  17.232   7.300  0.00  0.00     0.112 A 
HETATM    6  C   UNK N   1      32.318  17.055   7.309  0.00  0.00     0.135 A 
ENDROOT
BRANCH   3   7
HETATM    7  C   UNK N   1      28.740  17.640   5.909  0.00  0.00     0.314 C 
BRANCH   7   8
HETATM    8  N   UNK N   1      28.399  18.939   5.350  0.00  0.00     0.095 N 
HETATM    9  C   UNK N   1      27.721  19.682   6.416  0.00  0.00     0.292 C 
HETATM   10  C   UNK N   1      27.146  20.993   5.871  0.00  0.00     0.144 C 
HETATM   11  N   UNK N   1      26.193  20.713   4.798  0.00  0.00    -0.418 N 
HETATM   12  C   UNK N   1      26.887  19.993   3.734  0.00  0.00     0.144 C 
HETATM   13  H   UNK N   1      25.208  20.977   4.793  0.00  0.00     0.153 HD
HETATM   14  C   UNK N   1      27.425  18.677   4.287  0.00  0.00     0.292 C 
ENDBRANCH   7   8
ENDBRANCH   3   7
BRANCH   5  15
HETATM   15  O   UNK N   1      30.142  17.275   8.433  0.00  0.00    -0.352 OA
HETATM   16  C   UNK N   1      30.001  18.370   9.254  0.00  0.00     0.210 C 
ENDBRANCH   5  15
BRANCH   6  17
HETATM   17  O   UNK N   1      33.037  16.987   8.460  0.00  0.00    -0.351 OA
HETATM   18  C   UNK N   1      33.270  15.818   9.148  0.00  0.00     0.210 C 
ENDBRANCH   6  17
BRANCH   4  19
HETATM   19  O   UNK N   1      34.368  16.832   5.976  0.00  0.00    -0.353 OA
HETATM   20  C   UNK N   1      35.057  15.646   5.864  0.00  0.00     0.210 C 
ENDBRANCH   4  19
TORSDOF 5
ENDMDL
MODEL 3
REMARK VINA RESULT:      -5.1      3.074      5.715
REMARK  5 active torsions:
REMARK  status: ('A' for Active; 'I' for Inactive)
REMARK    1  A    between atoms: C_11  and  C_10 
REMARK    2  A    between atoms: N_16  and  C_10 
REMARK    3  A    between atoms: O_17  and  C_12 
REMARK    4  A    between atoms: O_18  and  C_13 
REMARK    5  A    between atoms: O_19  and  C_14 
ROOT
HETATM    1  C   UNK N   1      33.362  16.170   9.278  0.00  0.00     0.014 A 
HETATM    2  C   UNK N   1      34.275  15.128   9.291  0.00  0.00     0.040 A 
HETATM    3  C   UNK N   1      33.238  17.005   8.173  0.00  0.00     0.006 A 
HETATM    4  C   UNK N   1      35.082  14.864   8.188  0.00  0.00     0.104 A 
HETATM    5  C   UNK N   1      34.068  16.801   7.038  0.00  0.00     0.112 A 
HETATM    6  C   UNK N   1      34.992  15.699   7.037  0.00  0.00     0.135 A 
ENDROOT
BRANCH   3   7
HETATM    7  C   UNK N   1      32.165  18.068   8.263  0.00  0.00     0.314 C 
BRANCH   7   8
HETATM    8  N   UNK N   1      30.816  17.579   8.505  0.00  0.00     0.095 N 
HETATM    9  C   UNK N   1      30.189  17.432   7.189  0.00  0.00     0.292 C 
HETATM   10  C   UNK N   1      28.699  17.109   7.341  0.00  0.00     0.144 C 
HETATM   11  N   UNK N   1      28.028  18.179   8.078  0.00  0.00    -0.418 N 
HETATM   12  C   UNK N   1      28.649  18.298   9.395  0.00  0.00     0.144 C 
HETATM   13  H   UNK N   1      27.255  18.746   7.731  0.00  0.00     0.153 HD
HETATM   14  C   UNK N   1      30.123  18.651   9.224  0.00  0.00     0.292 C 
ENDBRANCH   7   8
ENDBRANCH   3   7
BRANCH   5  15
HETATM   15  O   UNK N   1      33.953  17.672   6.001  0.00  0.00    -0.352 OA
HETATM   16  C   UNK N   1      33.192  17.472   4.873  0.00  0.00     0.210 C 
ENDBRANCH   5  15
BRANCH   6  17
HETATM   17  O   UNK N   1      35.774  15.403   5.966  0.00  0.00    -0.351 OA
HETATM   18  C   UNK N   1      35.432  14.485   5.000  0.00  0.00     0.210 C 
ENDBRANCH   6  17
BRANCH   4  19
HETATM   19  O   UNK N   1      35.903  13.783   8.274  0.00  0.00    -0.353 OA
HETATM   20  C   UNK N   1      36.313  13.165   9.433  0.00  0.00     0.210 C 
ENDBRANCH   4  19
TORSDOF 5
ENDMDL
MODEL 4
REMARK VINA RESULT:      -5.1      1.407      3.090
REMARK  5 active torsions:
REMARK  status: ('A' for Active; 'I' for Inactive)
REMARK    1  A    between atoms: C_11  and  C_10 
REMARK    2  A    between atoms: N_16  and  C_10 
REMARK    3  A    between atoms: O_17  and  C_12 
REMARK    4  A    between atoms: O_18  and  C_13 
REMARK    5  A    between atoms: O_19  and  C_14 
ROOT
HETATM    1  C   UNK N   1      32.094  17.378   8.604  0.00  0.00     0.014 A 
HETATM    2  C   UNK N   1      30.885  17.416   7.930  0.00  0.00     0.040 A 
HETATM    3  C   UNK N   1      33.289  17.163   7.926  0.00  0.00     0.006 A 
HETATM    4  C   UNK N   1      30.825  17.267   6.547  0.00  0.00     0.104 A 
HETATM    5  C   UNK N   1      33.277  16.966   6.519  0.00  0.00     0.112 A 
HETATM    6  C   UNK N   1      32.026  17.040   5.815  0.00  0.00     0.135 A 
ENDROOT
BRANCH   3   7
HETATM    7  C   UNK N   1      34.545  17.201   8.769  0.00  0.00     0.314 C 
BRANCH   7   8
HETATM    8  N   UNK N   1      34.693  16.113   9.724  0.00  0.00     0.095 N 
HETATM    9  C   UNK N   1      35.439  16.660  10.860  0.00  0.00     0.292 C 
HETATM   10  C   UNK N   1      35.819  15.542  11.836  0.00  0.00     0.144 C 
HETATM   11  N   UNK N   1      36.641  14.541  11.156  0.00  0.00    -0.418 N 
HETATM   12  C   UNK N   1      35.875  13.990  10.041  0.00  0.00     0.144 C 
HETATM   13  H   UNK N   1      37.589  14.273  11.418  0.00  0.00     0.153 HD
HETATM   14  C   UNK N   1      35.534  15.111   9.065  0.00  0.00     0.292 C 
ENDBRANCH   7   8
ENDBRANCH   3   7
BRANCH   5  15
HETATM   15  O   UNK N   1      34.460  16.706   5.903  0.00  0.00    -0.352 OA
HETATM   16  C   UNK N   1      34.924  15.456   5.562  0.00  0.00     0.210 C 
ENDBRANCH   5  15
BRANCH   6  17
HETATM   17  O   UNK N   1      31.941  16.923   4.463  0.00  0.00    -0.351 OA
HETATM   18  C   UNK N   1      31.710  15.733   3.812  0.00  0.00     0.210 C 
ENDBRANCH   6  17
BRANCH   4  19
HETATM   19  O   UNK N   1      29.599  17.381   5.970  0.00  0.00    -0.353 OA
HETATM   20  C   UNK N   1      28.459  17.864   6.573  0.00  0.00     0.210 C 
ENDBRANCH   4  19
TORSDOF 5
ENDMDL
MODEL 5
REMARK VINA RESULT:      -5.0      3.297      6.771
REMARK  5 active torsions:
REMARK  status: ('A' for Active; 'I' for Inactive)
REMARK    1  A    between atoms: C_11  and  C_10 
REMARK    2  A    between atoms: N_16  and  C_10 
REMARK    3  A    between atoms: O_17  and  C_12 
REMARK    4  A    between atoms: O_18  and  C_13 
REMARK    5  A    between atoms: O_19  and  C_14 
ROOT
HETATM    1  C   UNK N   1      31.006  17.640   8.026  0.00  0.00     0.014 A 
HETATM    2  C   UNK N   1      32.238  17.796   8.639  0.00  0.00     0.040 A 
HETATM    3  C   UNK N   1      30.906  17.199   6.711  0.00  0.00     0.006 A 
HETATM    4  C   UNK N   1      33.420  17.491   7.969  0.00  0.00     0.104 A 
HETATM    5  C   UNK N   1      32.086  16.913   5.971  0.00  0.00     0.112 A 
HETATM    6  C   UNK N   1      33.364  17.042   6.618  0.00  0.00     0.135 A 
ENDROOT
BRANCH   3   7
HETATM    7  C   UNK N   1      29.502  17.017   6.178  0.00  0.00     0.314 C 
BRANCH   7   8
HETATM    8  N   UNK N   1      28.884  18.209   5.618  0.00  0.00     0.095 N 
HETATM    9  C   UNK N   1      27.937  18.695   6.625  0.00  0.00     0.292 C 
HETATM   10  C   UNK N   1      27.090  19.836   6.054  0.00  0.00     0.144 C 
HETATM   11  N   UNK N   1      26.350  19.372   4.881  0.00  0.00    -0.418 N 
HETATM   12  C   UNK N   1      27.307  18.912   3.878  0.00  0.00     0.144 C 
HETATM   13  H   UNK N   1      25.335  19.370   4.780  0.00  0.00     0.153 HD
HETATM   14  C   UNK N   1      28.119  17.756   4.453  0.00  0.00     0.292 C 
ENDBRANCH   7   8
ENDBRANCH   3   7
BRANCH   5  15
HETATM   15  O   UNK N   1      31.946  16.537   4.673  0.00  0.00    -0.352 OA
HETATM   16  C   UNK N   1      32.164  17.344   3.581  0.00  0.00     0.210 C 
ENDBRANCH   5  15
BRANCH   6  17
HETATM   17  O   UNK N   1      34.531  16.728   5.997  0.00  0.00    -0.351 OA
HETATM   18  C   UNK N   1      35.033  15.450   5.913  0.00  0.00     0.210 C 
ENDBRANCH   6  17
BRANCH   4  19
HETATM   19  O   UNK N   1      34.575  17.618   8.675  0.00  0.00    -0.353 OA
HETATM   20  C   UNK N   1      34.989  16.808   9.708  0.00  0.00     0.210 C 
ENDBRANCH   4  19
TORSDOF 5
ENDMDL
MODEL 6
REMARK VINA RESULT:      -5.0      2.100      4.303
REMARK  5 active torsions:
REMARK  status: ('A' for Active; 'I' for Inactive)
REMARK    1  A    between atoms: C_11  and  C_10 
REMARK    2  A    between atoms: N_16  and  C_10 
REMARK    3  A    between atoms: O_17  and  C_12 
REMARK    4  A    between atoms: O_18  and  C_13 
REMARK    5  A    between atoms: O_19  and  C_14 
ROOT
HETATM    1  C   UNK N   1      29.332  18.103   8.173  0.00  0.00     0.014 A 
HETATM    2  C   UNK N   1      28.336  19.032   7.921  0.00  0.00     0.040 A 
HETATM    3  C   UNK N   1      29.858  17.318   7.153  0.00  0.00     0.006 A 
HETATM    4  C   UNK N   1      27.845  19.232   6.634  0.00  0.00     0.104 A 
HETATM    5  C   UNK N   1      29.362  17.456   5.828  0.00  0.00     0.112 A 
HETATM    6  C   UNK N   1      28.352  18.444   5.561  0.00  0.00     0.135 A 
ENDROOT
BRANCH   3   7
HETATM    7  C   UNK N   1      30.980  16.384   7.549  0.00  0.00     0.314 C 
BRANCH   7   8
HETATM    8  N   UNK N   1      32.062  16.989   8.311  0.00  0.00     0.095 N 
HETATM    9  C   UNK N   1      32.899  17.704   7.344  0.00  0.00     0.292 C 
HETATM   10  C   UNK N   1      34.176  18.214   8.018  0.00  0.00     0.144 C 
HETATM   11  N   UNK N   1      34.932  17.092   8.573  0.00  0.00    -0.418 N 
HETATM   12  C   UNK N   1      34.093  16.403   9.551  0.00  0.00     0.144 C 
HETATM   13  H   UNK N   1      35.885  16.833   8.320  0.00  0.00     0.153 HD
HETATM   14  C   UNK N   1      32.843  15.875   8.856  0.00  0.00     0.292 C 
ENDBRANCH   7   8
ENDBRANCH   3   7
BRANCH   5  15
HETATM   15  O   UNK N   1      29.865  16.632   4.872  0.00  0.00    -0.352 OA
HETATM   16  C   UNK N   1      30.909  16.934   4.028  0.00  0.00     0.210 C 
ENDBRANCH   5  15
BRANCH   6  17
HETATM   17  O   UNK N   1      27.873  18.677   4.311  0.00  0.00    -0.351 OA
HETATM   18  C   UNK N   1      26.782  18.030   3.777  0.00  0.00     0.210 C 
ENDBRANCH   6  17
BRANCH   4  19
HETATM   19  O   UNK N   1      26.912  20.209   6.478  0.00  0.00    -0.353 OA
HETATM   20  C   UNK N   1      27.162  21.547   6.275  0.00  0.00     0.210 C 
ENDBRANCH   4  19
TORSDOF 5
ENDMDL
MODEL 7
REMARK VINA RESULT:      -4.9      3.139      5.957
REMARK  5 active torsions:
REMARK  status: ('A' for Active; 'I' for Inactive)
REMARK    1  A    between atoms: C_11  and  C_10 
REMARK    2  A    between atoms: N_16  and  C_10 
REMARK    3  A    between atoms: O_17  and  C_12 
REMARK    4  A    between atoms: O_18  and  C_13 
REMARK    5  A    between atoms: O_19  and  C_14 
ROOT
HETATM    1  C   UNK N   1      32.481  14.633   7.665  0.00  0.00     0.014 A 
HETATM    2  C   UNK N   1      33.407  13.672   8.036  0.00  0.00     0.040 A 
HETATM    3  C   UNK N   1      32.674  15.975   7.970  0.00  0.00     0.006 A 
HETATM    4  C   UNK N   1      34.577  14.020   8.705  0.00  0.00     0.104 A 
HETATM    5  C   UNK N   1      33.834  16.376   8.687  0.00  0.00     0.112 A 
HETATM    6  C   UNK N   1      34.812  15.384   9.042  0.00  0.00     0.135 A 
ENDROOT
BRANCH   3   7
HETATM    7  C   UNK N   1      31.618  16.930   7.459  0.00  0.00     0.314 C 
BRANCH   7   8
HETATM    8  N   UNK N   1      30.408  17.017   8.264  0.00  0.00     0.095 N 
HETATM    9  C   UNK N   1      29.287  17.045   7.321  0.00  0.00     0.292 C 
HETATM   10  C   UNK N   1      27.976  17.333   8.061  0.00  0.00     0.144 C 
HETATM   11  N   UNK N   1      28.062  18.622   8.746  0.00  0.00    -0.418 N 
HETATM   12  C   UNK N   1      29.169  18.571   9.697  0.00  0.00     0.144 C 
HETATM   13  H   UNK N   1      27.450  19.422   8.588  0.00  0.00     0.153 HD
HETATM   14  C   UNK N   1      30.469  18.315   8.941  0.00  0.00     0.292 C 
ENDBRANCH   7   8
ENDBRANCH   3   7
BRANCH   5  15
HETATM   15  O   UNK N   1      33.959  17.690   9.012  0.00  0.00    -0.352 OA
HETATM   16  C   UNK N   1      34.694  18.618   8.312  0.00  0.00     0.210 C 
ENDBRANCH   5  15
BRANCH   6  17
HETATM   17  O   UNK N   1      35.975  15.698   9.673  0.00  0.00    -0.351 OA
HETATM   18  C   UNK N   1      36.080  15.887  11.032  0.00  0.00     0.210 C 
ENDBRANCH   6  17
BRANCH   4  19
HETATM   19  O   UNK N   1      35.453  13.014   8.973  0.00  0.00    -0.353 OA
HETATM   20  C   UNK N   1      35.227  11.670   8.785  0.00  0.00     0.210 C 
ENDBRANCH   4  19
TORSDOF 5
ENDMDL
MODEL 8
REMARK VINA RESULT:      -4.8     10.951     13.023
REMARK  5 active torsions:
REMARK  status: ('A' for Active; 'I' for Inactive)
REMARK    1  A    between atoms: C_11  and  C_10 
REMARK    2  A    between atoms: N_16  and  C_10 
REMARK    3  A    between atoms: O_17  and  C_12 
REMARK    4  A    between atoms: O_18  and  C_13 
REMARK    5  A    between atoms: O_19  and  C_14 
ROOT
HETATM    1  C   UNK N   1      22.763  15.950   5.762  0.00  0.00     0.014 A 
HETATM    2  C   UNK N   1      23.091  14.688   6.228  0.00  0.00     0.040 A 
HETATM    3  C   UNK N   1      21.594  16.585   6.166  0.00  0.00     0.006 A 
HETATM    4  C   UNK N   1      22.275  14.020   7.137  0.00  0.00     0.104 A 
HETATM    5  C   UNK N   1      20.707  15.928   7.062  0.00  0.00     0.112 A 
HETATM    6  C   UNK N   1      21.065  14.632   7.572  0.00  0.00     0.135 A 
ENDROOT
BRANCH   3   7
HETATM    7  C   UNK N   1      21.381  17.983   5.630  0.00  0.00     0.314 C 
BRANCH   7   8
HETATM    8  N   UNK N   1      21.356  18.103   4.179  0.00  0.00     0.095 N 
HETATM    9  C   UNK N   1      21.259  19.535   3.885  0.00  0.00     0.292 C 
HETATM   10  C   UNK N   1      21.028  19.757   2.387  0.00  0.00     0.144 C 
HETATM   11  N   UNK N   1      19.795  19.093   1.967  0.00  0.00    -0.418 N 
HETATM   12  C   UNK N   1      19.915  17.665   2.246  0.00  0.00     0.144 C 
HETATM   13  H   UNK N   1      18.986  19.551   1.548  0.00  0.00     0.153 HD
HETATM   14  C   UNK N   1      20.112  17.461   3.744  0.00  0.00     0.292 C 
ENDBRANCH   7   8
ENDBRANCH   3   7
BRANCH   5  15
HETATM   15  O   UNK N   1      19.550  16.561   7.389  0.00  0.00    -0.352 OA
HETATM   16  C   UNK N   1      19.330  17.272   8.545  0.00  0.00     0.210 C 
ENDBRANCH   5  15
BRANCH   6  17
HETATM   17  O   UNK N   1      20.300  13.969   8.479  0.00  0.00    -0.351 OA
HETATM   18  C   UNK N   1      20.539  13.979   9.834  0.00  0.00     0.210 C 
ENDBRANCH   6  17
BRANCH   4  19
HETATM   19  O   UNK N   1      22.713  12.812   7.582  0.00  0.00    -0.353 OA
HETATM   20  C   UNK N   1      22.522  11.599   6.960  0.00  0.00     0.210 C 
ENDBRANCH   4  19
TORSDOF 5
ENDMDL
MODEL 9
REMARK VINA RESULT:      -4.8      9.790     13.093
REMARK  5 active torsions:
REMARK  status: ('A' for Active; 'I' for Inactive)
REMARK    1  A    between atoms: C_11  and  C_10 
REMARK    2  A    between atoms: N_16  and  C_10 
REMARK    3  A    between atoms: O_17  and  C_12 
REMARK    4  A    between atoms: O_18  and  C_13 
REMARK    5  A    between atoms: O_19  and  C_14 
ROOT
HETATM    1  C   UNK N   1      20.402  16.993   7.188  0.00  0.00     0.014 A 
HETATM    2  C   UNK N   1      20.004  15.997   8.065  0.00  0.00     0.040 A 
HETATM    3  C   UNK N   1      21.485  16.810   6.335  0.00  0.00     0.006 A 
HETATM    4  C   UNK N   1      20.658  14.769   8.106  0.00  0.00     0.104 A 
HETATM    5  C   UNK N   1      22.210  15.588   6.367  0.00  0.00     0.112 A 
HETATM    6  C   UNK N   1      21.776  14.542   7.253  0.00  0.00     0.135 A 
ENDROOT
BRANCH   3   7
HETATM    7  C   UNK N   1      21.781  17.950   5.387  0.00  0.00     0.314 C 
BRANCH   7   8
HETATM    8  N   UNK N   1      20.766  18.207   4.377  0.00  0.00     0.095 N 
HETATM    9  C   UNK N   1      21.020  17.260   3.287  0.00  0.00     0.292 C 
HETATM   10  C   UNK N   1      20.125  17.578   2.085  0.00  0.00     0.144 C 
HETATM   11  N   UNK N   1      20.385  18.938   1.613  0.00  0.00    -0.418 N 
HETATM   12  C   UNK N   1      20.106  19.871   2.702  0.00  0.00     0.144 C 
HETATM   13  H   UNK N   1      20.706  19.193   0.680  0.00  0.00     0.153 HD
HETATM   14  C   UNK N   1      21.027  19.559   3.877  0.00  0.00     0.292 C 
ENDBRANCH   7   8
ENDBRANCH   3   7
BRANCH   5  15
HETATM   15  O   UNK N   1      23.294  15.470   5.556  0.00  0.00    -0.352 OA
HETATM   16  C   UNK N   1      24.602  15.646   5.943  0.00  0.00     0.210 C 
ENDBRANCH   5  15
BRANCH   6  17
HETATM   17  O   UNK N   1      22.379  13.325   7.296  0.00  0.00    -0.351 OA
HETATM   18  C   UNK N   1      22.047  12.277   6.469  0.00  0.00     0.210 C 
ENDBRANCH   6  17
BRANCH   4  19
HETATM   19  O   UNK N   1      20.155  13.835   8.957  0.00  0.00    -0.353 OA
HETATM   20  C   UNK N   1      20.675  13.488  10.183  0.00  0.00     0.210 C 
ENDBRANCH   4  19
TORSDOF 5
ENDMDL
