MODEL 1
REMARK VINA RESULT:      -8.8      0.000      0.000
REMARK  1 active torsions:
REMARK  status: ('A' for Active; 'I' for Inactive)
REMARK    1  A    between atoms: C_4  and  C_8 
ROOT
HETATM    1  C   UNK N   1      26.772  25.587  -3.332  0.00  0.00     0.016 C 
HETATM    2  C   UNK N   1      27.310  26.240  -4.626  0.00  0.00    -0.026 C 
HETATM    3  C   UNK N   1      27.193  25.281  -5.814  0.00  0.00     0.003 C 
HETATM    4  C   UNK N   1      26.373  27.386  -5.064  0.00  0.00     0.024 C 
HETATM    5  C   UNK N   1      28.780  26.624  -4.414  0.00  0.00     0.011 C 
HETATM    6  C   UNK N   1      27.960  23.970  -5.553  0.00  0.00     0.018 C 
HETATM    7  C   UNK N   1      25.689  25.211  -6.046  0.00  0.00     0.007 C 
HETATM    8  C   UNK N   1      26.989  28.224  -6.188  0.00  0.00     0.024 C 
HETATM    9  C   UNK N   1      25.174  26.616  -5.658  0.00  0.00     0.018 C 
HETATM   10  C   UNK N   1      29.638  25.369  -4.199  0.00  0.00     0.007 C 
HETATM   11  C   UNK N   1      29.448  24.316  -5.317  0.00  0.00     0.006 C 
HETATM   12  C   UNK N   1      27.861  23.023  -6.729  0.00  0.00    -0.014 C 
HETATM   13  C   UNK N   1      30.293  23.041  -5.031  0.00  0.00    -0.012 C 
HETATM   14  C   UNK N   1      28.722  22.001  -6.858  0.00  0.00    -0.058 C 
HETATM   15  C   UNK N   1      31.748  23.408  -5.364  0.00  0.00     0.021 C 
HETATM   16  C   UNK N   1      29.848  21.856  -5.891  0.00  0.00    -0.040 C 
HETATM   17  C   UNK N   1      30.241  22.556  -3.573  0.00  0.00     0.022 C 
HETATM   18  C   UNK N   1      28.483  20.983  -7.925  0.00  0.00     0.048 C 
HETATM   19  C   UNK N   1      30.410  20.649  -5.690  0.00  0.00     0.058 C 
HETATM   20  C   UNK N   1      31.251  21.405  -3.353  0.00  0.00     0.084 C 
HETATM   21  C   UNK N   1      31.293  20.439  -4.520  0.00  0.00     0.149 C 
HETATM   22  O   UNK N   1      31.998  19.445  -4.459  0.00  0.00    -0.293 OA
ENDROOT
BRANCH   4  23
HETATM   23  C   UNK N   1      26.007  28.330  -3.932  0.00  0.00     0.132 C 
HETATM   24  C   UNK N   1      26.494  29.743  -3.912  0.00  0.00     0.091 C 
HETATM   25  O   UNK N   1      25.294  27.938  -3.021  0.00  0.00    -0.298 OA
ENDBRANCH   4  23
TORSDOF 1
ENDMDL
MODEL 2
REMARK VINA RESULT:      -8.3     12.045     14.585
REMARK  1 active torsions:
REMARK  status: ('A' for Active; 'I' for Inactive)
REMARK    1  A    between atoms: C_4  and  C_8 
ROOT
HETATM    1  C   UNK N   1      28.755  16.528   3.389  0.00  0.00     0.016 C 
HETATM    2  C   UNK N   1      28.284  15.486   4.430  0.00  0.00    -0.026 C 
HETATM    3  C   UNK N   1      28.017  16.146   5.785  0.00  0.00     0.003 C 
HETATM    4  C   UNK N   1      26.879  14.971   4.057  0.00  0.00     0.024 C 
HETATM    5  C   UNK N   1      29.370  14.413   4.583  0.00  0.00     0.011 C 
HETATM    6  C   UNK N   1      29.275  16.861   6.318  0.00  0.00     0.018 C 
HETATM    7  C   UNK N   1      26.768  16.975   5.518  0.00  0.00     0.007 C 
HETATM    8  C   UNK N   1      26.474  13.761   4.906  0.00  0.00     0.024 C 
HETATM    9  C   UNK N   1      25.978  16.154   4.472  0.00  0.00     0.018 C 
HETATM   10  C   UNK N   1      30.653  15.024   5.164  0.00  0.00     0.007 C 
HETATM   11  C   UNK N   1      30.401  15.813   6.471  0.00  0.00     0.006 C 
HETATM   12  C   UNK N   1      29.023  17.502   7.664  0.00  0.00    -0.014 C 
HETATM   13  C   UNK N   1      31.716  16.459   6.994  0.00  0.00    -0.012 C 
HETATM   14  C   UNK N   1      30.047  17.864   8.453  0.00  0.00    -0.058 C 
HETATM   15  C   UNK N   1      32.536  15.318   7.617  0.00  0.00     0.021 C 
HETATM   16  C   UNK N   1      31.444  17.537   8.046  0.00  0.00    -0.040 C 
HETATM   17  C   UNK N   1      32.573  17.128   5.907  0.00  0.00     0.022 C 
HETATM   18  C   UNK N   1      29.767  18.659   9.687  0.00  0.00     0.048 C 
HETATM   19  C   UNK N   1      32.471  18.265   8.522  0.00  0.00     0.058 C 
HETATM   20  C   UNK N   1      33.935  17.573   6.493  0.00  0.00     0.084 C 
HETATM   21  C   UNK N   1      33.804  18.157   7.886  0.00  0.00     0.149 C 
HETATM   22  O   UNK N   1      34.787  18.610   8.448  0.00  0.00    -0.293 OA
ENDROOT
BRANCH   4  23
HETATM   23  C   UNK N   1      26.750  14.574   2.597  0.00  0.00     0.132 C 
HETATM   24  C   UNK N   1      25.936  15.384   1.641  0.00  0.00     0.091 C 
HETATM   25  O   UNK N   1      27.326  13.578   2.186  0.00  0.00    -0.298 OA
ENDBRANCH   4  23
TORSDOF 1
ENDMDL
MODEL 3
REMARK VINA RESULT:      -8.0     25.076     28.861
REMARK  1 active torsions:
REMARK  status: ('A' for Active; 'I' for Inactive)
REMARK    1  A    between atoms: C_4  and  C_8 
ROOT
HETATM    1  C   UNK N   1      32.885   8.499  19.562  0.00  0.00     0.016 C 
HETATM    2  C   UNK N   1      34.348   8.613  20.049  0.00  0.00    -0.026 C 
HETATM    3  C   UNK N   1      34.763  10.079  20.199  0.00  0.00     0.003 C 
HETATM    4  C   UNK N   1      34.456   8.113  21.505  0.00  0.00     0.024 C 
HETATM    5  C   UNK N   1      35.264   7.918  19.034  0.00  0.00     0.011 C 
HETATM    6  C   UNK N   1      34.611  10.844  18.869  0.00  0.00     0.018 C 
HETATM    7  C   UNK N   1      33.949  10.541  21.400  0.00  0.00     0.007 C 
HETATM    8  C   UNK N   1      35.915   7.968  21.947  0.00  0.00     0.024 C 
HETATM    9  C   UNK N   1      33.842   9.287  22.298  0.00  0.00     0.018 C 
HETATM   10  C   UNK N   1      35.221   8.646  17.683  0.00  0.00     0.007 C 
HETATM   11  C   UNK N   1      35.509  10.161  17.812  0.00  0.00     0.006 C 
HETATM   12  C   UNK N   1      35.035  12.289  19.006  0.00  0.00    -0.014 C 
HETATM   13  C   UNK N   1      35.403  10.868  16.429  0.00  0.00    -0.012 C 
HETATM   14  C   UNK N   1      35.313  13.027  17.919  0.00  0.00    -0.058 C 
HETATM   15  C   UNK N   1      36.680  10.498  15.659  0.00  0.00     0.021 C 
HETATM   16  C   UNK N   1      35.305  12.388  16.571  0.00  0.00    -0.040 C 
HETATM   17  C   UNK N   1      34.192  10.437  15.586  0.00  0.00     0.022 C 
HETATM   18  C   UNK N   1      35.547  14.494  18.079  0.00  0.00     0.048 C 
HETATM   19  C   UNK N   1      35.101  13.140  15.473  0.00  0.00     0.058 C 
HETATM   20  C   UNK N   1      34.278  11.052  14.168  0.00  0.00     0.084 C 
HETATM   21  C   UNK N   1      34.777  12.483  14.186  0.00  0.00     0.149 C 
HETATM   22  O   UNK N   1      34.835  13.118  13.146  0.00  0.00    -0.293 OA
ENDROOT
BRANCH   4  23
HETATM   23  C   UNK N   1      33.769   6.779  21.736  0.00  0.00     0.132 C 
HETATM   24  C   UNK N   1      32.497   6.685  22.515  0.00  0.00     0.091 C 
HETATM   25  O   UNK N   1      34.255   5.758  21.274  0.00  0.00    -0.298 OA
ENDBRANCH   4  23
TORSDOF 1
ENDMDL
MODEL 4
REMARK VINA RESULT:      -7.7     14.475     16.644
REMARK  1 active torsions:
REMARK  status: ('A' for Active; 'I' for Inactive)
REMARK    1  A    between atoms: C_4  and  C_8 
ROOT
HETATM    1  C   UNK N   1      26.537  16.042   6.092  0.00  0.00     0.016 C 
HETATM    2  C   UNK N   1      25.627  15.351   5.051  0.00  0.00    -0.026 C 
HETATM    3  C   UNK N   1      24.149  15.592   5.368  0.00  0.00     0.003 C 
HETATM    4  C   UNK N   1      25.766  16.056   3.685  0.00  0.00     0.024 C 
HETATM    5  C   UNK N   1      25.919  13.845   5.058  0.00  0.00     0.011 C 
HETATM    6  C   UNK N   1      23.787  15.078   6.776  0.00  0.00     0.018 C 
HETATM    7  C   UNK N   1      23.975  17.075   5.069  0.00  0.00     0.007 C 
HETATM    8  C   UNK N   1      25.085  15.261   2.565  0.00  0.00     0.024 C 
HETATM    9  C   UNK N   1      24.952  17.349   3.902  0.00  0.00     0.018 C 
HETATM   10  C   UNK N   1      25.535  13.230   6.412  0.00  0.00     0.007 C 
HETATM   11  C   UNK N   1      24.083  13.562   6.830  0.00  0.00     0.006 C 
HETATM   12  C   UNK N   1      22.324  15.299   7.090  0.00  0.00    -0.014 C 
HETATM   13  C   UNK N   1      23.755  12.965   8.229  0.00  0.00    -0.012 C 
HETATM   14  C   UNK N   1      21.730  14.628   8.090  0.00  0.00    -0.058 C 
HETATM   15  C   UNK N   1      23.550  11.457   8.014  0.00  0.00     0.021 C 
HETATM   16  C   UNK N   1      22.490  13.580   8.831  0.00  0.00    -0.040 C 
HETATM   17  C   UNK N   1      24.864  13.154   9.277  0.00  0.00     0.022 C 
HETATM   18  C   UNK N   1      20.340  15.004   8.490  0.00  0.00     0.048 C 
HETATM   19  C   UNK N   1      22.128  13.247  10.084  0.00  0.00     0.058 C 
HETATM   20  C   UNK N   1      24.524  12.371  10.568  0.00  0.00     0.084 C 
HETATM   21  C   UNK N   1      23.054  12.457  10.928  0.00  0.00     0.149 C 
HETATM   22  O   UNK N   1      22.651  11.942  11.957  0.00  0.00    -0.293 OA
ENDROOT
BRANCH   4  23
HETATM   23  C   UNK N   1      27.209  16.290   3.272  0.00  0.00     0.132 C 
HETATM   24  C   UNK N   1      28.010  15.219   2.605  0.00  0.00     0.091 C 
HETATM   25  O   UNK N   1      27.730  17.376   3.478  0.00  0.00    -0.298 OA
ENDBRANCH   4  23
TORSDOF 1
ENDMDL
MODEL 5
REMARK VINA RESULT:      -7.6     23.045     26.829
REMARK  1 active torsions:
REMARK  status: ('A' for Active; 'I' for Inactive)
REMARK    1  A    between atoms: C_4  and  C_8 
ROOT
HETATM    1  C   UNK N   1      37.789  11.095  14.448  0.00  0.00     0.016 C 
HETATM    2  C   UNK N   1      36.286  11.370  14.212  0.00  0.00    -0.026 C 
HETATM    3  C   UNK N   1      35.739  12.353  15.250  0.00  0.00     0.003 C 
HETATM    4  C   UNK N   1      36.099  12.168  12.905  0.00  0.00     0.024 C 
HETATM    5  C   UNK N   1      35.519  10.044  14.301  0.00  0.00     0.011 C 
HETATM    6  C   UNK N   1      35.937  11.822  16.684  0.00  0.00     0.018 C 
HETATM    7  C   UNK N   1      36.409  13.664  14.861  0.00  0.00     0.007 C 
HETATM    8  C   UNK N   1      34.625  12.247  12.495  0.00  0.00     0.024 C 
HETATM    9  C   UNK N   1      36.544  13.586  13.323  0.00  0.00     0.018 C 
HETATM   10  C   UNK N   1      35.613   9.462  15.719  0.00  0.00     0.007 C 
HETATM   11  C   UNK N   1      35.190  10.474  16.809  0.00  0.00     0.006 C 
HETATM   12  C   UNK N   1      35.384  12.782  17.714  0.00  0.00    -0.014 C 
HETATM   13  C   UNK N   1      35.352   9.862  18.231  0.00  0.00    -0.012 C 
HETATM   14  C   UNK N   1      35.137  12.371  18.968  0.00  0.00    -0.058 C 
HETATM   15  C   UNK N   1      34.179   8.887  18.413  0.00  0.00     0.021 C 
HETATM   16  C   UNK N   1      35.310  10.933  19.323  0.00  0.00    -0.040 C 
HETATM   17  C   UNK N   1      36.661   9.084  18.443  0.00  0.00     0.022 C 
HETATM   18  C   UNK N   1      34.769  13.385  20.003  0.00  0.00     0.048 C 
HETATM   19  C   UNK N   1      35.542  10.579  20.601  0.00  0.00     0.058 C 
HETATM   20  C   UNK N   1      36.643   8.364  19.813  0.00  0.00     0.084 C 
HETATM   21  C   UNK N   1      36.026   9.214  20.907  0.00  0.00     0.149 C 
HETATM   22  O   UNK N   1      36.003   8.801  22.054  0.00  0.00    -0.293 OA
ENDROOT
BRANCH   4  23
HETATM   23  C   UNK N   1      36.873  11.593  11.731  0.00  0.00     0.132 C 
HETATM   24  C   UNK N   1      37.973  12.363  11.075  0.00  0.00     0.091 C 
HETATM   25  O   UNK N   1      36.602  10.478  11.314  0.00  0.00    -0.298 OA
ENDBRANCH   4  23
TORSDOF 1
ENDMDL
MODEL 6
REMARK VINA RESULT:      -7.5      1.536      6.799
REMARK  1 active torsions:
REMARK  status: ('A' for Active; 'I' for Inactive)
REMARK    1  A    between atoms: C_4  and  C_8 
ROOT
HETATM    1  C   UNK N   1      31.909  23.480  -5.590  0.00  0.00     0.016 C 
HETATM    2  C   UNK N   1      31.198  22.225  -5.033  0.00  0.00    -0.026 C 
HETATM    3  C   UNK N   1      30.003  21.839  -5.907  0.00  0.00     0.003 C 
HETATM    4  C   UNK N   1      32.110  20.992  -5.196  0.00  0.00     0.024 C 
HETATM    5  C   UNK N   1      30.721  22.519  -3.605  0.00  0.00     0.011 C 
HETATM    6  C   UNK N   1      28.985  22.993  -6.009  0.00  0.00     0.018 C 
HETATM    7  C   UNK N   1      30.665  21.339  -7.185  0.00  0.00     0.007 C 
HETATM    8  C   UNK N   1      31.563  19.778  -4.437  0.00  0.00     0.024 C 
HETATM    9  C   UNK N   1      31.986  20.693  -6.706  0.00  0.00     0.018 C 
HETATM   10  C   UNK N   1      29.656  23.626  -3.610  0.00  0.00     0.007 C 
HETATM   11  C   UNK N   1      28.491  23.330  -4.584  0.00  0.00     0.006 C 
HETATM   12  C   UNK N   1      27.794  22.612  -6.859  0.00  0.00    -0.014 C 
HETATM   13  C   UNK N   1      27.465  24.501  -4.597  0.00  0.00    -0.012 C 
HETATM   14  C   UNK N   1      26.653  23.317  -6.794  0.00  0.00    -0.058 C 
HETATM   15  C   UNK N   1      26.659  24.378  -3.295  0.00  0.00     0.021 C 
HETATM   16  C   UNK N   1      26.523  24.421  -5.800  0.00  0.00    -0.040 C 
HETATM   17  C   UNK N   1      28.098  25.901  -4.640  0.00  0.00     0.022 C 
HETATM   18  C   UNK N   1      25.565  23.028  -7.777  0.00  0.00     0.048 C 
HETATM   19  C   UNK N   1      25.644  25.418  -6.015  0.00  0.00     0.058 C 
HETATM   20  C   UNK N   1      27.012  26.988  -4.464  0.00  0.00     0.084 C 
HETATM   21  C   UNK N   1      25.735  26.660  -5.213  0.00  0.00     0.149 C 
HETATM   22  O   UNK N   1      24.813  27.458  -5.218  0.00  0.00    -0.293 OA
ENDROOT
BRANCH   4  23
HETATM   23  C   UNK N   1      33.534  21.227  -4.724  0.00  0.00     0.132 C 
HETATM   24  C   UNK N   1      33.943  20.938  -3.316  0.00  0.00     0.091 C 
HETATM   25  O   UNK N   1      34.369  21.655  -5.505  0.00  0.00    -0.298 OA
ENDBRANCH   4  23
TORSDOF 1
ENDMDL
MODEL 7
REMARK VINA RESULT:      -7.5      2.681      7.182
REMARK  1 active torsions:
REMARK  status: ('A' for Active; 'I' for Inactive)
REMARK    1  A    between atoms: C_4  and  C_8 
ROOT
HETATM    1  C   UNK N   1      31.315  19.981  -5.377  0.00  0.00     0.016 C 
HETATM    2  C   UNK N   1      31.885  21.411  -5.518  0.00  0.00    -0.026 C 
HETATM    3  C   UNK N   1      31.020  22.422  -4.762  0.00  0.00     0.003 C 
HETATM    4  C   UNK N   1      33.222  21.519  -4.756  0.00  0.00     0.024 C 
HETATM    5  C   UNK N   1      31.932  21.781  -7.006  0.00  0.00     0.011 C 
HETATM    6  C   UNK N   1      29.564  22.406  -5.269  0.00  0.00     0.018 C 
HETATM    7  C   UNK N   1      31.286  22.073  -3.303  0.00  0.00     0.007 C 
HETATM    8  C   UNK N   1      33.949  22.830  -5.071  0.00  0.00     0.024 C 
HETATM    9  C   UNK N   1      32.754  21.586  -3.286  0.00  0.00     0.018 C 
HETATM   10  C   UNK N   1      30.513  21.844  -7.590  0.00  0.00     0.007 C 
HETATM   11  C   UNK N   1      29.571  22.760  -6.773  0.00  0.00     0.006 C 
HETATM   12  C   UNK N   1      28.708  23.415  -4.536  0.00  0.00    -0.014 C 
HETATM   13  C   UNK N   1      28.133  22.751  -7.368  0.00  0.00    -0.012 C 
HETATM   14  C   UNK N   1      27.529  23.808  -5.043  0.00  0.00    -0.058 C 
HETATM   15  C   UNK N   1      28.188  23.620  -8.635  0.00  0.00     0.021 C 
HETATM   16  C   UNK N   1      27.106  23.326  -6.390  0.00  0.00    -0.040 C 
HETATM   17  C   UNK N   1      27.615  21.358  -7.763  0.00  0.00     0.022 C 
HETATM   18  C   UNK N   1      26.628  24.660  -4.209  0.00  0.00     0.048 C 
HETATM   19  C   UNK N   1      25.800  23.293  -6.712  0.00  0.00     0.058 C 
HETATM   20  C   UNK N   1      26.265  21.477  -8.509  0.00  0.00     0.084 C 
HETATM   21  C   UNK N   1      25.358  22.530  -7.902  0.00  0.00     0.149 C 
HETATM   22  O   UNK N   1      24.233  22.690  -8.346  0.00  0.00    -0.293 OA
ENDROOT
BRANCH   4  23
HETATM   23  C   UNK N   1      34.179  20.378  -5.052  0.00  0.00     0.132 C 
HETATM   24  C   UNK N   1      34.296  19.204  -4.135  0.00  0.00     0.091 C 
HETATM   25  O   UNK N   1      34.865  20.409  -6.063  0.00  0.00    -0.298 OA
ENDBRANCH   4  23
TORSDOF 1
ENDMDL
MODEL 8
REMARK VINA RESULT:      -7.4      3.553      4.607
REMARK  1 active torsions:
REMARK  status: ('A' for Active; 'I' for Inactive)
REMARK    1  A    between atoms: C_4  and  C_8 
ROOT
HETATM    1  C   UNK N   1      28.512  26.270  -5.589  0.00  0.00     0.016 C 
HETATM    2  C   UNK N   1      27.008  26.630  -5.608  0.00  0.00    -0.026 C 
HETATM    3  C   UNK N   1      26.144  25.382  -5.411  0.00  0.00     0.003 C 
HETATM    4  C   UNK N   1      26.651  27.452  -4.352  0.00  0.00     0.024 C 
HETATM    5  C   UNK N   1      26.672  27.286  -6.953  0.00  0.00     0.011 C 
HETATM    6  C   UNK N   1      26.425  24.328  -6.500  0.00  0.00     0.018 C 
HETATM    7  C   UNK N   1      26.406  25.014  -3.957  0.00  0.00     0.007 C 
HETATM    8  C   UNK N   1      25.242  28.046  -4.445  0.00  0.00     0.024 C 
HETATM    9  C   UNK N   1      26.630  26.371  -3.251  0.00  0.00     0.018 C 
HETATM   10  C   UNK N   1      26.870  26.287  -8.103  0.00  0.00     0.007 C 
HETATM   11  C   UNK N   1      26.113  24.957  -7.877  0.00  0.00     0.006 C 
HETATM   12  C   UNK N   1      25.562  23.098  -6.321  0.00  0.00    -0.014 C 
HETATM   13  C   UNK N   1      26.385  23.957  -9.037  0.00  0.00    -0.012 C 
HETATM   14  C   UNK N   1      25.392  22.229  -7.329  0.00  0.00    -0.058 C 
HETATM   15  C   UNK N   1      25.551  24.448 -10.231  0.00  0.00     0.021 C 
HETATM   16  C   UNK N   1      25.973  22.530  -8.670  0.00  0.00    -0.040 C 
HETATM   17  C   UNK N   1      27.856  23.878  -9.478  0.00  0.00     0.022 C 
HETATM   18  C   UNK N   1      24.689  20.938  -7.063  0.00  0.00     0.048 C 
HETATM   19  C   UNK N   1      26.240  21.526  -9.527  0.00  0.00     0.058 C 
HETATM   20  C   UNK N   1      27.991  23.004 -10.748  0.00  0.00     0.084 C 
HETATM   21  C   UNK N   1      27.097  21.780 -10.707  0.00  0.00     0.149 C 
HETATM   22  O   UNK N   1      27.146  20.964 -11.613  0.00  0.00    -0.293 OA
ENDROOT
BRANCH   4  23
HETATM   23  C   UNK N   1      27.615  28.594  -4.084  0.00  0.00     0.132 C 
HETATM   24  C   UNK N   1      27.507  29.891  -4.820  0.00  0.00     0.091 C 
HETATM   25  O   UNK N   1      28.496  28.462  -3.248  0.00  0.00    -0.298 OA
ENDBRANCH   4  23
TORSDOF 1
ENDMDL
MODEL 9
REMARK VINA RESULT:      -7.4     12.514     14.631
REMARK  1 active torsions:
REMARK  status: ('A' for Active; 'I' for Inactive)
REMARK    1  A    between atoms: C_4  and  C_8 
ROOT
HETATM    1  C   UNK N   1      28.290  15.784   3.163  0.00  0.00     0.016 C 
HETATM    2  C   UNK N   1      27.853  14.911   4.363  0.00  0.00    -0.026 C 
HETATM    3  C   UNK N   1      27.675  15.762   5.623  0.00  0.00     0.003 C 
HETATM    4  C   UNK N   1      26.418  14.393   4.137  0.00  0.00     0.024 C 
HETATM    5  C   UNK N   1      28.920  13.837   4.610  0.00  0.00     0.011 C 
HETATM    6  C   UNK N   1      28.976  16.505   5.986  0.00  0.00     0.018 C 
HETATM    7  C   UNK N   1      26.433  16.583   5.305  0.00  0.00     0.007 C 
HETATM    8  C   UNK N   1      26.032  13.326   5.167  0.00  0.00     0.024 C 
HETATM    9  C   UNK N   1      25.569  15.649   4.426  0.00  0.00     0.018 C 
HETATM   10  C   UNK N   1      30.247  14.484   5.033  0.00  0.00     0.007 C 
HETATM   11  C   UNK N   1      30.084  15.455   6.227  0.00  0.00     0.006 C 
HETATM   12  C   UNK N   1      28.812  17.335   7.240  0.00  0.00    -0.014 C 
HETATM   13  C   UNK N   1      31.441  16.127   6.588  0.00  0.00    -0.012 C 
HETATM   14  C   UNK N   1      29.886  17.772   7.917  0.00  0.00    -0.058 C 
HETATM   15  C   UNK N   1      32.266  15.060   7.323  0.00  0.00     0.021 C 
HETATM   16  C   UNK N   1      31.251  17.348   7.490  0.00  0.00    -0.040 C 
HETATM   17  C   UNK N   1      32.253  16.612   5.375  0.00  0.00     0.022 C 
HETATM   18  C   UNK N   1      29.692  18.739   9.039  0.00  0.00     0.048 C 
HETATM   19  C   UNK N   1      32.319  18.105   7.806  0.00  0.00     0.058 C 
HETATM   20  C   UNK N   1      33.654  17.092   5.823  0.00  0.00     0.084 C 
HETATM   21  C   UNK N   1      33.612  17.868   7.125  0.00  0.00     0.149 C 
HETATM   22  O   UNK N   1      34.635  18.365   7.568  0.00  0.00    -0.293 OA
ENDROOT
BRANCH   4  23
HETATM   23  C   UNK N   1      26.201  13.800   2.756  0.00  0.00     0.132 C 
HETATM   24  C   UNK N   1      26.913  12.559   2.323  0.00  0.00     0.091 C 
HETATM   25  O   UNK N   1      25.424  14.336   1.980  0.00  0.00    -0.298 OA
ENDBRANCH   4  23
TORSDOF 1
ENDMDL
