REMARK  7 active torsions:
REMARK  status: ('A' for Active; 'I' for Inactive)
REMARK    1  A    between atoms: O_27  and  C_15 
REMARK    2  A    between atoms: O_28  and  C_16 
REMARK    3  A    between atoms: C_22  and  C_17 
REMARK    4  A    between atoms: C_22  and  C_18 
REMARK    5  A    between atoms: O_27  and  C_19 
REMARK    6  A    between atoms: O_28  and  C_20 
REMARK    7  A    between atoms: C_22  and  C_21 
ROOT
HETATM    1  C   UNK N   1      -2.169   1.831   0.000  0.00  0.00     0.101 C 
ENDROOT
BRANCH   1   2
HETATM    2  C   UNK N   1      -3.507   2.600   0.000  0.00  0.00    -0.044 A 
HETATM    3  C   UNK N   1      -3.570   4.006   0.000  0.00  0.00     0.011 A 
HETATM    4  C   UNK N   1      -4.805   4.673   0.000  0.00  0.00     0.038 A 
HETATM    5  C   UNK N   1      -6.001   3.946   0.000  0.00  0.00     0.079 A 
HETATM    6  C   UNK N   1      -5.940   2.549  -0.000  0.00  0.00     0.038 A 
HETATM    7  C   UNK N   1      -4.717   1.898  -0.000  0.00  0.00     0.011 A 
BRANCH   5   8
HETATM    8  O   UNK N   1      -7.191   4.606   0.000  0.00  0.00    -0.279 OA
BRANCH   8   9
HETATM    9  C   UNK N   1      -8.435   4.047  -0.000  0.00  0.00     0.260 C 
HETATM   10  C   UNK N   1      -9.633   4.926  -0.000  0.00  0.00     0.126 C 
HETATM   11  O   UNK N   1      -8.592   2.831   0.000  0.00  0.00    -0.265 OA
ENDBRANCH   8   9
ENDBRANCH   5   8
ENDBRANCH   1   2
BRANCH   1  12
HETATM   12  C   UNK N   1      -0.823   2.584  -0.000  0.00  0.00    -0.044 A 
HETATM   13  C   UNK N   1       0.379   1.868   0.000  0.00  0.00     0.011 A 
HETATM   14  C   UNK N   1       1.609   2.508   0.000  0.00  0.00     0.038 A 
HETATM   15  C   UNK N   1       1.684   3.905  -0.000  0.00  0.00     0.079 A 
HETATM   16  C   UNK N   1       0.495   4.644  -0.000  0.00  0.00     0.038 A 
HETATM   17  C   UNK N   1      -0.746   3.990  -0.000  0.00  0.00     0.011 A 
BRANCH  15  18
HETATM   18  O   UNK N   1       2.879   4.556  -0.000  0.00  0.00    -0.279 OA
BRANCH  18  19
HETATM   19  C   UNK N   1       4.119   3.990   0.000  0.00  0.00     0.260 C 
HETATM   20  C   UNK N   1       5.322   4.862  -0.000  0.00  0.00     0.126 C 
HETATM   21  O   UNK N   1       4.269   2.773   0.000  0.00  0.00    -0.265 OA
ENDBRANCH  18  19
ENDBRANCH  15  18
ENDBRANCH   1  12
BRANCH   1  22
HETATM   22  C   UNK N   1      -2.160   0.277   0.000  0.00  0.00     0.022 A 
HETATM   23  C   UNK N   1      -3.350  -0.468   0.000  0.00  0.00     0.026 A 
HETATM   24  C   UNK N   1      -3.315  -1.861   0.000  0.00  0.00     0.003 A 
HETATM   25  C   UNK N   1      -2.090  -2.520  -0.000  0.00  0.00     0.017 A 
HETATM   26  C   UNK N   1      -0.918  -1.768  -0.000  0.00  0.00     0.088 A 
HETATM   27  N   UNK N   1      -0.980  -0.409  -0.000  0.00  0.00    -0.368 N 
ATOM     28  HN  UNK N   1      -0.107   0.120  -0.000  1.00  0.00     0.165 HD
ENDBRANCH   1  22
TORSDOF 7
