MODEL 1
REMARK VINA RESULT:      -8.3      0.000      0.000
REMARK  9 active torsions:
REMARK  status: ('A' for Active; 'I' for Inactive)
REMARK    1  A    between atoms: C_27  and  C_20 
REMARK    2  A    between atoms: N_37  and  C_20 
REMARK    3  A    between atoms: C_29  and  C_21 
REMARK    4  A    between atoms: C_31  and  C_22 
REMARK    5  A    between atoms: N_32  and  C_23 
REMARK    6  A    between atoms: N_36  and  C_24 
REMARK       I    between atoms: N_36  and  C_27 
REMARK    7  A    between atoms: N_32  and  C_29 
REMARK    8  A    between atoms: O_39  and  C_30 
REMARK    9  A    between atoms: O_41  and  C_31 
ROOT
HETATM    1  C   UNK N   1      32.319  17.357   8.009  0.00  0.00     0.018 A 
HETATM    2  C   UNK N   1      31.327  17.081   7.096  0.00  0.00     0.016 A 
HETATM    3  C   UNK N   1      33.943  17.562   6.187  0.00  0.00     0.048 A 
HETATM    4  C   UNK N   1      33.626  17.639   7.580  0.00  0.00     0.041 A 
HETATM    5  C   UNK N   1      31.641  17.085   5.748  0.00  0.00     0.007 A 
HETATM    6  C   UNK N   1      32.907  17.263   5.290  0.00  0.00     0.046 A 
HETATM    7  C   UNK N   1      30.774  17.061   4.592  0.00  0.00     0.055 A 
HETATM    8  C   UNK N   1      29.441  17.218   4.641  0.00  0.00     0.058 C 
HETATM    9  C   UNK N   1      31.708  17.088   3.455  0.00  0.00     0.154 A 
HETATM   10  N   UNK N   1      32.927  17.230   3.870  0.00  0.00    -0.336 N 
ATOM     11  HN  UNK N   1      33.757  17.306   3.280  1.00  0.00     0.168 HD
ENDROOT
BRANCH   8  12
HETATM   12  C   UNK N   1      28.853  17.591   5.958  0.00  0.00    -0.008 A 
HETATM   13  C   UNK N   1      28.764  18.959   6.253  0.00  0.00     0.014 A 
HETATM   14  C   UNK N   1      28.300  19.385   7.493  0.00  0.00     0.001 A 
HETATM   15  C   UNK N   1      27.918  18.444   8.450  0.00  0.00     0.000 A 
HETATM   16  C   UNK N   1      27.996  17.075   8.162  0.00  0.00     0.001 A 
HETATM   17  C   UNK N   1      28.472  16.642   6.918  0.00  0.00     0.014 A 
ENDBRANCH   8  12
BRANCH   8  18
HETATM   18  N   UNK N   1      28.676  17.443   3.460  0.00  0.00    -0.355 N 
HETATM   19  H   UNK N   1      28.897  18.169   2.834  0.00  0.00     0.166 HD
BRANCH  18  20
HETATM   20  C   UNK N   1      27.586  16.575   3.230  0.00  0.00     0.032 A 
HETATM   21  C   UNK N   1      27.841  15.209   3.067  0.00  0.00     0.031 A 
HETATM   22  C   UNK N   1      26.828  14.286   3.191  0.00  0.00     0.032 A 
HETATM   23  C   UNK N   1      25.523  14.692   3.469  0.00  0.00     0.036 A 
HETATM   24  C   UNK N   1      25.257  16.074   3.601  0.00  0.00     0.032 A 
HETATM   25  C   UNK N   1      26.292  17.007   3.523  0.00  0.00     0.031 A 
BRANCH  23  26
HETATM   26  N   UNK N   1      24.490  13.724   3.329  0.00  0.00    -0.321 N 
HETATM   27  C   UNK N   1      23.800  13.630   2.050  0.00  0.00     0.159 C 
HETATM   28  C   UNK N   1      23.911  13.165   4.429  0.00  0.00     0.252 C 
HETATM   29  O   UNK N   1      24.480  13.169   5.517  0.00  0.00    -0.271 OA
BRANCH  28  30
HETATM   30  C   UNK N   1      22.453  12.855   4.408  0.00  0.00     0.375 C 
BRANCH  30  31
HETATM   31  N   UNK N   1      21.700  13.683   5.392  0.00  0.00     0.100 N 
HETATM   32  C   UNK N   1      20.346  13.248   5.816  0.00  0.00     0.303 C 
HETATM   33  C   UNK N   1      19.264  13.502   4.743  0.00  0.00     0.302 C 
HETATM   34  N   UNK N   1      19.296  14.866   4.206  0.00  0.00     0.087 N 
HETATM   35  C   UNK N   1      18.757  15.803   5.182  0.00  0.00     0.310 C 
HETATM   36  C   UNK N   1      20.652  15.261   3.813  0.00  0.00     0.302 C 
HETATM   37  C   UNK N   1      21.660  15.073   4.953  0.00  0.00     0.303 C 
ENDBRANCH  30  31
ENDBRANCH  28  30
ENDBRANCH  23  26
ENDBRANCH  18  20
ENDBRANCH   8  18
BRANCH   9  38
HETATM   38  O   UNK N   1      31.367  17.083   2.150  0.00  0.00    -0.345 OA
HETATM   39  H   UNK N   1      31.417  17.870   1.644  0.00  0.00     0.219 HD
ENDBRANCH   9  38
BRANCH   4  40
HETATM   40  C   UNK N   1      34.567  18.120   8.626  0.00  0.00     0.293 C 
HETATM   41  O   UNK N   1      35.192  19.150   8.413  0.00  0.00    -0.259 OA
BRANCH  40  42
HETATM   42  O   UNK N   1      34.806  17.459   9.784  0.00  0.00    -0.323 OA
HETATM   43  C   UNK N   1      35.227  16.156   9.862  0.00  0.00     0.213 C 
ENDBRANCH  40  42
ENDBRANCH   4  40
TORSDOF 9
ENDMDL
MODEL 2
REMARK VINA RESULT:      -8.0      3.387     10.721
REMARK  9 active torsions:
REMARK  status: ('A' for Active; 'I' for Inactive)
REMARK    1  A    between atoms: C_27  and  C_20 
REMARK    2  A    between atoms: N_37  and  C_20 
REMARK    3  A    between atoms: C_29  and  C_21 
REMARK    4  A    between atoms: C_31  and  C_22 
REMARK    5  A    between atoms: N_32  and  C_23 
REMARK    6  A    between atoms: N_36  and  C_24 
REMARK       I    between atoms: N_36  and  C_27 
REMARK    7  A    between atoms: N_32  and  C_29 
REMARK    8  A    between atoms: O_39  and  C_30 
REMARK    9  A    between atoms: O_41  and  C_31 
ROOT
HETATM    1  C   UNK N   1      23.435  17.644   4.033  0.00  0.00     0.018 A 
HETATM    2  C   UNK N   1      24.757  17.335   4.254  0.00  0.00     0.016 A 
HETATM    3  C   UNK N   1      24.014  20.018   3.865  0.00  0.00     0.048 A 
HETATM    4  C   UNK N   1      23.042  18.972   3.797  0.00  0.00     0.041 A 
HETATM    5  C   UNK N   1      25.692  18.355   4.241  0.00  0.00     0.007 A 
HETATM    6  C   UNK N   1      25.349  19.663   4.108  0.00  0.00     0.046 A 
HETATM    7  C   UNK N   1      27.136  18.293   4.212  0.00  0.00     0.055 A 
HETATM    8  C   UNK N   1      27.842  17.170   4.003  0.00  0.00     0.058 C 
HETATM    9  C   UNK N   1      27.546  19.707   4.205  0.00  0.00     0.154 A 
HETATM   10  N   UNK N   1      26.511  20.481   4.119  0.00  0.00    -0.336 N 
ATOM     11  HN  UNK N   1      26.527  21.500   4.068  1.00  0.00     0.168 HD
ENDROOT
BRANCH   8  12
HETATM   12  C   UNK N   1      27.073  15.950   3.627  0.00  0.00    -0.008 A 
HETATM   13  C   UNK N   1      26.828  15.013   4.641  0.00  0.00     0.014 A 
HETATM   14  C   UNK N   1      26.185  13.813   4.353  0.00  0.00     0.001 A 
HETATM   15  C   UNK N   1      25.782  13.541   3.045  0.00  0.00     0.000 A 
HETATM   16  C   UNK N   1      26.016  14.474   2.027  0.00  0.00     0.001 A 
HETATM   17  C   UNK N   1      26.670  15.680   2.311  0.00  0.00     0.014 A 
ENDBRANCH   8  12
BRANCH   8  18
HETATM   18  N   UNK N   1      29.239  17.212   3.728  0.00  0.00    -0.355 N 
HETATM   19  H   UNK N   1      29.581  17.378   2.820  0.00  0.00     0.166 HD
BRANCH  18  20
HETATM   20  C   UNK N   1      30.111  17.004   4.819  0.00  0.00     0.032 A 
HETATM   21  C   UNK N   1      31.490  17.015   4.587  0.00  0.00     0.031 A 
HETATM   22  C   UNK N   1      32.377  17.169   5.627  0.00  0.00     0.032 A 
HETATM   23  C   UNK N   1      31.921  17.305   6.938  0.00  0.00     0.036 A 
HETATM   24  C   UNK N   1      30.529  17.261   7.180  0.00  0.00     0.032 A 
HETATM   25  C   UNK N   1      29.628  17.152   6.120  0.00  0.00     0.031 A 
BRANCH  23  26
HETATM   26  N   UNK N   1      32.883  17.202   7.982  0.00  0.00    -0.321 N 
HETATM   27  C   UNK N   1      33.885  18.253   8.102  0.00  0.00     0.159 C 
HETATM   28  C   UNK N   1      33.101  16.012   8.608  0.00  0.00     0.252 C 
HETATM   29  O   UNK N   1      32.261  15.117   8.583  0.00  0.00    -0.271 OA
BRANCH  28  30
HETATM   30  C   UNK N   1      34.485  15.654   9.032  0.00  0.00     0.375 C 
BRANCH  30  31
HETATM   31  N   UNK N   1      34.510  14.390   9.821  0.00  0.00     0.100 N 
HETATM   32  C   UNK N   1      34.609  14.462  11.299  0.00  0.00     0.303 C 
HETATM   33  C   UNK N   1      36.026  14.825  11.796  0.00  0.00     0.302 C 
HETATM   34  N   UNK N   1      37.076  14.006  11.181  0.00  0.00     0.087 N 
HETATM   35  C   UNK N   1      37.063  12.664  11.746  0.00  0.00     0.310 C 
HETATM   36  C   UNK N   1      36.935  13.950   9.723  0.00  0.00     0.302 C 
HETATM   37  C   UNK N   1      35.534  13.492   9.298  0.00  0.00     0.303 C 
ENDBRANCH  30  31
ENDBRANCH  28  30
ENDBRANCH  23  26
ENDBRANCH  18  20
ENDBRANCH   8  18
BRANCH   9  38
HETATM   38  O   UNK N   1      28.815  20.162   4.176  0.00  0.00    -0.345 OA
HETATM   39  H   UNK N   1      29.238  20.333   3.358  0.00  0.00     0.219 HD
ENDBRANCH   9  38
BRANCH   4  40
HETATM   40  C   UNK N   1      21.630  19.168   3.372  0.00  0.00     0.293 C 
HETATM   41  O   UNK N   1      21.057  20.190   3.724  0.00  0.00    -0.259 OA
BRANCH  40  42
HETATM   42  O   UNK N   1      20.927  18.260   2.653  0.00  0.00    -0.323 OA
HETATM   43  C   UNK N   1      19.788  17.637   3.093  0.00  0.00     0.213 C 
ENDBRANCH  40  42
ENDBRANCH   4  40
TORSDOF 9
ENDMDL
MODEL 3
REMARK VINA RESULT:      -8.0      4.827     11.307
REMARK  9 active torsions:
REMARK  status: ('A' for Active; 'I' for Inactive)
REMARK    1  A    between atoms: C_27  and  C_20 
REMARK    2  A    between atoms: N_37  and  C_20 
REMARK    3  A    between atoms: C_29  and  C_21 
REMARK    4  A    between atoms: C_31  and  C_22 
REMARK    5  A    between atoms: N_32  and  C_23 
REMARK    6  A    between atoms: N_36  and  C_24 
REMARK       I    between atoms: N_36  and  C_27 
REMARK    7  A    between atoms: N_32  and  C_29 
REMARK    8  A    between atoms: O_39  and  C_30 
REMARK    9  A    between atoms: O_41  and  C_31 
ROOT
HETATM    1  C   UNK N   1      28.166  16.670   4.312  0.00  0.00     0.018 A 
HETATM    2  C   UNK N   1      29.266  16.539   5.128  0.00  0.00     0.016 A 
HETATM    3  C   UNK N   1      27.091  18.104   5.982  0.00  0.00     0.048 A 
HETATM    4  C   UNK N   1      27.083  17.476   4.696  0.00  0.00     0.041 A 
HETATM    5  C   UNK N   1      29.284  17.216   6.335  0.00  0.00     0.007 A 
HETATM    6  C   UNK N   1      28.225  17.934   6.790  0.00  0.00     0.046 A 
HETATM    7  C   UNK N   1      30.374  17.442   7.257  0.00  0.00     0.055 A 
HETATM    8  C   UNK N   1      31.662  17.167   6.991  0.00  0.00     0.058 C 
HETATM    9  C   UNK N   1      29.759  18.228   8.339  0.00  0.00     0.154 A 
HETATM   10  N   UNK N   1      28.533  18.525   8.045  0.00  0.00    -0.336 N 
ATOM     11  HN  UNK N   1      27.898  19.086   8.615  1.00  0.00     0.168 HD
ENDROOT
BRANCH   8  12
HETATM   12  C   UNK N   1      31.988  16.746   5.600  0.00  0.00    -0.008 A 
HETATM   13  C   UNK N   1      32.149  15.372   5.370  0.00  0.00     0.014 A 
HETATM   14  C   UNK N   1      32.531  14.905   4.116  0.00  0.00     0.001 A 
HETATM   15  C   UNK N   1      32.754  15.812   3.079  0.00  0.00     0.000 A 
HETATM   16  C   UNK N   1      32.588  17.186   3.297  0.00  0.00     0.001 A 
HETATM   17  C   UNK N   1      32.213  17.660   4.560  0.00  0.00     0.014 A 
ENDBRANCH   8  12
BRANCH   8  18
HETATM   18  N   UNK N   1      32.711  17.647   7.826  0.00  0.00    -0.355 N 
HETATM   19  H   UNK N   1      33.008  18.584   7.793  0.00  0.00     0.166 HD
BRANCH  18  20
HETATM   20  C   UNK N   1      33.305  16.714   8.705  0.00  0.00     0.032 A 
HETATM   21  C   UNK N   1      32.581  15.568   9.053  0.00  0.00     0.031 A 
HETATM   22  C   UNK N   1      33.214  14.478   9.604  0.00  0.00     0.032 A 
HETATM   23  C   UNK N   1      34.589  14.494   9.838  0.00  0.00     0.036 A 
HETATM   24  C   UNK N   1      35.317  15.663   9.517  0.00  0.00     0.032 A 
HETATM   25  C   UNK N   1      34.684  16.751   8.916  0.00  0.00     0.031 A 
BRANCH  23  26
HETATM   26  N   UNK N   1      35.132  13.449  10.636  0.00  0.00    -0.321 N 
HETATM   27  C   UNK N   1      35.278  12.129  10.038  0.00  0.00     0.159 C 
HETATM   28  C   UNK N   1      35.169  13.562  11.994  0.00  0.00     0.252 C 
HETATM   29  O   UNK N   1      35.105  14.658  12.542  0.00  0.00    -0.271 OA
BRANCH  28  30
HETATM   30  C   UNK N   1      34.937  12.351  12.833  0.00  0.00     0.375 C 
BRANCH  30  31
HETATM   31  N   UNK N   1      35.260  12.603  14.265  0.00  0.00     0.100 N 
HETATM   32  C   UNK N   1      36.635  12.335  14.755  0.00  0.00     0.303 C 
HETATM   33  C   UNK N   1      36.934  10.830  14.931  0.00  0.00     0.302 C 
HETATM   34  N   UNK N   1      35.897  10.125  15.691  0.00  0.00     0.087 N 
HETATM   35  C   UNK N   1      35.995  10.459  17.105  0.00  0.00     0.310 C 
HETATM   36  C   UNK N   1      34.555  10.427  15.185  0.00  0.00     0.302 C 
HETATM   37  C   UNK N   1      34.289  11.936  15.124  0.00  0.00     0.303 C 
ENDBRANCH  30  31
ENDBRANCH  28  30
ENDBRANCH  23  26
ENDBRANCH  18  20
ENDBRANCH   8  18
BRANCH   9  38
HETATM   38  O   UNK N   1      30.387  18.688   9.439  0.00  0.00    -0.345 OA
HETATM   39  H   UNK N   1      31.312  18.838   9.429  0.00  0.00     0.219 HD
ENDBRANCH   9  38
BRANCH   4  40
HETATM   40  C   UNK N   1      26.042  17.709   3.660  0.00  0.00     0.293 C 
HETATM   41  O   UNK N   1      25.945  16.901   2.745  0.00  0.00    -0.259 OA
BRANCH  40  42
HETATM   42  O   UNK N   1      25.222  18.787   3.645  0.00  0.00    -0.323 OA
HETATM   43  C   UNK N   1      25.532  19.989   3.062  0.00  0.00     0.213 C 
ENDBRANCH  40  42
ENDBRANCH   4  40
TORSDOF 9
ENDMDL
MODEL 4
REMARK VINA RESULT:      -7.9      1.513      2.453
REMARK  9 active torsions:
REMARK  status: ('A' for Active; 'I' for Inactive)
REMARK    1  A    between atoms: C_27  and  C_20 
REMARK    2  A    between atoms: N_37  and  C_20 
REMARK    3  A    between atoms: C_29  and  C_21 
REMARK    4  A    between atoms: C_31  and  C_22 
REMARK    5  A    between atoms: N_32  and  C_23 
REMARK    6  A    between atoms: N_36  and  C_24 
REMARK       I    between atoms: N_36  and  C_27 
REMARK    7  A    between atoms: N_32  and  C_29 
REMARK    8  A    between atoms: O_39  and  C_30 
REMARK    9  A    between atoms: O_41  and  C_31 
ROOT
HETATM    1  C   UNK N   1      32.444  17.513   8.110  0.00  0.00     0.018 A 
HETATM    2  C   UNK N   1      31.408  17.256   7.243  0.00  0.00     0.016 A 
HETATM    3  C   UNK N   1      34.008  17.586   6.227  0.00  0.00     0.048 A 
HETATM    4  C   UNK N   1      33.746  17.721   7.626  0.00  0.00     0.041 A 
HETATM    5  C   UNK N   1      31.671  17.204   5.886  0.00  0.00     0.007 A 
HETATM    6  C   UNK N   1      32.926  17.308   5.377  0.00  0.00     0.046 A 
HETATM    7  C   UNK N   1      30.762  17.185   4.762  0.00  0.00     0.055 A 
HETATM    8  C   UNK N   1      29.440  17.405   4.853  0.00  0.00     0.058 C 
HETATM    9  C   UNK N   1      31.654  17.134   3.592  0.00  0.00     0.154 A 
HETATM   10  N   UNK N   1      32.892  17.231   3.959  0.00  0.00    -0.336 N 
ATOM     11  HN  UNK N   1      33.702  17.251   3.338  1.00  0.00     0.168 HD
ENDROOT
BRANCH   8  12
HETATM   12  C   UNK N   1      28.919  17.845   6.178  0.00  0.00    -0.008 A 
HETATM   13  C   UNK N   1      28.583  16.841   7.097  0.00  0.00     0.014 A 
HETATM   14  C   UNK N   1      28.017  17.169   8.325  0.00  0.00     0.001 A 
HETATM   15  C   UNK N   1      27.783  18.507   8.644  0.00  0.00     0.000 A 
HETATM   16  C   UNK N   1      28.123  19.517   7.735  0.00  0.00     0.001 A 
HETATM   17  C   UNK N   1      28.684  19.191   6.494  0.00  0.00     0.014 A 
ENDBRANCH   8  12
BRANCH   8  18
HETATM   18  N   UNK N   1      28.643  17.630   3.694  0.00  0.00    -0.355 N 
HETATM   19  H   UNK N   1      29.011  18.070   2.894  0.00  0.00     0.166 HD
BRANCH  18  20
HETATM   20  C   UNK N   1      27.302  17.191   3.746  0.00  0.00     0.032 A 
HETATM   21  C   UNK N   1      27.046  15.863   4.104  0.00  0.00     0.031 A 
HETATM   22  C   UNK N   1      25.790  15.474   4.508  0.00  0.00     0.032 A 
HETATM   23  C   UNK N   1      24.741  16.392   4.559  0.00  0.00     0.036 A 
HETATM   24  C   UNK N   1      24.989  17.728   4.167  0.00  0.00     0.032 A 
HETATM   25  C   UNK N   1      26.274  18.133   3.802  0.00  0.00     0.031 A 
BRANCH  23  26
HETATM   26  N   UNK N   1      23.426  15.879   4.735  0.00  0.00    -0.321 N 
HETATM   27  C   UNK N   1      22.768  16.091   6.018  0.00  0.00     0.159 C 
HETATM   28  C   UNK N   1      22.939  14.919   3.900  0.00  0.00     0.252 C 
HETATM   29  O   UNK N   1      23.424  14.741   2.786  0.00  0.00    -0.271 OA
BRANCH  28  30
HETATM   30  C   UNK N   1      22.053  13.854   4.450  0.00  0.00     0.375 C 
BRANCH  30  31
HETATM   31  N   UNK N   1      22.711  12.517   4.414  0.00  0.00     0.100 N 
HETATM   32  C   UNK N   1      21.900  11.305   4.690  0.00  0.00     0.303 C 
HETATM   33  C   UNK N   1      21.570  11.125   6.188  0.00  0.00     0.302 C 
HETATM   34  N   UNK N   1      22.747  11.249   7.054  0.00  0.00     0.087 N 
HETATM   35  C   UNK N   1      23.580  10.059   6.944  0.00  0.00     0.310 C 
HETATM   36  C   UNK N   1      23.526  12.450   6.739  0.00  0.00     0.302 C 
HETATM   37  C   UNK N   1      23.902  12.520   5.254  0.00  0.00     0.303 C 
ENDBRANCH  30  31
ENDBRANCH  28  30
ENDBRANCH  23  26
ENDBRANCH  18  20
ENDBRANCH   8  18
BRANCH   9  38
HETATM   38  O   UNK N   1      31.265  17.105   2.301  0.00  0.00    -0.345 OA
HETATM   39  H   UNK N   1      30.395  17.357   2.063  0.00  0.00     0.219 HD
ENDBRANCH   9  38
BRANCH   4  40
HETATM   40  C   UNK N   1      34.746  18.188   8.623  0.00  0.00     0.293 C 
HETATM   41  O   UNK N   1      35.297  19.264   8.429  0.00  0.00    -0.259 OA
BRANCH  40  42
HETATM   42  O   UNK N   1      35.116  17.472   9.711  0.00  0.00    -0.323 OA
HETATM   43  C   UNK N   1      35.299  16.113   9.720  0.00  0.00     0.213 C 
ENDBRANCH  40  42
ENDBRANCH   4  40
TORSDOF 9
ENDMDL
MODEL 5
REMARK VINA RESULT:      -7.4      2.980     10.158
REMARK  9 active torsions:
REMARK  status: ('A' for Active; 'I' for Inactive)
REMARK    1  A    between atoms: C_27  and  C_20 
REMARK    2  A    between atoms: N_37  and  C_20 
REMARK    3  A    between atoms: C_29  and  C_21 
REMARK    4  A    between atoms: C_31  and  C_22 
REMARK    5  A    between atoms: N_32  and  C_23 
REMARK    6  A    between atoms: N_36  and  C_24 
REMARK       I    between atoms: N_36  and  C_27 
REMARK    7  A    between atoms: N_32  and  C_29 
REMARK    8  A    between atoms: O_39  and  C_30 
REMARK    9  A    between atoms: O_41  and  C_31 
ROOT
HETATM    1  C   UNK N   1      23.495  17.978   5.210  0.00  0.00     0.018 A 
HETATM    2  C   UNK N   1      24.703  18.125   4.568  0.00  0.00     0.016 A 
HETATM    3  C   UNK N   1      23.239  15.749   4.226  0.00  0.00     0.048 A 
HETATM    4  C   UNK N   1      22.761  16.787   5.088  0.00  0.00     0.041 A 
HETATM    5  C   UNK N   1      25.181  17.078   3.799  0.00  0.00     0.007 A 
HETATM    6  C   UNK N   1      24.467  15.944   3.578  0.00  0.00     0.046 A 
HETATM    7  C   UNK N   1      26.490  16.872   3.220  0.00  0.00     0.055 A 
HETATM    8  C   UNK N   1      27.568  17.623   3.499  0.00  0.00     0.058 C 
HETATM    9  C   UNK N   1      26.366  15.578   2.530  0.00  0.00     0.154 A 
HETATM   10  N   UNK N   1      25.209  15.045   2.765  0.00  0.00    -0.336 N 
ATOM     11  HN  UNK N   1      24.887  14.138   2.428  1.00  0.00     0.168 HD
ENDROOT
BRANCH   8  12
HETATM   12  C   UNK N   1      27.427  18.629   4.589  0.00  0.00    -0.008 A 
HETATM   13  C   UNK N   1      27.272  19.968   4.204  0.00  0.00     0.014 A 
HETATM   14  C   UNK N   1      27.212  20.976   5.162  0.00  0.00     0.001 A 
HETATM   15  C   UNK N   1      27.307  20.650   6.516  0.00  0.00     0.000 A 
HETATM   16  C   UNK N   1      27.454  19.314   6.910  0.00  0.00     0.001 A 
HETATM   17  C   UNK N   1      27.524  18.298   5.948  0.00  0.00     0.014 A 
ENDBRANCH   8  12
BRANCH   8  18
HETATM   18  N   UNK N   1      28.876  17.218   3.104  0.00  0.00    -0.355 N 
HETATM   19  H   UNK N   1      29.179  17.296   2.171  0.00  0.00     0.166 HD
BRANCH  18  20
HETATM   20  C   UNK N   1      29.716  16.701   4.114  0.00  0.00     0.032 A 
HETATM   21  C   UNK N   1      30.726  17.519   4.630  0.00  0.00     0.031 A 
HETATM   22  C   UNK N   1      31.335  17.215   5.825  0.00  0.00     0.032 A 
HETATM   23  C   UNK N   1      30.967  16.079   6.545  0.00  0.00     0.036 A 
HETATM   24  C   UNK N   1      29.969  15.232   6.011  0.00  0.00     0.032 A 
HETATM   25  C   UNK N   1      29.319  15.565   4.821  0.00  0.00     0.031 A 
BRANCH  23  26
HETATM   26  N   UNK N   1      31.802  15.688   7.629  0.00  0.00    -0.321 N 
HETATM   27  C   UNK N   1      31.602  16.332   8.921  0.00  0.00     0.159 C 
HETATM   28  C   UNK N   1      32.971  15.027   7.399  0.00  0.00     0.252 C 
HETATM   29  O   UNK N   1      33.163  14.422   6.348  0.00  0.00    -0.271 OA
BRANCH  28  30
HETATM   30  C   UNK N   1      34.152  15.314   8.262  0.00  0.00     0.375 C 
BRANCH  30  31
HETATM   31  N   UNK N   1      34.321  14.284   9.326  0.00  0.00     0.100 N 
HETATM   32  C   UNK N   1      34.508  14.720  10.731  0.00  0.00     0.303 C 
HETATM   33  C   UNK N   1      35.924  15.272  11.012  0.00  0.00     0.302 C 
HETATM   34  N   UNK N   1      36.990  14.388  10.529  0.00  0.00     0.087 N 
HETATM   35  C   UNK N   1      37.112  13.225  11.397  0.00  0.00     0.310 C 
HETATM   36  C   UNK N   1      36.760  13.970   9.143  0.00  0.00     0.302 C 
HETATM   37  C   UNK N   1      35.373  13.345   8.953  0.00  0.00     0.303 C 
ENDBRANCH  30  31
ENDBRANCH  28  30
ENDBRANCH  23  26
ENDBRANCH  18  20
ENDBRANCH   8  18
BRANCH   9  38
HETATM   38  O   UNK N   1      27.340  14.955   1.837  0.00  0.00    -0.345 OA
HETATM   39  H   UNK N   1      27.431  15.095   0.916  0.00  0.00     0.219 HD
ENDBRANCH   9  38
BRANCH   4  40
HETATM   40  C   UNK N   1      21.577  16.656   5.978  0.00  0.00     0.293 C 
HETATM   41  O   UNK N   1      20.692  15.876   5.652  0.00  0.00    -0.259 OA
BRANCH  40  42
HETATM   42  O   UNK N   1      21.399  17.383   7.106  0.00  0.00    -0.323 OA
HETATM   43  C   UNK N   1      20.292  17.308   7.912  0.00  0.00     0.213 C 
ENDBRANCH  40  42
ENDBRANCH   4  40
TORSDOF 9
ENDMDL
MODEL 6
REMARK VINA RESULT:      -7.3     10.391     15.579
REMARK  9 active torsions:
REMARK  status: ('A' for Active; 'I' for Inactive)
REMARK    1  A    between atoms: C_27  and  C_20 
REMARK    2  A    between atoms: N_37  and  C_20 
REMARK    3  A    between atoms: C_29  and  C_21 
REMARK    4  A    between atoms: C_31  and  C_22 
REMARK    5  A    between atoms: N_32  and  C_23 
REMARK    6  A    between atoms: N_36  and  C_24 
REMARK       I    between atoms: N_36  and  C_27 
REMARK    7  A    between atoms: N_32  and  C_29 
REMARK    8  A    between atoms: O_39  and  C_30 
REMARK    9  A    between atoms: O_41  and  C_31 
ROOT
HETATM    1  C   UNK N   1      34.436  14.004  10.369  0.00  0.00     0.018 A 
HETATM    2  C   UNK N   1      34.693  13.295  11.519  0.00  0.00     0.016 A 
HETATM    3  C   UNK N   1      35.727  15.894  11.240  0.00  0.00     0.048 A 
HETATM    4  C   UNK N   1      34.972  15.289  10.186  0.00  0.00     0.041 A 
HETATM    5  C   UNK N   1      35.488  13.871  12.494  0.00  0.00     0.007 A 
HETATM    6  C   UNK N   1      35.954  15.144  12.403  0.00  0.00     0.046 A 
HETATM    7  C   UNK N   1      36.097  13.282  13.665  0.00  0.00     0.055 A 
HETATM    8  C   UNK N   1      36.137  11.963  13.916  0.00  0.00     0.058 C 
HETATM    9  C   UNK N   1      36.817  14.406  14.287  0.00  0.00     0.154 A 
HETATM   10  N   UNK N   1      36.748  15.461  13.538  0.00  0.00    -0.336 N 
ATOM     11  HN  UNK N   1      37.187  16.362  13.729  1.00  0.00     0.168 HD
ENDROOT
BRANCH   8  12
HETATM   12  C   UNK N   1      35.655  11.056  12.838  0.00  0.00    -0.008 A 
HETATM   13  C   UNK N   1      34.341  10.579  12.945  0.00  0.00     0.014 A 
HETATM   14  C   UNK N   1      33.843   9.666  12.020  0.00  0.00     0.001 A 
HETATM   15  C   UNK N   1      34.658   9.224  10.978  0.00  0.00     0.000 A 
HETATM   16  C   UNK N   1      35.969   9.701  10.857  0.00  0.00     0.001 A 
HETATM   17  C   UNK N   1      36.477  10.613  11.792  0.00  0.00     0.014 A 
ENDBRANCH   8  12
BRANCH   8  18
HETATM   18  N   UNK N   1      36.968  11.428  14.943  0.00  0.00    -0.355 N 
HETATM   19  H   UNK N   1      37.943  11.360  14.832  0.00  0.00     0.166 HD
BRANCH  18  20
HETATM   20  C   UNK N   1      36.326  11.001  16.125  0.00  0.00     0.032 A 
HETATM   21  C   UNK N   1      36.704   9.777  16.688  0.00  0.00     0.031 A 
HETATM   22  C   UNK N   1      36.384   9.475  17.991  0.00  0.00     0.032 A 
HETATM   23  C   UNK N   1      35.665  10.375  18.777  0.00  0.00     0.036 A 
HETATM   24  C   UNK N   1      35.253  11.599  18.201  0.00  0.00     0.032 A 
HETATM   25  C   UNK N   1      35.618  11.926  16.894  0.00  0.00     0.031 A 
BRANCH  23  26
HETATM   26  N   UNK N   1      35.151   9.901  20.016  0.00  0.00    -0.321 N 
HETATM   27  C   UNK N   1      35.996  10.004  21.199  0.00  0.00     0.159 C 
HETATM   28  C   UNK N   1      34.082   9.057  20.045  0.00  0.00     0.252 C 
HETATM   29  O   UNK N   1      33.309   8.978  19.094  0.00  0.00    -0.271 OA
BRANCH  28  30
HETATM   30  C   UNK N   1      34.033   7.977  21.072  0.00  0.00     0.375 C 
BRANCH  30  31
HETATM   31  N   UNK N   1      32.829   8.098  21.942  0.00  0.00     0.100 N 
HETATM   32  C   UNK N   1      32.057   9.366  21.936  0.00  0.00     0.303 C 
HETATM   33  C   UNK N   1      32.757  10.505  22.710  0.00  0.00     0.302 C 
HETATM   34  N   UNK N   1      33.203  10.101  24.047  0.00  0.00     0.087 N 
HETATM   35  C   UNK N   1      32.064   9.992  24.946  0.00  0.00     0.310 C 
HETATM   36  C   UNK N   1      33.949   8.839  24.010  0.00  0.00     0.302 C 
HETATM   37  C   UNK N   1      33.160   7.725  23.312  0.00  0.00     0.303 C 
ENDBRANCH  30  31
ENDBRANCH  28  30
ENDBRANCH  23  26
ENDBRANCH  18  20
ENDBRANCH   8  18
BRANCH   9  38
HETATM   38  O   UNK N   1      37.550  14.348  15.416  0.00  0.00    -0.345 OA
HETATM   39  H   UNK N   1      38.467  14.159  15.377  0.00  0.00     0.219 HD
ENDBRANCH   9  38
BRANCH   4  40
HETATM   40  C   UNK N   1      34.802  15.881   8.833  0.00  0.00     0.293 C 
HETATM   41  O   UNK N   1      35.187  15.237   7.866  0.00  0.00    -0.259 OA
BRANCH  40  42
HETATM   42  O   UNK N   1      34.286  17.114   8.610  0.00  0.00    -0.323 OA
HETATM   43  C   UNK N   1      32.945  17.399   8.574  0.00  0.00     0.213 C 
ENDBRANCH  40  42
ENDBRANCH   4  40
TORSDOF 9
ENDMDL
MODEL 7
REMARK VINA RESULT:      -7.3      3.117      5.887
REMARK  9 active torsions:
REMARK  status: ('A' for Active; 'I' for Inactive)
REMARK    1  A    between atoms: C_27  and  C_20 
REMARK    2  A    between atoms: N_37  and  C_20 
REMARK    3  A    between atoms: C_29  and  C_21 
REMARK    4  A    between atoms: C_31  and  C_22 
REMARK    5  A    between atoms: N_32  and  C_23 
REMARK    6  A    between atoms: N_36  and  C_24 
REMARK       I    between atoms: N_36  and  C_27 
REMARK    7  A    between atoms: N_32  and  C_29 
REMARK    8  A    between atoms: O_39  and  C_30 
REMARK    9  A    between atoms: O_41  and  C_31 
ROOT
HETATM    1  C   UNK N   1      35.363  13.273  10.005  0.00  0.00     0.018 A 
HETATM    2  C   UNK N   1      35.321  14.005   8.841  0.00  0.00     0.016 A 
HETATM    3  C   UNK N   1      34.927  15.303  11.304  0.00  0.00     0.048 A 
HETATM    4  C   UNK N   1      35.131  13.888  11.246  0.00  0.00     0.041 A 
HETATM    5  C   UNK N   1      35.047  15.360   8.916  0.00  0.00     0.007 A 
HETATM    6  C   UNK N   1      34.906  16.016  10.096  0.00  0.00     0.046 A 
HETATM    7  C   UNK N   1      34.720  16.301   7.868  0.00  0.00     0.055 A 
HETATM    8  C   UNK N   1      34.439  15.956   6.601  0.00  0.00     0.058 C 
HETATM    9  C   UNK N   1      34.537  17.573   8.587  0.00  0.00     0.154 A 
HETATM   10  N   UNK N   1      34.621  17.389   9.866  0.00  0.00    -0.336 N 
ATOM     11  HN  UNK N   1      34.503  18.105  10.584  1.00  0.00     0.168 HD
ENDROOT
BRANCH   8  12
HETATM   12  C   UNK N   1      34.311  14.501   6.310  0.00  0.00    -0.008 A 
HETATM   13  C   UNK N   1      35.356  13.899   5.595  0.00  0.00     0.014 A 
HETATM   14  C   UNK N   1      35.275  12.562   5.216  0.00  0.00     0.001 A 
HETATM   15  C   UNK N   1      34.145  11.816   5.552  0.00  0.00     0.000 A 
HETATM   16  C   UNK N   1      33.099  12.407   6.272  0.00  0.00     0.001 A 
HETATM   17  C   UNK N   1      33.173  13.754   6.647  0.00  0.00     0.014 A 
ENDBRANCH   8  12
BRANCH   8  18
HETATM   18  N   UNK N   1      33.875  16.891   5.686  0.00  0.00    -0.355 N 
HETATM   19  H   UNK N   1      34.423  17.588   5.258  0.00  0.00     0.166 HD
BRANCH  18  20
HETATM   20  C   UNK N   1      32.493  16.771   5.421  0.00  0.00     0.032 A 
HETATM   21  C   UNK N   1      31.586  17.137   6.421  0.00  0.00     0.031 A 
HETATM   22  C   UNK N   1      30.265  17.374   6.118  0.00  0.00     0.032 A 
HETATM   23  C   UNK N   1      29.798  17.245   4.810  0.00  0.00     0.036 A 
HETATM   24  C   UNK N   1      30.706  16.844   3.803  0.00  0.00     0.032 A 
HETATM   25  C   UNK N   1      32.056  16.648   4.102  0.00  0.00     0.031 A 
BRANCH  23  26
HETATM   26  N   UNK N   1      28.390  17.253   4.611  0.00  0.00    -0.321 N 
HETATM   27  C   UNK N   1      27.753  18.510   4.240  0.00  0.00     0.159 C 
HETATM   28  C   UNK N   1      27.615  16.243   5.098  0.00  0.00     0.252 C 
HETATM   29  O   UNK N   1      28.097  15.148   5.371  0.00  0.00    -0.271 OA
BRANCH  28  30
HETATM   30  C   UNK N   1      26.258  16.557   5.628  0.00  0.00     0.375 C 
BRANCH  30  31
HETATM   31  N   UNK N   1      25.184  16.055   4.725  0.00  0.00     0.100 N 
HETATM   32  C   UNK N   1      24.193  17.014   4.178  0.00  0.00     0.303 C 
HETATM   33  C   UNK N   1      23.140  17.458   5.217  0.00  0.00     0.302 C 
HETATM   34  N   UNK N   1      22.528  16.333   5.931  0.00  0.00     0.087 N 
HETATM   35  C   UNK N   1      21.590  15.635   5.063  0.00  0.00     0.310 C 
HETATM   36  C   UNK N   1      23.540  15.404   6.444  0.00  0.00     0.302 C 
HETATM   37  C   UNK N   1      24.495  14.928   5.343  0.00  0.00     0.303 C 
ENDBRANCH  30  31
ENDBRANCH  28  30
ENDBRANCH  23  26
ENDBRANCH  18  20
ENDBRANCH   8  18
BRANCH   9  38
HETATM   38  O   UNK N   1      34.214  18.757   8.029  0.00  0.00    -0.345 OA
HETATM   39  H   UNK N   1      34.876  19.396   7.856  0.00  0.00     0.219 HD
ENDBRANCH   9  38
BRANCH   4  40
HETATM   40  C   UNK N   1      34.999  12.976  12.413  0.00  0.00     0.293 C 
HETATM   41  O   UNK N   1      35.009  11.769  12.209  0.00  0.00    -0.259 OA
BRANCH  40  42
HETATM   42  O   UNK N   1      34.823  13.404  13.686  0.00  0.00    -0.323 OA
HETATM   43  C   UNK N   1      35.823  13.493  14.620  0.00  0.00     0.213 C 
ENDBRANCH  40  42
ENDBRANCH   4  40
TORSDOF 9
ENDMDL
MODEL 8
REMARK VINA RESULT:      -7.3      6.465     11.900
REMARK  9 active torsions:
REMARK  status: ('A' for Active; 'I' for Inactive)
REMARK    1  A    between atoms: C_27  and  C_20 
REMARK    2  A    between atoms: N_37  and  C_20 
REMARK    3  A    between atoms: C_29  and  C_21 
REMARK    4  A    between atoms: C_31  and  C_22 
REMARK    5  A    between atoms: N_32  and  C_23 
REMARK    6  A    between atoms: N_36  and  C_24 
REMARK       I    between atoms: N_36  and  C_27 
REMARK    7  A    between atoms: N_32  and  C_29 
REMARK    8  A    between atoms: O_39  and  C_30 
REMARK    9  A    between atoms: O_41  and  C_31 
ROOT
HETATM    1  C   UNK N   1      35.911   9.667  15.687  0.00  0.00     0.018 A 
HETATM    2  C   UNK N   1      36.435  10.561  14.783  0.00  0.00     0.016 A 
HETATM    3  C   UNK N   1      35.626  11.474  17.316  0.00  0.00     0.048 A 
HETATM    4  C   UNK N   1      35.463  10.102  16.945  0.00  0.00     0.041 A 
HETATM    5  C   UNK N   1      36.514  11.897  15.135  0.00  0.00     0.007 A 
HETATM    6  C   UNK N   1      36.179  12.351  16.371  0.00  0.00     0.046 A 
HETATM    7  C   UNK N   1      36.795  13.058  14.322  0.00  0.00     0.055 A 
HETATM    8  C   UNK N   1      36.854  13.046  12.980  0.00  0.00     0.058 C 
HETATM    9  C   UNK N   1      36.729  14.177  15.276  0.00  0.00     0.154 A 
HETATM   10  N   UNK N   1      36.349  13.760  16.442  0.00  0.00    -0.336 N 
ATOM     11  HN  UNK N   1      36.198  14.341  17.267  1.00  0.00     0.168 HD
ENDROOT
BRANCH   8  12
HETATM   12  C   UNK N   1      36.453  11.785  12.297  0.00  0.00    -0.008 A 
HETATM   13  C   UNK N   1      37.477  11.010  11.734  0.00  0.00     0.014 A 
HETATM   14  C   UNK N   1      37.177   9.859  11.012  0.00  0.00     0.001 A 
HETATM   15  C   UNK N   1      35.846   9.472  10.850  0.00  0.00     0.000 A 
HETATM   16  C   UNK N   1      34.816  10.235  11.415  0.00  0.00     0.001 A 
HETATM   17  C   UNK N   1      35.114  11.400  12.135  0.00  0.00     0.014 A 
ENDBRANCH   8  12
BRANCH   8  18
HETATM   18  N   UNK N   1      36.876  14.257  12.228  0.00  0.00    -0.355 N 
HETATM   19  H   UNK N   1      37.406  15.034  12.517  0.00  0.00     0.166 HD
BRANCH  18  20
HETATM   20  C   UNK N   1      36.102  14.288  11.047  0.00  0.00     0.032 A 
HETATM   21  C   UNK N   1      34.806  14.809  11.110  0.00  0.00     0.031 A 
HETATM   22  C   UNK N   1      34.144  15.186   9.964  0.00  0.00     0.032 A 
HETATM   23  C   UNK N   1      34.746  15.046   8.714  0.00  0.00     0.036 A 
HETATM   24  C   UNK N   1      36.043  14.489   8.645  0.00  0.00     0.032 A 
HETATM   25  C   UNK N   1      36.733  14.150   9.810  0.00  0.00     0.031 A 
BRANCH  23  26
HETATM   26  N   UNK N   1      33.922  15.211   7.566  0.00  0.00    -0.321 N 
HETATM   27  C   UNK N   1      33.172  14.059   7.083  0.00  0.00     0.159 C 
HETATM   28  C   UNK N   1      34.101  16.274   6.732  0.00  0.00     0.252 C 
HETATM   29  O   UNK N   1      34.676  17.289   7.111  0.00  0.00    -0.271 OA
BRANCH  28  30
HETATM   30  C   UNK N   1      33.912  16.089   5.264  0.00  0.00     0.375 C 
BRANCH  30  31
HETATM   31  N   UNK N   1      32.847  16.982   4.728  0.00  0.00     0.100 N 
HETATM   32  C   UNK N   1      31.525  17.016   5.402  0.00  0.00     0.303 C 
HETATM   33  C   UNK N   1      30.661  15.770   5.102  0.00  0.00     0.302 C 
HETATM   34  N   UNK N   1      30.578  15.459   3.672  0.00  0.00     0.087 N 
HETATM   35  C   UNK N   1      29.703  16.409   3.000  0.00  0.00     0.310 C 
HETATM   36  C   UNK N   1      31.903  15.450   3.043  0.00  0.00     0.302 C 
HETATM   37  C   UNK N   1      32.670  16.752   3.299  0.00  0.00     0.303 C 
ENDBRANCH  30  31
ENDBRANCH  28  30
ENDBRANCH  23  26
ENDBRANCH  18  20
ENDBRANCH   8  18
BRANCH   9  38
HETATM   38  O   UNK N   1      36.920  15.479  14.983  0.00  0.00    -0.345 OA
HETATM   39  H   UNK N   1      36.476  15.872  14.258  0.00  0.00     0.219 HD
ENDBRANCH   9  38
BRANCH   4  40
HETATM   40  C   UNK N   1      34.733   9.096  17.762  0.00  0.00     0.293 C 
HETATM   41  O   UNK N   1      34.914   7.910  17.518  0.00  0.00    -0.259 OA
BRANCH  40  42
HETATM   42  O   UNK N   1      33.844   9.417  18.732  0.00  0.00    -0.323 OA
HETATM   43  C   UNK N   1      33.228   8.507  19.552  0.00  0.00     0.213 C 
ENDBRANCH  40  42
ENDBRANCH   4  40
TORSDOF 9
ENDMDL
MODEL 9
REMARK VINA RESULT:      -7.1      2.843     10.111
REMARK  9 active torsions:
REMARK  status: ('A' for Active; 'I' for Inactive)
REMARK    1  A    between atoms: C_27  and  C_20 
REMARK    2  A    between atoms: N_37  and  C_20 
REMARK    3  A    between atoms: C_29  and  C_21 
REMARK    4  A    between atoms: C_31  and  C_22 
REMARK    5  A    between atoms: N_32  and  C_23 
REMARK    6  A    between atoms: N_36  and  C_24 
REMARK       I    between atoms: N_36  and  C_27 
REMARK    7  A    between atoms: N_32  and  C_29 
REMARK    8  A    between atoms: O_39  and  C_30 
REMARK    9  A    between atoms: O_41  and  C_31 
ROOT
HETATM    1  C   UNK N   1      23.815  18.590   4.829  0.00  0.00     0.018 A 
HETATM    2  C   UNK N   1      24.976  18.135   4.249  0.00  0.00     0.016 A 
HETATM    3  C   UNK N   1      22.620  16.623   3.990  0.00  0.00     0.048 A 
HETATM    4  C   UNK N   1      22.633  17.835   4.748  0.00  0.00     0.041 A 
HETATM    5  C   UNK N   1      24.958  16.922   3.583  0.00  0.00     0.007 A 
HETATM    6  C   UNK N   1      23.822  16.201   3.400  0.00  0.00     0.046 A 
HETATM    7  C   UNK N   1      26.053  16.113   3.095  0.00  0.00     0.055 A 
HETATM    8  C   UNK N   1      27.346  16.336   3.382  0.00  0.00     0.058 C 
HETATM    9  C   UNK N   1      25.384  14.949   2.490  0.00  0.00     0.154 A 
HETATM   10  N   UNK N   1      24.106  15.001   2.696  0.00  0.00    -0.336 N 
ATOM     11  HN  UNK N   1      23.423  14.301   2.404  1.00  0.00     0.168 HD
ENDROOT
BRANCH   8  12
HETATM   12  C   UNK N   1      27.642  17.392   4.389  0.00  0.00    -0.008 A 
HETATM   13  C   UNK N   1      27.534  17.034   5.740  0.00  0.00     0.014 A 
HETATM   14  C   UNK N   1      27.718  17.985   6.740  0.00  0.00     0.001 A 
HETATM   15  C   UNK N   1      28.012  19.304   6.394  0.00  0.00     0.000 A 
HETATM   16  C   UNK N   1      28.130  19.670   5.047  0.00  0.00     0.001 A 
HETATM   17  C   UNK N   1      27.936  18.718   4.038  0.00  0.00     0.014 A 
ENDBRANCH   8  12
BRANCH   8  18
HETATM   18  N   UNK N   1      28.348  15.365   3.091  0.00  0.00    -0.355 N 
HETATM   19  H   UNK N   1      28.154  14.575   2.538  0.00  0.00     0.166 HD
BRANCH  18  20
HETATM   20  C   UNK N   1      29.632  15.592   3.633  0.00  0.00     0.032 A 
HETATM   21  C   UNK N   1      30.072  14.771   4.677  0.00  0.00     0.031 A 
HETATM   22  C   UNK N   1      31.406  14.706   5.005  0.00  0.00     0.032 A 
HETATM   23  C   UNK N   1      32.349  15.466   4.312  0.00  0.00     0.036 A 
HETATM   24  C   UNK N   1      31.903  16.321   3.279  0.00  0.00     0.032 A 
HETATM   25  C   UNK N   1      30.555  16.352   2.915  0.00  0.00     0.031 A 
BRANCH  23  26
HETATM   26  N   UNK N   1      33.659  15.548   4.861  0.00  0.00    -0.321 N 
HETATM   27  C   UNK N   1      34.596  14.469   4.576  0.00  0.00     0.159 C 
HETATM   28  C   UNK N   1      33.922  16.388   5.902  0.00  0.00     0.252 C 
HETATM   29  O   UNK N   1      33.193  17.344   6.146  0.00  0.00    -0.271 OA
BRANCH  28  30
HETATM   30  C   UNK N   1      34.889  15.963   6.955  0.00  0.00     0.375 C 
BRANCH  30  31
HETATM   31  N   UNK N   1      34.192  15.450   8.168  0.00  0.00     0.100 N 
HETATM   32  C   UNK N   1      33.905  16.383   9.286  0.00  0.00     0.303 C 
HETATM   33  C   UNK N   1      35.157  16.726  10.124  0.00  0.00     0.302 C 
HETATM   34  N   UNK N   1      35.916  15.541  10.534  0.00  0.00     0.087 N 
HETATM   35  C   UNK N   1      35.215  14.838  11.600  0.00  0.00     0.310 C 
HETATM   36  C   UNK N   1      36.166  14.641   9.405  0.00  0.00     0.302 C 
HETATM   37  C   UNK N   1      34.872  14.264   8.673  0.00  0.00     0.303 C 
ENDBRANCH  30  31
ENDBRANCH  28  30
ENDBRANCH  23  26
ENDBRANCH  18  20
ENDBRANCH   8  18
BRANCH   9  38
HETATM   38  O   UNK N   1      25.996  13.904   1.899  0.00  0.00    -0.345 OA
HETATM   39  H   UNK N   1      25.934  13.046   2.270  0.00  0.00     0.219 HD
ENDBRANCH   9  38
BRANCH   4  40
HETATM   40  C   UNK N   1      21.494  18.315   5.576  0.00  0.00     0.293 C 
HETATM   41  O   UNK N   1      20.718  19.122   5.081  0.00  0.00    -0.259 OA
BRANCH  40  42
HETATM   42  O   UNK N   1      21.292  17.946   6.864  0.00  0.00    -0.323 OA
HETATM   43  C   UNK N   1      20.731  16.755   7.250  0.00  0.00     0.213 C 
ENDBRANCH  40  42
ENDBRANCH   4  40
TORSDOF 9
ENDMDL
