MODEL 1
REMARK VINA RESULT:      -7.3      0.000      0.000
REMARK  16 active torsions:
REMARK  status: ('A' for Active; 'I' for Inactive)
REMARK    1  A    between atoms: C_2  and  C_4 
REMARK    2  A    between atoms: C_2  and  O_7 
REMARK    3  A    between atoms: C_4  and  O_6 
REMARK    4  A    between atoms: O_7  and  N_8 
REMARK    5  A    between atoms: C_10  and  C_11 
REMARK    6  A    between atoms: C_10  and  C_19 
REMARK    7  A    between atoms: C_14  and  N_18 
REMARK       I    between atoms: C_19  and  N_21 
REMARK    8  A    between atoms: C_22  and  N_21 
REMARK    9  A    between atoms: C_27  and  C_46 
REMARK   10  A    between atoms: C_28  and  C_31 
REMARK   11  A    between atoms: C_31  and  N_32 
REMARK   12  A    between atoms: C_34  and  N_39 
REMARK   13  A    between atoms: C_35  and  N_38 
REMARK       I    between atoms: N_39  and  C_40 
REMARK       I    between atoms: C_40  and  N_42 
REMARK   14  A    between atoms: N_42  and  C_43 
REMARK   15  A    between atoms: C_43  and  C_44 
REMARK   16  A    between atoms: C_44  and  N_45 
ROOT
HETATM    1  C   UNK N   1      27.753  18.298   5.406  0.00  0.00     0.200 C 
HETATM    2  C   UNK N   1      28.414  16.872   5.561  0.00  0.00     0.164 C 
HETATM    3  N   UNK N   1      28.523  17.154   6.977  0.00  0.00    -0.195 NA
HETATM    4  C   UNK N   1      27.785  18.250   6.888  0.00  0.00     0.230 C 
HETATM    5  O   UNK N   1      27.847  19.220   7.624  0.00  0.00    -0.277 OA
HETATM    6  C   UNK N   1      29.766  17.089   7.709  0.00  0.00     0.101 C 
HETATM    7  C   UNK N   1      30.812  16.495   7.063  0.00  0.00    -0.022 C 
HETATM    8  C   UNK N   1      30.571  15.718   5.822  0.00  0.00     0.113 C 
HETATM    9  S   UNK N   1      29.951  16.862   4.615  0.00  0.00    -0.141 SA
ENDROOT
BRANCH   1  10
HETATM   10  N   UNK N   1      26.549  18.247   4.634  0.00  0.00    -0.340 N 
HETATM   11  C   UNK N   1      25.469  19.045   4.766  0.00  0.00     0.274 C 
HETATM   12  O   UNK N   1      25.532  20.116   5.350  0.00  0.00    -0.266 OA
HETATM   13  H   UNK N   1      26.504  17.557   3.934  0.00  0.00     0.163 HD
BRANCH  11  14
HETATM   14  C   UNK N   1      24.191  18.365   4.641  0.00  0.00     0.166 C 
HETATM   15  N   UNK N   1      23.937  17.262   5.263  0.00  0.00    -0.256 N 
ATOM     16  HN  UNK N   1      22.983  16.902   5.252  1.00  0.00     0.194 HD
BRANCH  15  17
HETATM   17  O   UNK N   1      24.871  16.575   5.918  0.00  0.00    -0.258 OA
BRANCH  17  18
HETATM   18  C   UNK N   1      24.920  15.192   6.097  0.00  0.00     0.166 C 
HETATM   19  C   UNK N   1      23.528  14.596   6.250  0.00  0.00     0.060 C 
HETATM   20  C   UNK N   1      25.778  14.801   7.285  0.00  0.00     0.060 C 
BRANCH  18  21
HETATM   21  C   UNK N   1      25.602  14.591   4.898  0.00  0.00     0.178 C 
HETATM   22  O   UNK N   1      26.014  13.440   4.934  0.00  0.00    -0.648 OA
BRANCH  21  23
HETATM   23  O   UNK N   1      25.798  15.329   3.788  0.00  0.00    -0.774 OA
HETATM   24  H   UNK N   1      26.394  15.622   3.127  0.00  0.00     0.167 HD
ENDBRANCH  21  23
ENDBRANCH  18  21
ENDBRANCH  17  18
ENDBRANCH  15  17
BRANCH  14  25
HETATM   25  C   UNK N   1      23.160  19.076   3.838  0.00  0.00     0.148 A 
HETATM   26  N   UNK N   1      21.847  18.600   3.795  0.00  0.00    -0.320 N 
HETATM   27  C   UNK N   1      21.054  19.386   3.037  0.00  0.00     0.160 A 
ATOM     28  HN  UNK N   1      21.528  17.761   4.279  1.00  0.00     0.169 HD
HETATM   29  S   UNK N   1      21.962  20.604   2.462  0.00  0.00     0.024 SA
HETATM   30  N   UNK N   1      23.420  20.223   3.127  0.00  0.00    -0.307 N 
ATOM     31  HN  UNK N   1      24.305  20.720   3.034  1.00  0.00     0.176 HD
BRANCH  27  32
HETATM   32  N   UNK N   1      19.676  19.168   2.822  0.00  0.00    -0.379 N 
HETATM   33  H   UNK N   1      19.016  19.806   3.177  0.00  0.00     0.158 HD
HETATM   34  H   UNK N   1      19.376  18.379   2.317  0.00  0.00     0.158 HD
ENDBRANCH  27  32
ENDBRANCH  14  25
ENDBRANCH  11  14
ENDBRANCH   1  10
BRANCH   6  35
HETATM   35  C   UNK N   1      29.950  17.809   9.027  0.00  0.00     0.222 C 
HETATM   36  O   UNK N   1      29.403  17.407  10.042  0.00  0.00    -0.643 OA
HETATM   37  O   UNK N   1      30.609  18.982   9.084  0.00  0.00    -0.643 OA
ENDBRANCH   6  35
BRANCH   7  38
HETATM   38  C   UNK N   1      32.206  16.887   7.378  0.00  0.00     0.185 C 
BRANCH  38  39
HETATM   39  N   UNK N   1      33.077  15.883   7.942  0.00  0.00    -0.294 N 
HETATM   40  C   UNK N   1      32.864  15.481   9.191  0.00  0.00     0.144 A 
HETATM   41  C   UNK N   1      33.904  14.668   9.560  0.00  0.00     0.099 A 
HETATM   42  C   UNK N   1      34.743  14.602   8.465  0.00  0.00     0.144 A 
HETATM   43  N   UNK N   1      34.217  15.368   7.491  0.00  0.00    -0.277 N 
HETATM   44  C   UNK N   1      34.859  15.646   6.210  0.00  0.00     0.179 C 
BRANCH  41  45
HETATM   45  N   UNK N   1      34.088  14.143  10.868  0.00  0.00    -0.304 N 
HETATM   46  C   UNK N   1      35.088  14.601  11.679  0.00  0.00     0.320 C 
HETATM   47  O   UNK N   1      35.775  15.560  11.345  0.00  0.00    -0.247 OA
HETATM   48  N   UNK N   1      35.328  14.000  12.864  0.00  0.00    -0.341 N 
HETATM   49  H   UNK N   1      34.787  13.226  13.142  0.00  0.00     0.164 HD
HETATM   50  H   UNK N   1      33.483  13.439  11.195  0.00  0.00     0.171 HD
BRANCH  48  51
HETATM   51  C   UNK N   1      36.378  14.494  13.724  0.00  0.00     0.143 C 
BRANCH  51  52
HETATM   52  C   UNK N   1      36.567  13.592  14.921  0.00  0.00     0.130 C 
BRANCH  52  53
HETATM   53  N   UNK N   1      37.554  12.580  14.595  0.00  0.00    -0.429 N 
HETATM   54  H   UNK N   1      37.463  12.030  13.742  0.00  0.00     0.149 HD
HETATM   55  H   UNK N   1      38.343  12.417  15.222  0.00  0.00     0.149 HD
ENDBRANCH  52  53
ENDBRANCH  51  52
ENDBRANCH  48  51
ENDBRANCH  41  45
BRANCH  42  56
HETATM   56  N   UNK N   1      35.976  13.924   8.379  0.00  0.00    -0.382 N 
HETATM   57  H   UNK N   1      36.820  14.424   8.451  0.00  0.00     0.157 HD
HETATM   58  H   UNK N   1      35.992  12.947   8.248  0.00  0.00     0.157 HD
ENDBRANCH  42  56
ENDBRANCH  38  39
ENDBRANCH   7  38
TORSDOF 16
ENDMDL
MODEL 2
REMARK VINA RESULT:      -7.3      3.849      5.774
REMARK  16 active torsions:
REMARK  status: ('A' for Active; 'I' for Inactive)
REMARK    1  A    between atoms: C_2  and  C_4 
REMARK    2  A    between atoms: C_2  and  O_7 
REMARK    3  A    between atoms: C_4  and  O_6 
REMARK    4  A    between atoms: O_7  and  N_8 
REMARK    5  A    between atoms: C_10  and  C_11 
REMARK    6  A    between atoms: C_10  and  C_19 
REMARK    7  A    between atoms: C_14  and  N_18 
REMARK       I    between atoms: C_19  and  N_21 
REMARK    8  A    between atoms: C_22  and  N_21 
REMARK    9  A    between atoms: C_27  and  C_46 
REMARK   10  A    between atoms: C_28  and  C_31 
REMARK   11  A    between atoms: C_31  and  N_32 
REMARK   12  A    between atoms: C_34  and  N_39 
REMARK   13  A    between atoms: C_35  and  N_38 
REMARK       I    between atoms: N_39  and  C_40 
REMARK       I    between atoms: C_40  and  N_42 
REMARK   14  A    between atoms: N_42  and  C_43 
REMARK   15  A    between atoms: C_43  and  C_44 
REMARK   16  A    between atoms: C_44  and  N_45 
ROOT
HETATM    1  C   UNK N   1      32.163  14.744   5.747  0.00  0.00     0.200 C 
HETATM    2  C   UNK N   1      31.992  14.521   7.301  0.00  0.00     0.164 C 
HETATM    3  N   UNK N   1      32.157  15.951   7.453  0.00  0.00    -0.195 NA
HETATM    4  C   UNK N   1      32.089  16.169   6.149  0.00  0.00     0.230 C 
HETATM    5  O   UNK N   1      32.601  17.099   5.549  0.00  0.00    -0.277 OA
HETATM    6  C   UNK N   1      33.152  16.551   8.310  0.00  0.00     0.101 C 
HETATM    7  C   UNK N   1      33.778  15.709   9.184  0.00  0.00    -0.022 C 
HETATM    8  C   UNK N   1      33.238  14.346   9.415  0.00  0.00     0.113 C 
HETATM    9  S   UNK N   1      33.353  13.481   7.870  0.00  0.00    -0.141 SA
ENDROOT
BRANCH   1  10
HETATM   10  N   UNK N   1      31.143  14.075   4.997  0.00  0.00    -0.340 N 
HETATM   11  C   UNK N   1      30.617  14.469   3.817  0.00  0.00     0.274 C 
HETATM   12  O   UNK N   1      31.188  15.275   3.099  0.00  0.00    -0.266 OA
HETATM   13  H   UNK N   1      30.789  13.241   5.382  0.00  0.00     0.163 HD
BRANCH  11  14
HETATM   14  C   UNK N   1      29.179  14.290   3.704  0.00  0.00     0.166 C 
HETATM   15  N   UNK N   1      28.343  15.011   4.373  0.00  0.00    -0.256 N 
ATOM     16  HN  UNK N   1      27.350  14.941   4.152  1.00  0.00     0.194 HD
BRANCH  15  17
HETATM   17  O   UNK N   1      28.725  15.844   5.339  0.00  0.00    -0.258 OA
BRANCH  17  18
HETATM   18  C   UNK N   1      28.153  17.077   5.654  0.00  0.00     0.166 C 
HETATM   19  C   UNK N   1      28.299  17.402   7.133  0.00  0.00     0.060 C 
HETATM   20  C   UNK N   1      26.691  17.146   5.256  0.00  0.00     0.060 C 
BRANCH  18  21
HETATM   21  C   UNK N   1      28.839  18.133   4.830  0.00  0.00     0.178 C 
HETATM   22  O   UNK N   1      28.405  19.276   4.805  0.00  0.00    -0.648 OA
BRANCH  21  23
HETATM   23  O   UNK N   1      29.916  17.818   4.084  0.00  0.00    -0.774 OA
HETATM   24  H   UNK N   1      30.294  17.254   3.439  0.00  0.00     0.167 HD
ENDBRANCH  21  23
ENDBRANCH  18  21
ENDBRANCH  17  18
ENDBRANCH  15  17
BRANCH  14  25
HETATM   25  C   UNK N   1      28.734  13.298   2.689  0.00  0.00     0.148 A 
HETATM   26  N   UNK N   1      29.576  12.941   1.633  0.00  0.00    -0.320 N 
HETATM   27  C   UNK N   1      29.011  12.016   0.830  0.00  0.00     0.160 A 
ATOM     28  HN  UNK N   1      30.506  13.333   1.487  1.00  0.00     0.169 HD
HETATM   29  S   UNK N   1      27.538  11.674   1.425  0.00  0.00     0.024 SA
HETATM   30  N   UNK N   1      27.512  12.672   2.735  0.00  0.00    -0.307 N 
ATOM     31  HN  UNK N   1      26.765  12.796   3.419  1.00  0.00     0.176 HD
BRANCH  27  32
HETATM   32  N   UNK N   1      29.628  11.451  -0.306  0.00  0.00    -0.379 N 
HETATM   33  H   UNK N   1      30.180  10.642  -0.215  0.00  0.00     0.158 HD
HETATM   34  H   UNK N   1      29.506  11.867  -1.190  0.00  0.00     0.158 HD
ENDBRANCH  27  32
ENDBRANCH  14  25
ENDBRANCH  11  14
ENDBRANCH   1  10
BRANCH   6  35
HETATM   35  C   UNK N   1      33.611  17.980   8.115  0.00  0.00     0.222 C 
HETATM   36  O   UNK N   1      32.935  18.914   8.517  0.00  0.00    -0.643 OA
HETATM   37  O   UNK N   1      34.702  18.257   7.378  0.00  0.00    -0.643 OA
ENDBRANCH   6  35
BRANCH   7  38
HETATM   38  C   UNK N   1      35.158  15.996   9.641  0.00  0.00     0.185 C 
BRANCH  38  39
HETATM   39  N   UNK N   1      35.787  15.042  10.523  0.00  0.00    -0.294 N 
HETATM   40  C   UNK N   1      35.713  15.239  11.836  0.00  0.00     0.144 A 
HETATM   41  C   UNK N   1      36.518  14.316  12.451  0.00  0.00     0.099 A 
HETATM   42  C   UNK N   1      37.071  13.557  11.439  0.00  0.00     0.144 A 
HETATM   43  N   UNK N   1      36.615  14.034  10.265  0.00  0.00    -0.277 N 
HETATM   44  C   UNK N   1      37.049  13.569   8.952  0.00  0.00     0.179 C 
BRANCH  41  45
HETATM   45  N   UNK N   1      36.790  14.292  13.846  0.00  0.00    -0.304 N 
HETATM   46  C   UNK N   1      35.912  13.724  14.727  0.00  0.00     0.320 C 
HETATM   47  O   UNK N   1      34.928  13.114  14.324  0.00  0.00    -0.247 OA
HETATM   48  N   UNK N   1      36.125  13.828  16.056  0.00  0.00    -0.341 N 
HETATM   49  H   UNK N   1      36.908  14.320  16.393  0.00  0.00     0.164 HD
HETATM   50  H   UNK N   1      37.624  14.690  14.183  0.00  0.00     0.171 HD
BRANCH  48  51
HETATM   51  C   UNK N   1      35.202  13.216  16.984  0.00  0.00     0.143 C 
BRANCH  51  52
HETATM   52  C   UNK N   1      35.145  13.989  18.280  0.00  0.00     0.130 C 
BRANCH  52  53
HETATM   53  N   UNK N   1      35.311  13.064  19.386  0.00  0.00    -0.429 N 
HETATM   54  H   UNK N   1      36.177  13.059  19.924  0.00  0.00     0.149 HD
HETATM   55  H   UNK N   1      34.560  12.417  19.626  0.00  0.00     0.149 HD
ENDBRANCH  52  53
ENDBRANCH  51  52
ENDBRANCH  48  51
ENDBRANCH  41  45
BRANCH  42  56
HETATM   56  N   UNK N   1      38.009  12.513  11.575  0.00  0.00    -0.382 N 
HETATM   57  H   UNK N   1      38.886  12.577  11.133  0.00  0.00     0.157 HD
HETATM   58  H   UNK N   1      37.786  11.719  12.114  0.00  0.00     0.157 HD
ENDBRANCH  42  56
ENDBRANCH  38  39
ENDBRANCH   7  38
TORSDOF 16
ENDMDL
MODEL 3
REMARK VINA RESULT:      -7.2      4.027     11.501
REMARK  16 active torsions:
REMARK  status: ('A' for Active; 'I' for Inactive)
REMARK    1  A    between atoms: C_2  and  C_4 
REMARK    2  A    between atoms: C_2  and  O_7 
REMARK    3  A    between atoms: C_4  and  O_6 
REMARK    4  A    between atoms: O_7  and  N_8 
REMARK    5  A    between atoms: C_10  and  C_11 
REMARK    6  A    between atoms: C_10  and  C_19 
REMARK    7  A    between atoms: C_14  and  N_18 
REMARK       I    between atoms: C_19  and  N_21 
REMARK    8  A    between atoms: C_22  and  N_21 
REMARK    9  A    between atoms: C_27  and  C_46 
REMARK   10  A    between atoms: C_28  and  C_31 
REMARK   11  A    between atoms: C_31  and  N_32 
REMARK   12  A    between atoms: C_34  and  N_39 
REMARK   13  A    between atoms: C_35  and  N_38 
REMARK       I    between atoms: N_39  and  C_40 
REMARK       I    between atoms: C_40  and  N_42 
REMARK   14  A    between atoms: N_42  and  C_43 
REMARK   15  A    between atoms: C_43  and  C_44 
REMARK   16  A    between atoms: C_44  and  N_45 
ROOT
HETATM    1  C   UNK N   1      26.503  15.360   3.578  0.00  0.00     0.200 C 
HETATM    2  C   UNK N   1      26.200  13.867   3.996  0.00  0.00     0.164 C 
HETATM    3  N   UNK N   1      25.764  13.648   2.634  0.00  0.00    -0.195 NA
HETATM    4  C   UNK N   1      26.210  14.826   2.226  0.00  0.00     0.230 C 
HETATM    5  O   UNK N   1      25.772  15.476   1.291  0.00  0.00    -0.277 OA
HETATM    6  C   UNK N   1      24.463  13.126   2.289  0.00  0.00     0.101 C 
HETATM    7  C   UNK N   1      23.736  12.598   3.317  0.00  0.00    -0.022 C 
HETATM    8  C   UNK N   1      24.389  12.325   4.622  0.00  0.00     0.113 C 
HETATM    9  S   UNK N   1      24.918  13.891   5.267  0.00  0.00    -0.141 SA
ENDROOT
BRANCH   1  10
HETATM   10  N   UNK N   1      27.804  15.779   4.003  0.00  0.00    -0.340 N 
HETATM   11  C   UNK N   1      28.119  16.378   5.172  0.00  0.00     0.274 C 
HETATM   12  O   UNK N   1      27.370  16.333   6.136  0.00  0.00    -0.266 OA
HETATM   13  H   UNK N   1      28.546  15.615   3.378  0.00  0.00     0.163 HD
BRANCH  11  14
HETATM   14  C   UNK N   1      29.092  17.451   5.062  0.00  0.00     0.166 C 
HETATM   15  N   UNK N   1      28.827  18.559   4.453  0.00  0.00    -0.256 N 
ATOM     16  HN  UNK N   1      29.492  19.328   4.526  1.00  0.00     0.194 HD
BRANCH  15  17
HETATM   17  O   UNK N   1      27.721  18.736   3.734  0.00  0.00    -0.258 OA
BRANCH  17  18
HETATM   18  C   UNK N   1      26.607  19.498   4.089  0.00  0.00     0.166 C 
HETATM   19  C   UNK N   1      25.345  18.651   4.151  0.00  0.00     0.060 C 
HETATM   20  C   UNK N   1      26.393  20.668   3.147  0.00  0.00     0.060 C 
BRANCH  18  21
HETATM   21  C   UNK N   1      26.873  20.115   5.435  0.00  0.00     0.178 C 
HETATM   22  O   UNK N   1      27.321  21.250   5.517  0.00  0.00    -0.648 OA
BRANCH  21  23
HETATM   23  O   UNK N   1      26.655  19.407   6.561  0.00  0.00    -0.774 OA
HETATM   24  H   UNK N   1      26.099  19.241   7.296  0.00  0.00     0.167 HD
ENDBRANCH  21  23
ENDBRANCH  18  21
ENDBRANCH  17  18
ENDBRANCH  15  17
BRANCH  14  25
HETATM   25  C   UNK N   1      30.373  17.234   5.788  0.00  0.00     0.148 A 
HETATM   26  N   UNK N   1      30.377  17.053   7.173  0.00  0.00    -0.320 N 
HETATM   27  C   UNK N   1      31.623  16.849   7.649  0.00  0.00     0.160 A 
ATOM     28  HN  UNK N   1      29.539  17.074   7.754  1.00  0.00     0.169 HD
HETATM   29  S   UNK N   1      32.649  16.892   6.390  0.00  0.00     0.024 SA
HETATM   30  N   UNK N   1      31.593  17.175   5.159  0.00  0.00    -0.307 N 
ATOM     31  HN  UNK N   1      31.796  17.282   4.165  1.00  0.00     0.176 HD
BRANCH  27  32
HETATM   32  N   UNK N   1      31.939  16.619   9.005  0.00  0.00    -0.379 N 
HETATM   33  H   UNK N   1      32.879  16.534   9.284  0.00  0.00     0.158 HD
HETATM   34  H   UNK N   1      31.219  16.544   9.671  0.00  0.00     0.158 HD
ENDBRANCH  27  32
ENDBRANCH  14  25
ENDBRANCH  11  14
ENDBRANCH   1  10
BRANCH   6  35
HETATM   35  C   UNK N   1      23.863  13.332   0.914  0.00  0.00     0.222 C 
HETATM   36  O   UNK N   1      24.113  12.561   0.001  0.00  0.00    -0.643 OA
HETATM   37  O   UNK N   1      23.153  14.440   0.633  0.00  0.00    -0.643 OA
ENDBRANCH   6  35
BRANCH   7  38
HETATM   38  C   UNK N   1      22.255  12.609   3.270  0.00  0.00     0.185 C 
BRANCH  38  39
HETATM   39  N   UNK N   1      21.566  13.628   4.026  0.00  0.00    -0.294 N 
HETATM   40  C   UNK N   1      21.737  14.902   3.687  0.00  0.00     0.144 A 
HETATM   41  C   UNK N   1      21.133  15.681   4.640  0.00  0.00     0.099 A 
HETATM   42  C   UNK N   1      20.589  14.806   5.559  0.00  0.00     0.144 A 
HETATM   43  N   UNK N   1      20.882  13.553   5.164  0.00  0.00    -0.277 N 
HETATM   44  C   UNK N   1      20.575  12.346   5.926  0.00  0.00     0.179 C 
BRANCH  41  45
HETATM   45  N   UNK N   1      21.209  17.099   4.682  0.00  0.00    -0.304 N 
HETATM   46  C   UNK N   1      20.587  17.869   3.738  0.00  0.00     0.320 C 
HETATM   47  O   UNK N   1      19.848  17.359   2.903  0.00  0.00    -0.247 OA
HETATM   48  N   UNK N   1      20.779  19.205   3.720  0.00  0.00    -0.341 N 
HETATM   49  H   UNK N   1      21.374  19.626   4.380  0.00  0.00     0.164 HD
HETATM   50  H   UNK N   1      21.717  17.535   5.403  0.00  0.00     0.171 HD
BRANCH  48  51
HETATM   51  C   UNK N   1      20.111  20.016   2.729  0.00  0.00     0.143 C 
BRANCH  51  52
HETATM   52  C   UNK N   1      21.087  20.515   1.689  0.00  0.00     0.130 C 
BRANCH  52  53
HETATM   53  N   UNK N   1      20.344  20.962   0.525  0.00  0.00    -0.429 N 
HETATM   54  H   UNK N   1      19.643  21.696   0.614  0.00  0.00     0.149 HD
HETATM   55  H   UNK N   1      20.524  20.539  -0.386  0.00  0.00     0.149 HD
ENDBRANCH  52  53
ENDBRANCH  51  52
ENDBRANCH  48  51
ENDBRANCH  41  45
BRANCH  42  56
HETATM   56  N   UNK N   1      19.910  15.138   6.749  0.00  0.00    -0.382 N 
HETATM   57  H   UNK N   1      19.374  15.962   6.797  0.00  0.00     0.157 HD
HETATM   58  H   UNK N   1      19.972  14.545   7.533  0.00  0.00     0.157 HD
ENDBRANCH  42  56
ENDBRANCH  38  39
ENDBRANCH   7  38
TORSDOF 16
ENDMDL
MODEL 4
REMARK VINA RESULT:      -7.1      4.112     11.161
REMARK  16 active torsions:
REMARK  status: ('A' for Active; 'I' for Inactive)
REMARK    1  A    between atoms: C_2  and  C_4 
REMARK    2  A    between atoms: C_2  and  O_7 
REMARK    3  A    between atoms: C_4  and  O_6 
REMARK    4  A    between atoms: O_7  and  N_8 
REMARK    5  A    between atoms: C_10  and  C_11 
REMARK    6  A    between atoms: C_10  and  C_19 
REMARK    7  A    between atoms: C_14  and  N_18 
REMARK       I    between atoms: C_19  and  N_21 
REMARK    8  A    between atoms: C_22  and  N_21 
REMARK    9  A    between atoms: C_27  and  C_46 
REMARK   10  A    between atoms: C_28  and  C_31 
REMARK   11  A    between atoms: C_31  and  N_32 
REMARK   12  A    between atoms: C_34  and  N_39 
REMARK   13  A    between atoms: C_35  and  N_38 
REMARK       I    between atoms: N_39  and  C_40 
REMARK       I    between atoms: C_40  and  N_42 
REMARK   14  A    between atoms: N_42  and  C_43 
REMARK   15  A    between atoms: C_43  and  C_44 
REMARK   16  A    between atoms: C_44  and  N_45 
ROOT
HETATM    1  C   UNK N   1      26.313  15.255   4.588  0.00  0.00     0.200 C 
HETATM    2  C   UNK N   1      26.156  14.175   5.729  0.00  0.00     0.164 C 
HETATM    3  N   UNK N   1      25.468  13.351   4.758  0.00  0.00    -0.195 NA
HETATM    4  C   UNK N   1      25.780  14.153   3.751  0.00  0.00     0.230 C 
HETATM    5  O   UNK N   1      25.143  14.294   2.721  0.00  0.00    -0.277 OA
HETATM    6  C   UNK N   1      24.145  12.812   4.966  0.00  0.00     0.101 C 
HETATM    7  C   UNK N   1      23.656  12.895   6.238  0.00  0.00    -0.022 C 
HETATM    8  C   UNK N   1      24.562  13.248   7.358  0.00  0.00     0.113 C 
HETATM    9  S   UNK N   1      25.149  14.893   7.044  0.00  0.00    -0.141 SA
ENDROOT
BRANCH   1  10
HETATM   10  N   UNK N   1      27.656  15.744   4.498  0.00  0.00    -0.340 N 
HETATM   11  C   UNK N   1      28.243  16.648   5.312  0.00  0.00     0.274 C 
HETATM   12  O   UNK N   1      27.789  16.906   6.416  0.00  0.00    -0.266 OA
HETATM   13  H   UNK N   1      28.208  15.385   3.767  0.00  0.00     0.163 HD
BRANCH  11  14
HETATM   14  C   UNK N   1      29.090  17.615   4.634  0.00  0.00     0.166 C 
HETATM   15  N   UNK N   1      28.600  18.593   3.947  0.00  0.00    -0.256 N 
ATOM     16  HN  UNK N   1      29.232  19.320   3.611  1.00  0.00     0.194 HD
BRANCH  15  17
HETATM   17  O   UNK N   1      27.304  18.691   3.659  0.00  0.00    -0.258 OA
BRANCH  17  18
HETATM   18  C   UNK N   1      26.436  19.709   4.054  0.00  0.00     0.166 C 
HETATM   19  C   UNK N   1      26.104  20.644   2.900  0.00  0.00     0.060 C 
HETATM   20  C   UNK N   1      26.987  20.510   5.218  0.00  0.00     0.060 C 
BRANCH  18  21
HETATM   21  C   UNK N   1      25.175  19.072   4.572  0.00  0.00     0.178 C 
HETATM   22  O   UNK N   1      24.095  19.337   4.063  0.00  0.00    -0.648 OA
BRANCH  21  23
HETATM   23  O   UNK N   1      25.222  18.232   5.624  0.00  0.00    -0.774 OA
HETATM   24  H   UNK N   1      25.526  18.072   6.496  0.00  0.00     0.167 HD
ENDBRANCH  21  23
ENDBRANCH  18  21
ENDBRANCH  17  18
ENDBRANCH  15  17
BRANCH  14  25
HETATM   25  C   UNK N   1      30.551  17.469   4.873  0.00  0.00     0.148 A 
HETATM   26  N   UNK N   1      31.019  16.918   6.068  0.00  0.00    -0.320 N 
HETATM   27  C   UNK N   1      32.366  16.845   6.094  0.00  0.00     0.160 A 
ATOM     28  HN  UNK N   1      30.415  16.608   6.829  1.00  0.00     0.169 HD
HETATM   29  S   UNK N   1      32.923  17.440   4.688  0.00  0.00     0.024 SA
HETATM   30  N   UNK N   1      31.503  17.833   3.952  0.00  0.00    -0.307 N 
ATOM     31  HN  UNK N   1      31.364  18.249   3.031  1.00  0.00     0.176 HD
BRANCH  27  32
HETATM   32  N   UNK N   1      33.123  16.319   7.162  0.00  0.00    -0.379 N 
HETATM   33  H   UNK N   1      32.983  16.655   8.077  0.00  0.00     0.158 HD
HETATM   34  H   UNK N   1      33.791  15.618   6.992  0.00  0.00     0.158 HD
ENDBRANCH  27  32
ENDBRANCH  14  25
ENDBRANCH  11  14
ENDBRANCH   1  10
BRANCH   6  35
HETATM   35  C   UNK N   1      23.280  12.363   3.808  0.00  0.00     0.222 C 
HETATM   36  O   UNK N   1      22.442  13.109   3.326  0.00  0.00    -0.643 OA
HETATM   37  O   UNK N   1      23.319  11.089   3.373  0.00  0.00    -0.643 OA
ENDBRANCH   6  35
BRANCH   7  38
HETATM   38  C   UNK N   1      22.195  12.977   6.473  0.00  0.00     0.185 C 
BRANCH  38  39
HETATM   39  N   UNK N   1      21.617  14.286   6.671  0.00  0.00    -0.294 N 
HETATM   40  C   UNK N   1      21.856  15.233   5.770  0.00  0.00     0.144 A 
HETATM   41  C   UNK N   1      21.357  16.415   6.253  0.00  0.00     0.099 A 
HETATM   42  C   UNK N   1      20.806  16.122   7.485  0.00  0.00     0.144 A 
HETATM   43  N   UNK N   1      20.993  14.810   7.722  0.00  0.00    -0.277 N 
HETATM   44  C   UNK N   1      20.648  14.131   8.967  0.00  0.00     0.179 C 
BRANCH  41  45
HETATM   45  N   UNK N   1      21.530  17.676   5.620  0.00  0.00    -0.304 N 
HETATM   46  C   UNK N   1      20.833  18.002   4.491  0.00  0.00     0.320 C 
HETATM   47  O   UNK N   1      19.952  17.263   4.064  0.00  0.00    -0.247 OA
HETATM   48  N   UNK N   1      21.107  19.148   3.833  0.00  0.00    -0.341 N 
HETATM   49  H   UNK N   1      21.816  19.748   4.161  0.00  0.00     0.164 HD
HETATM   50  H   UNK N   1      22.162  18.327   6.003  0.00  0.00     0.171 HD
BRANCH  48  51
HETATM   51  C   UNK N   1      20.360  19.495   2.646  0.00  0.00     0.143 C 
BRANCH  51  52
HETATM   52  C   UNK N   1      21.018  20.635   1.905  0.00  0.00     0.130 C 
BRANCH  52  53
HETATM   53  N   UNK N   1      20.404  20.762   0.596  0.00  0.00    -0.429 N 
HETATM   54  H   UNK N   1      19.432  21.060   0.513  0.00  0.00     0.149 HD
HETATM   55  H   UNK N   1      20.944  20.550  -0.243  0.00  0.00     0.149 HD
ENDBRANCH  52  53
ENDBRANCH  51  52
ENDBRANCH  48  51
ENDBRANCH  41  45
BRANCH  42  56
HETATM   56  N   UNK N   1      20.217  17.029   8.389  0.00  0.00    -0.382 N 
HETATM   57  H   UNK N   1      19.294  17.340   8.243  0.00  0.00     0.157 HD
HETATM   58  H   UNK N   1      20.728  17.351   9.166  0.00  0.00     0.157 HD
ENDBRANCH  42  56
ENDBRANCH  38  39
ENDBRANCH   7  38
TORSDOF 16
ENDMDL
MODEL 5
REMARK VINA RESULT:      -7.1      4.555     12.188
REMARK  16 active torsions:
REMARK  status: ('A' for Active; 'I' for Inactive)
REMARK    1  A    between atoms: C_2  and  C_4 
REMARK    2  A    between atoms: C_2  and  O_7 
REMARK    3  A    between atoms: C_4  and  O_6 
REMARK    4  A    between atoms: O_7  and  N_8 
REMARK    5  A    between atoms: C_10  and  C_11 
REMARK    6  A    between atoms: C_10  and  C_19 
REMARK    7  A    between atoms: C_14  and  N_18 
REMARK       I    between atoms: C_19  and  N_21 
REMARK    8  A    between atoms: C_22  and  N_21 
REMARK    9  A    between atoms: C_27  and  C_46 
REMARK   10  A    between atoms: C_28  and  C_31 
REMARK   11  A    between atoms: C_31  and  N_32 
REMARK   12  A    between atoms: C_34  and  N_39 
REMARK   13  A    between atoms: C_35  and  N_38 
REMARK       I    between atoms: N_39  and  C_40 
REMARK       I    between atoms: C_40  and  N_42 
REMARK   14  A    between atoms: N_42  and  C_43 
REMARK   15  A    between atoms: C_43  and  C_44 
REMARK   16  A    between atoms: C_44  and  N_45 
ROOT
HETATM    1  C   UNK N   1      35.009  13.471  11.317  0.00  0.00     0.200 C 
HETATM    2  C   UNK N   1      34.189  14.723  10.814  0.00  0.00     0.164 C 
HETATM    3  N   UNK N   1      33.709  13.886   9.735  0.00  0.00    -0.195 NA
HETATM    4  C   UNK N   1      34.220  12.786  10.266  0.00  0.00     0.230 C 
HETATM    5  O   UNK N   1      34.572  11.790   9.656  0.00  0.00    -0.277 OA
HETATM    6  C   UNK N   1      33.841  14.232   8.339  0.00  0.00     0.101 C 
HETATM    7  C   UNK N   1      34.213  15.518   8.072  0.00  0.00    -0.022 C 
HETATM    8  C   UNK N   1      34.184  16.537   9.151  0.00  0.00     0.113 C 
HETATM    9  S   UNK N   1      35.363  16.022  10.374  0.00  0.00    -0.141 SA
ENDROOT
BRANCH   1  10
HETATM   10  N   UNK N   1      34.831  13.246  12.720  0.00  0.00    -0.340 N 
HETATM   11  C   UNK N   1      35.717  13.520  13.702  0.00  0.00     0.274 C 
HETATM   12  O   UNK N   1      36.646  14.294  13.529  0.00  0.00    -0.266 OA
HETATM   13  H   UNK N   1      33.974  12.850  12.997  0.00  0.00     0.163 HD
BRANCH  11  14
HETATM   14  C   UNK N   1      35.803  12.509  14.742  0.00  0.00     0.166 C 
HETATM   15  N   UNK N   1      36.073  11.273  14.477  0.00  0.00    -0.256 N 
ATOM     16  HN  UNK N   1      36.260  10.637  15.251  1.00  0.00     0.194 HD
BRANCH  15  17
HETATM   17  O   UNK N   1      36.119  10.799  13.234  0.00  0.00    -0.258 OA
BRANCH  17  18
HETATM   18  C   UNK N   1      35.518   9.630  12.763  0.00  0.00     0.166 C 
HETATM   19  C   UNK N   1      35.659   8.487  13.758  0.00  0.00     0.060 C 
HETATM   20  C   UNK N   1      36.072   9.207  11.416  0.00  0.00     0.060 C 
BRANCH  18  21
HETATM   21  C   UNK N   1      34.062   9.919  12.522  0.00  0.00     0.178 C 
HETATM   22  O   UNK N   1      33.391  10.475  13.380  0.00  0.00    -0.648 OA
BRANCH  21  23
HETATM   23  O   UNK N   1      33.475   9.532  11.372  0.00  0.00    -0.774 OA
HETATM   24  H   UNK N   1      32.702   9.520  10.843  0.00  0.00     0.167 HD
ENDBRANCH  21  23
ENDBRANCH  18  21
ENDBRANCH  17  18
ENDBRANCH  15  17
BRANCH  14  25
HETATM   25  C   UNK N   1      35.667  13.007  16.136  0.00  0.00     0.148 A 
HETATM   26  N   UNK N   1      36.040  14.315  16.458  0.00  0.00    -0.320 N 
HETATM   27  C   UNK N   1      35.824  14.592  17.761  0.00  0.00     0.160 A 
ATOM     28  HN  UNK N   1      36.429  14.978  15.789  1.00  0.00     0.169 HD
HETATM   29  S   UNK N   1      35.198  13.264  18.455  0.00  0.00     0.024 SA
HETATM   30  N   UNK N   1      35.159  12.246  17.161  0.00  0.00    -0.307 N 
ATOM     31  HN  UNK N   1      34.835  11.279  17.128  1.00  0.00     0.176 HD
BRANCH  27  32
HETATM   32  N   UNK N   1      36.088  15.836  18.373  0.00  0.00    -0.379 N 
HETATM   33  H   UNK N   1      35.699  16.660  18.000  0.00  0.00     0.158 HD
HETATM   34  H   UNK N   1      36.660  15.879  19.172  0.00  0.00     0.158 HD
ENDBRANCH  27  32
ENDBRANCH  14  25
ENDBRANCH  11  14
ENDBRANCH   1  10
BRANCH   6  35
HETATM   35  C   UNK N   1      33.763  13.184   7.250  0.00  0.00     0.222 C 
HETATM   36  O   UNK N   1      32.685  12.819   6.808  0.00  0.00    -0.643 OA
HETATM   37  O   UNK N   1      34.869  12.534   6.842  0.00  0.00    -0.643 OA
ENDBRANCH   6  35
BRANCH   7  38
HETATM   38  C   UNK N   1      34.962  15.839   6.835  0.00  0.00     0.185 C 
BRANCH  38  39
HETATM   39  N   UNK N   1      34.200  16.160   5.651  0.00  0.00    -0.294 N 
HETATM   40  C   UNK N   1      33.290  17.126   5.718  0.00  0.00     0.144 A 
HETATM   41  C   UNK N   1      32.585  17.130   4.543  0.00  0.00     0.099 A 
HETATM   42  C   UNK N   1      33.125  16.121   3.771  0.00  0.00     0.144 A 
HETATM   43  N   UNK N   1      34.106  15.533   4.482  0.00  0.00    -0.277 N 
HETATM   44  C   UNK N   1      34.851  14.352   4.057  0.00  0.00     0.179 C 
BRANCH  41  45
HETATM   45  N   UNK N   1      31.449  17.947   4.291  0.00  0.00    -0.304 N 
HETATM   46  C   UNK N   1      30.192  17.532   4.630  0.00  0.00     0.320 C 
HETATM   47  O   UNK N   1      30.025  16.499   5.270  0.00  0.00    -0.247 OA
HETATM   48  N   UNK N   1      29.117  18.262   4.265  0.00  0.00    -0.341 N 
HETATM   49  H   UNK N   1      29.236  19.090   3.747  0.00  0.00     0.164 HD
HETATM   50  H   UNK N   1      31.571  18.826   3.867  0.00  0.00     0.171 HD
BRANCH  48  51
HETATM   51  C   UNK N   1      27.790  17.827   4.636  0.00  0.00     0.143 C 
BRANCH  51  52
HETATM   52  C   UNK N   1      27.367  18.438   5.951  0.00  0.00     0.130 C 
BRANCH  52  53
HETATM   53  N   UNK N   1      27.363  17.404   6.969  0.00  0.00    -0.429 N 
HETATM   54  H   UNK N   1      28.105  16.705   6.994  0.00  0.00     0.149 HD
HETATM   55  H   UNK N   1      26.615  17.375   7.663  0.00  0.00     0.149 HD
ENDBRANCH  52  53
ENDBRANCH  51  52
ENDBRANCH  48  51
ENDBRANCH  41  45
BRANCH  42  56
HETATM   56  N   UNK N   1      32.696  15.706   2.494  0.00  0.00    -0.382 N 
HETATM   57  H   UNK N   1      31.770  15.402   2.359  0.00  0.00     0.157 HD
HETATM   58  H   UNK N   1      33.324  15.722   1.735  0.00  0.00     0.157 HD
ENDBRANCH  42  56
ENDBRANCH  38  39
ENDBRANCH   7  38
TORSDOF 16
ENDMDL
MODEL 6
REMARK VINA RESULT:      -7.1      3.523     12.160
REMARK  16 active torsions:
REMARK  status: ('A' for Active; 'I' for Inactive)
REMARK    1  A    between atoms: C_2  and  C_4 
REMARK    2  A    between atoms: C_2  and  O_7 
REMARK    3  A    between atoms: C_4  and  O_6 
REMARK    4  A    between atoms: O_7  and  N_8 
REMARK    5  A    between atoms: C_10  and  C_11 
REMARK    6  A    between atoms: C_10  and  C_19 
REMARK    7  A    between atoms: C_14  and  N_18 
REMARK       I    between atoms: C_19  and  N_21 
REMARK    8  A    between atoms: C_22  and  N_21 
REMARK    9  A    between atoms: C_27  and  C_46 
REMARK   10  A    between atoms: C_28  and  C_31 
REMARK   11  A    between atoms: C_31  and  N_32 
REMARK   12  A    between atoms: C_34  and  N_39 
REMARK   13  A    between atoms: C_35  and  N_38 
REMARK       I    between atoms: N_39  and  C_40 
REMARK       I    between atoms: C_40  and  N_42 
REMARK   14  A    between atoms: N_42  and  C_43 
REMARK   15  A    between atoms: C_43  and  C_44 
REMARK   16  A    between atoms: C_44  and  N_45 
ROOT
HETATM    1  C   UNK N   1      34.139  15.015  10.512  0.00  0.00     0.200 C 
HETATM    2  C   UNK N   1      33.095  14.430   9.481  0.00  0.00     0.164 C 
HETATM    3  N   UNK N   1      33.981  14.888   8.432  0.00  0.00    -0.195 NA
HETATM    4  C   UNK N   1      34.951  15.187   9.283  0.00  0.00     0.230 C 
HETATM    5  O   UNK N   1      35.814  16.033   9.119  0.00  0.00    -0.277 OA
HETATM    6  C   UNK N   1      33.563  15.762   7.362  0.00  0.00     0.101 C 
HETATM    7  C   UNK N   1      32.217  15.944   7.226  0.00  0.00    -0.022 C 
HETATM    8  C   UNK N   1      31.273  15.058   7.952  0.00  0.00     0.113 C 
HETATM    9  S   UNK N   1      31.544  15.330   9.685  0.00  0.00    -0.141 SA
ENDROOT
BRANCH   1  10
HETATM   10  N   UNK N   1      34.451  14.076  11.546  0.00  0.00    -0.340 N 
HETATM   11  C   UNK N   1      35.202  12.960  11.426  0.00  0.00     0.274 C 
HETATM   12  O   UNK N   1      35.969  12.802  10.488  0.00  0.00    -0.266 OA
HETATM   13  H   UNK N   1      34.079  14.263  12.438  0.00  0.00     0.163 HD
BRANCH  11  14
HETATM   14  C   UNK N   1      34.692  11.805  12.145  0.00  0.00     0.166 C 
HETATM   15  N   UNK N   1      34.407  11.852  13.404  0.00  0.00    -0.256 N 
ATOM     16  HN  UNK N   1      33.923  11.060  13.826  1.00  0.00     0.194 HD
BRANCH  15  17
HETATM   17  O   UNK N   1      34.718  12.893  14.173  0.00  0.00    -0.258 OA
BRANCH  17  18
HETATM   18  C   UNK N   1      35.739  12.956  15.122  0.00  0.00     0.166 C 
HETATM   19  C   UNK N   1      36.587  11.692  15.118  0.00  0.00     0.060 C 
HETATM   20  C   UNK N   1      35.204  13.208  16.519  0.00  0.00     0.060 C 
BRANCH  18  21
HETATM   21  C   UNK N   1      36.600  14.148  14.804  0.00  0.00     0.178 C 
HETATM   22  O   UNK N   1      36.400  14.802  13.791  0.00  0.00    -0.648 OA
BRANCH  21  23
HETATM   23  O   UNK N   1      37.623  14.480  15.616  0.00  0.00    -0.774 OA
HETATM   24  H   UNK N   1      38.028  14.392  16.456  0.00  0.00     0.167 HD
ENDBRANCH  21  23
ENDBRANCH  18  21
ENDBRANCH  17  18
ENDBRANCH  15  17
BRANCH  14  25
HETATM   25  C   UNK N   1      34.420  10.600  11.317  0.00  0.00     0.148 A 
HETATM   26  N   UNK N   1      34.435   9.328  11.895  0.00  0.00    -0.320 N 
HETATM   27  C   UNK N   1      34.144   8.365  10.995  0.00  0.00     0.160 A 
ATOM     28  HN  UNK N   1      34.642   9.150  12.877  1.00  0.00     0.169 HD
HETATM   29  S   UNK N   1      33.883   9.085   9.562  0.00  0.00     0.024 SA
HETATM   30  N   UNK N   1      34.121  10.661   9.977  0.00  0.00    -0.307 N 
ATOM     31  HN  UNK N   1      34.062  11.486   9.381  1.00  0.00     0.176 HD
BRANCH  27  32
HETATM   32  N   UNK N   1      34.068   6.987  11.289  0.00  0.00    -0.379 N 
HETATM   33  H   UNK N   1      33.728   6.358  10.612  0.00  0.00     0.158 HD
HETATM   34  H   UNK N   1      34.355   6.655  12.169  0.00  0.00     0.158 HD
ENDBRANCH  27  32
ENDBRANCH  14  25
ENDBRANCH  11  14
ENDBRANCH   1  10
BRANCH   6  35
HETATM   35  C   UNK N   1      34.560  16.579   6.568  0.00  0.00     0.222 C 
HETATM   36  O   UNK N   1      35.355  16.038   5.816  0.00  0.00    -0.643 OA
HETATM   37  O   UNK N   1      34.683  17.904   6.775  0.00  0.00    -0.643 OA
ENDBRANCH   6  35
BRANCH   7  38
HETATM   38  C   UNK N   1      31.685  17.202   6.652  0.00  0.00     0.185 C 
BRANCH  38  39
HETATM   39  N   UNK N   1      30.297  17.519   6.894  0.00  0.00    -0.294 N 
HETATM   40  C   UNK N   1      29.415  17.313   5.921  0.00  0.00     0.144 A 
HETATM   41  C   UNK N   1      28.214  17.842   6.316  0.00  0.00     0.099 A 
HETATM   42  C   UNK N   1      28.425  18.370   7.575  0.00  0.00     0.144 A 
HETATM   43  N   UNK N   1      29.717  18.169   7.898  0.00  0.00    -0.277 N 
HETATM   44  C   UNK N   1      30.362  18.676   9.105  0.00  0.00     0.179 C 
BRANCH  41  45
HETATM   45  N   UNK N   1      27.061  17.919   5.489  0.00  0.00    -0.304 N 
HETATM   46  C   UNK N   1      26.858  18.984   4.656  0.00  0.00     0.320 C 
HETATM   47  O   UNK N   1      27.725  19.839   4.512  0.00  0.00    -0.247 OA
HETATM   48  N   UNK N   1      25.697  19.102   3.979  0.00  0.00    -0.341 N 
HETATM   49  H   UNK N   1      24.990  18.426   4.090  0.00  0.00     0.164 HD
HETATM   50  H   UNK N   1      26.398  17.193   5.515  0.00  0.00     0.171 HD
BRANCH  48  51
HETATM   51  C   UNK N   1      25.491  20.223   3.090  0.00  0.00     0.143 C 
BRANCH  51  52
HETATM   52  C   UNK N   1      24.022  20.547   2.958  0.00  0.00     0.130 C 
BRANCH  52  53
HETATM   53  N   UNK N   1      23.249  19.489   3.584  0.00  0.00    -0.429 N 
HETATM   54  H   UNK N   1      23.417  19.238   4.558  0.00  0.00     0.149 HD
HETATM   55  H   UNK N   1      22.537  18.993   3.048  0.00  0.00     0.149 HD
ENDBRANCH  52  53
ENDBRANCH  51  52
ENDBRANCH  48  51
ENDBRANCH  41  45
BRANCH  42  56
HETATM   56  N   UNK N   1      27.494  19.068   8.370  0.00  0.00    -0.382 N 
HETATM   57  H   UNK N   1      26.772  18.579   8.827  0.00  0.00     0.157 HD
HETATM   58  H   UNK N   1      27.567  20.045   8.469  0.00  0.00     0.157 HD
ENDBRANCH  42  56
ENDBRANCH  38  39
ENDBRANCH   7  38
TORSDOF 16
ENDMDL
MODEL 7
REMARK VINA RESULT:      -7.1      2.548      4.100
REMARK  16 active torsions:
REMARK  status: ('A' for Active; 'I' for Inactive)
REMARK    1  A    between atoms: C_2  and  C_4 
REMARK    2  A    between atoms: C_2  and  O_7 
REMARK    3  A    between atoms: C_4  and  O_6 
REMARK    4  A    between atoms: O_7  and  N_8 
REMARK    5  A    between atoms: C_10  and  C_11 
REMARK    6  A    between atoms: C_10  and  C_19 
REMARK    7  A    between atoms: C_14  and  N_18 
REMARK       I    between atoms: C_19  and  N_21 
REMARK    8  A    between atoms: C_22  and  N_21 
REMARK    9  A    between atoms: C_27  and  C_46 
REMARK   10  A    between atoms: C_28  and  C_31 
REMARK   11  A    between atoms: C_31  and  N_32 
REMARK   12  A    between atoms: C_34  and  N_39 
REMARK   13  A    between atoms: C_35  and  N_38 
REMARK       I    between atoms: N_39  and  C_40 
REMARK       I    between atoms: C_40  and  N_42 
REMARK   14  A    between atoms: N_42  and  C_43 
REMARK   15  A    between atoms: C_43  and  C_44 
REMARK   16  A    between atoms: C_44  and  N_45 
ROOT
HETATM    1  C   UNK N   1      29.109  16.095   6.650  0.00  0.00     0.200 C 
HETATM    2  C   UNK N   1      29.964  17.318   7.168  0.00  0.00     0.164 C 
HETATM    3  N   UNK N   1      30.644  17.294   5.891  0.00  0.00    -0.195 NA
HETATM    4  C   UNK N   1      29.797  16.416   5.376  0.00  0.00     0.230 C 
HETATM    5  O   UNK N   1      30.041  15.619   4.485  0.00  0.00    -0.277 OA
HETATM    6  C   UNK N   1      32.078  17.191   5.755  0.00  0.00     0.101 C 
HETATM    7  C   UNK N   1      32.804  17.376   6.896  0.00  0.00    -0.022 C 
HETATM    8  C   UNK N   1      32.153  17.935   8.106  0.00  0.00     0.113 C 
HETATM    9  S   UNK N   1      30.910  16.770   8.604  0.00  0.00    -0.141 SA
ENDROOT
BRANCH   1  10
HETATM   10  N   UNK N   1      27.709  16.291   6.869  0.00  0.00    -0.340 N 
HETATM   11  C   UNK N   1      26.696  15.611   6.291  0.00  0.00     0.274 C 
HETATM   12  O   UNK N   1      26.876  14.528   5.756  0.00  0.00    -0.266 OA
HETATM   13  H   UNK N   1      27.458  16.996   7.509  0.00  0.00     0.163 HD
BRANCH  11  14
HETATM   14  C   UNK N   1      25.557  16.427   5.906  0.00  0.00     0.166 C 
HETATM   15  N   UNK N   1      25.697  17.545   5.273  0.00  0.00    -0.256 N 
ATOM     16  HN  UNK N   1      24.865  18.006   4.904  1.00  0.00     0.194 HD
BRANCH  15  17
HETATM   17  O   UNK N   1      26.883  18.119   5.082  0.00  0.00    -0.258 OA
BRANCH  17  18
HETATM   18  C   UNK N   1      27.141  19.485   4.963  0.00  0.00     0.166 C 
HETATM   19  C   UNK N   1      26.057  20.193   4.162  0.00  0.00     0.060 C 
HETATM   20  C   UNK N   1      28.497  19.757   4.342  0.00  0.00     0.060 C 
BRANCH  18  21
HETATM   21  C   UNK N   1      27.213  20.068   6.348  0.00  0.00     0.178 C 
HETATM   22  O   UNK N   1      27.342  21.274   6.505  0.00  0.00    -0.648 OA
BRANCH  21  23
HETATM   23  O   UNK N   1      27.174  19.261   7.427  0.00  0.00    -0.774 OA
HETATM   24  H   UNK N   1      27.135  18.386   7.760  0.00  0.00     0.167 HD
ENDBRANCH  21  23
ENDBRANCH  18  21
ENDBRANCH  17  18
ENDBRANCH  15  17
BRANCH  14  25
HETATM   25  C   UNK N   1      24.220  15.841   6.191  0.00  0.00     0.148 A 
HETATM   26  N   UNK N   1      23.075  16.639   6.140  0.00  0.00    -0.320 N 
HETATM   27  C   UNK N   1      21.957  15.930   6.404  0.00  0.00     0.160 A 
ATOM     28  HN  UNK N   1      23.082  17.637   5.929  1.00  0.00     0.169 HD
HETATM   29  S   UNK N   1      22.398  14.391   6.681  0.00  0.00     0.024 SA
HETATM   30  N   UNK N   1      24.029  14.514   6.490  0.00  0.00    -0.307 N 
ATOM     31  HN  UNK N   1      24.731  13.779   6.574  1.00  0.00     0.176 HD
BRANCH  27  32
HETATM   32  N   UNK N   1      20.650  16.462   6.409  0.00  0.00    -0.379 N 
HETATM   33  H   UNK N   1      20.337  16.992   7.176  0.00  0.00     0.158 HD
HETATM   34  H   UNK N   1      20.051  16.301   5.645  0.00  0.00     0.158 HD
ENDBRANCH  27  32
ENDBRANCH  14  25
ENDBRANCH  11  14
ENDBRANCH   1  10
BRANCH   6  35
HETATM   35  C   UNK N   1      32.721  16.713   4.470  0.00  0.00     0.222 C 
HETATM   36  O   UNK N   1      33.314  15.647   4.426  0.00  0.00    -0.643 OA
HETATM   37  O   UNK N   1      32.771  17.512   3.388  0.00  0.00    -0.643 OA
ENDBRANCH   6  35
BRANCH   7  38
HETATM   38  C   UNK N   1      34.124  16.721   7.057  0.00  0.00     0.185 C 
BRANCH  38  39
HETATM   39  N   UNK N   1      34.263  15.736   8.103  0.00  0.00    -0.294 N 
HETATM   40  C   UNK N   1      35.186  15.925   9.042  0.00  0.00     0.144 A 
HETATM   41  C   UNK N   1      35.248  14.793   9.812  0.00  0.00     0.099 A 
HETATM   42  C   UNK N   1      34.312  13.923   9.288  0.00  0.00     0.144 A 
HETATM   43  N   UNK N   1      33.733  14.523   8.231  0.00  0.00    -0.277 N 
HETATM   44  C   UNK N   1      32.765  13.890   7.340  0.00  0.00     0.179 C 
BRANCH  41  45
HETATM   45  N   UNK N   1      36.203  14.576  10.842  0.00  0.00    -0.304 N 
HETATM   46  C   UNK N   1      35.812  14.333  12.129  0.00  0.00     0.320 C 
HETATM   47  O   UNK N   1      34.627  14.176  12.403  0.00  0.00    -0.247 OA
HETATM   48  N   UNK N   1      36.732  14.259  13.114  0.00  0.00    -0.341 N 
HETATM   49  H   UNK N   1      37.686  14.389  12.908  0.00  0.00     0.164 HD
HETATM   50  H   UNK N   1      37.163  14.599  10.624  0.00  0.00     0.171 HD
BRANCH  48  51
HETATM   51  C   UNK N   1      36.316  13.991  14.471  0.00  0.00     0.143 C 
BRANCH  51  52
HETATM   52  C   UNK N   1      36.870  12.672  14.956  0.00  0.00     0.130 C 
BRANCH  52  53
HETATM   53  N   UNK N   1      35.922  11.619  14.639  0.00  0.00    -0.429 N 
HETATM   54  H   UNK N   1      35.931  10.745  15.165  0.00  0.00     0.149 HD
HETATM   55  H   UNK N   1      35.245  11.753  13.888  0.00  0.00     0.149 HD
ENDBRANCH  52  53
ENDBRANCH  51  52
ENDBRANCH  48  51
ENDBRANCH  41  45
BRANCH  42  56
HETATM   56  N   UNK N   1      34.045  12.607   9.714  0.00  0.00    -0.382 N 
HETATM   57  H   UNK N   1      34.683  12.139  10.300  0.00  0.00     0.157 HD
HETATM   58  H   UNK N   1      33.218  12.155   9.426  0.00  0.00     0.157 HD
ENDBRANCH  42  56
ENDBRANCH  38  39
ENDBRANCH   7  38
TORSDOF 16
ENDMDL
MODEL 8
REMARK VINA RESULT:      -7.0      3.713      5.125
REMARK  16 active torsions:
REMARK  status: ('A' for Active; 'I' for Inactive)
REMARK    1  A    between atoms: C_2  and  C_4 
REMARK    2  A    between atoms: C_2  and  O_7 
REMARK    3  A    between atoms: C_4  and  O_6 
REMARK    4  A    between atoms: O_7  and  N_8 
REMARK    5  A    between atoms: C_10  and  C_11 
REMARK    6  A    between atoms: C_10  and  C_19 
REMARK    7  A    between atoms: C_14  and  N_18 
REMARK       I    between atoms: C_19  and  N_21 
REMARK    8  A    between atoms: C_22  and  N_21 
REMARK    9  A    between atoms: C_27  and  C_46 
REMARK   10  A    between atoms: C_28  and  C_31 
REMARK   11  A    between atoms: C_31  and  N_32 
REMARK   12  A    between atoms: C_34  and  N_39 
REMARK   13  A    between atoms: C_35  and  N_38 
REMARK       I    between atoms: N_39  and  C_40 
REMARK       I    between atoms: C_40  and  N_42 
REMARK   14  A    between atoms: N_42  and  C_43 
REMARK   15  A    between atoms: C_43  and  C_44 
REMARK   16  A    between atoms: C_44  and  N_45 
ROOT
HETATM    1  C   UNK N   1      32.031  15.168   5.286  0.00  0.00     0.200 C 
HETATM    2  C   UNK N   1      31.923  14.669   6.781  0.00  0.00     0.164 C 
HETATM    3  N   UNK N   1      32.117  16.047   7.180  0.00  0.00    -0.195 NA
HETATM    4  C   UNK N   1      31.996  16.497   5.941  0.00  0.00     0.230 C 
HETATM    5  O   UNK N   1      32.497  17.516   5.495  0.00  0.00    -0.277 OA
HETATM    6  C   UNK N   1      33.157  16.475   8.085  0.00  0.00     0.101 C 
HETATM    7  C   UNK N   1      33.807  15.484   8.764  0.00  0.00    -0.022 C 
HETATM    8  C   UNK N   1      33.256  14.106   8.770  0.00  0.00     0.113 C 
HETATM    9  S   UNK N   1      33.291  13.533   7.091  0.00  0.00    -0.141 SA
ENDROOT
BRANCH   1  10
HETATM   10  N   UNK N   1      30.969  14.653   4.475  0.00  0.00    -0.340 N 
HETATM   11  C   UNK N   1      30.451  15.221   3.365  0.00  0.00     0.274 C 
HETATM   12  O   UNK N   1      31.055  16.083   2.746  0.00  0.00    -0.266 OA
HETATM   13  H   UNK N   1      30.577  13.795   4.755  0.00  0.00     0.163 HD
BRANCH  11  14
HETATM   14  C   UNK N   1      29.005  15.130   3.255  0.00  0.00     0.166 C 
HETATM   15  N   UNK N   1      28.418  14.081   2.782  0.00  0.00    -0.256 N 
ATOM     16  HN  UNK N   1      27.403  14.013   2.857  1.00  0.00     0.194 HD
BRANCH  15  17
HETATM   17  O   UNK N   1      29.083  13.085   2.201  0.00  0.00    -0.258 OA
BRANCH  17  18
HETATM   18  C   UNK N   1      29.190  11.772   2.661  0.00  0.00     0.166 C 
HETATM   19  C   UNK N   1      30.590  11.214   2.444  0.00  0.00     0.060 C 
HETATM   20  C   UNK N   1      28.169  10.856   2.015  0.00  0.00     0.060 C 
BRANCH  18  21
HETATM   21  C   UNK N   1      28.861  11.763   4.129  0.00  0.00     0.178 C 
HETATM   22  O   UNK N   1      29.733  11.975   4.960  0.00  0.00    -0.648 OA
BRANCH  21  23
HETATM   23  O   UNK N   1      27.608  11.485   4.541  0.00  0.00    -0.774 OA
HETATM   24  H   UNK N   1      27.044  11.238   5.247  0.00  0.00     0.167 HD
ENDBRANCH  21  23
ENDBRANCH  18  21
ENDBRANCH  17  18
ENDBRANCH  15  17
BRANCH  14  25
HETATM   25  C   UNK N   1      28.244  16.276   3.820  0.00  0.00     0.148 A 
HETATM   26  N   UNK N   1      28.714  17.582   3.662  0.00  0.00    -0.320 N 
HETATM   27  C   UNK N   1      27.882  18.486   4.220  0.00  0.00     0.160 A 
ATOM     28  HN  UNK N   1      29.581  17.823   3.182  1.00  0.00     0.169 HD
HETATM   29  S   UNK N   1      26.631  17.677   4.869  0.00  0.00     0.024 SA
HETATM   30  N   UNK N   1      27.055  16.130   4.493  0.00  0.00    -0.307 N 
ATOM     31  HN  UNK N   1      26.554  15.269   4.709  1.00  0.00     0.176 HD
BRANCH  27  32
HETATM   32  N   UNK N   1      28.084  19.882   4.205  0.00  0.00    -0.379 N 
HETATM   33  H   UNK N   1      28.573  20.317   4.940  0.00  0.00     0.158 HD
HETATM   34  H   UNK N   1      27.735  20.421   3.459  0.00  0.00     0.158 HD
ENDBRANCH  27  32
ENDBRANCH  14  25
ENDBRANCH  11  14
ENDBRANCH   1  10
BRANCH   6  35
HETATM   35  C   UNK N   1      33.630  17.912   8.130  0.00  0.00     0.222 C 
HETATM   36  O   UNK N   1      32.937  18.783   8.632  0.00  0.00    -0.643 OA
HETATM   37  O   UNK N   1      34.758  18.285   7.498  0.00  0.00    -0.643 OA
ENDBRANCH   6  35
BRANCH   7  38
HETATM   38  C   UNK N   1      35.210  15.674   9.203  0.00  0.00     0.185 C 
BRANCH  38  39
HETATM   39  N   UNK N   1      35.748  14.736  10.160  0.00  0.00    -0.294 N 
HETATM   40  C   UNK N   1      35.729  15.058  11.450  0.00  0.00     0.144 A 
HETATM   41  C   UNK N   1      36.440  14.107  12.136  0.00  0.00     0.099 A 
HETATM   42  C   UNK N   1      36.877  13.201  11.189  0.00  0.00     0.144 A 
HETATM   43  N   UNK N   1      36.449  13.621   9.984  0.00  0.00    -0.277 N 
HETATM   44  C   UNK N   1      36.795  12.992   8.712  0.00  0.00     0.179 C 
BRANCH  41  45
HETATM   45  N   UNK N   1      36.741  14.177  13.523  0.00  0.00    -0.304 N 
HETATM   46  C   UNK N   1      35.883  13.670  14.459  0.00  0.00     0.320 C 
HETATM   47  O   UNK N   1      34.892  13.034  14.119  0.00  0.00    -0.247 OA
HETATM   48  N   UNK N   1      36.124  13.863  15.773  0.00  0.00    -0.341 N 
HETATM   49  H   UNK N   1      36.914  14.376  16.059  0.00  0.00     0.164 HD
HETATM   50  H   UNK N   1      37.582  14.597  13.814  0.00  0.00     0.171 HD
BRANCH  48  51
HETATM   51  C   UNK N   1      35.223  13.315  16.759  0.00  0.00     0.143 C 
BRANCH  51  52
HETATM   52  C   UNK N   1      35.273  14.112  18.041  0.00  0.00     0.130 C 
BRANCH  52  53
HETATM   53  N   UNK N   1      35.254  13.195  19.166  0.00  0.00    -0.429 N 
HETATM   54  H   UNK N   1      34.448  13.165  19.790  0.00  0.00     0.149 HD
HETATM   55  H   UNK N   1      36.050  12.579  19.334  0.00  0.00     0.149 HD
ENDBRANCH  52  53
ENDBRANCH  51  52
ENDBRANCH  48  51
ENDBRANCH  41  45
BRANCH  42  56
HETATM   56  N   UNK N   1      37.693  12.073  11.408  0.00  0.00    -0.382 N 
HETATM   57  H   UNK N   1      37.488  11.222  10.957  0.00  0.00     0.157 HD
HETATM   58  H   UNK N   1      38.469  12.136  12.012  0.00  0.00     0.157 HD
ENDBRANCH  42  56
ENDBRANCH  38  39
ENDBRANCH   7  38
TORSDOF 16
ENDMDL
MODEL 9
REMARK VINA RESULT:      -7.0      2.844     11.978
REMARK  16 active torsions:
REMARK  status: ('A' for Active; 'I' for Inactive)
REMARK    1  A    between atoms: C_2  and  C_4 
REMARK    2  A    between atoms: C_2  and  O_7 
REMARK    3  A    between atoms: C_4  and  O_6 
REMARK    4  A    between atoms: O_7  and  N_8 
REMARK    5  A    between atoms: C_10  and  C_11 
REMARK    6  A    between atoms: C_10  and  C_19 
REMARK    7  A    between atoms: C_14  and  N_18 
REMARK       I    between atoms: C_19  and  N_21 
REMARK    8  A    between atoms: C_22  and  N_21 
REMARK    9  A    between atoms: C_27  and  C_46 
REMARK   10  A    between atoms: C_28  and  C_31 
REMARK   11  A    between atoms: C_31  and  N_32 
REMARK   12  A    between atoms: C_34  and  N_39 
REMARK   13  A    between atoms: C_35  and  N_38 
REMARK       I    between atoms: N_39  and  C_40 
REMARK       I    between atoms: C_40  and  N_42 
REMARK   14  A    between atoms: N_42  and  C_43 
REMARK   15  A    between atoms: C_43  and  C_44 
REMARK   16  A    between atoms: C_44  and  N_45 
ROOT
HETATM    1  C   UNK N   1      31.936  14.763   7.648  0.00  0.00     0.200 C 
HETATM    2  C   UNK N   1      31.663  15.931   6.620  0.00  0.00     0.164 C 
HETATM    3  N   UNK N   1      31.355  16.768   7.761  0.00  0.00    -0.195 NA
HETATM    4  C   UNK N   1      31.784  15.864   8.629  0.00  0.00     0.230 C 
HETATM    5  O   UNK N   1      31.401  15.736   9.780  0.00  0.00    -0.277 OA
HETATM    6  C   UNK N   1      30.112  17.487   7.908  0.00  0.00     0.101 C 
HETATM    7  C   UNK N   1      29.322  17.555   6.796  0.00  0.00    -0.022 C 
HETATM    8  C   UNK N   1      29.871  17.167   5.473  0.00  0.00     0.113 C 
HETATM    9  S   UNK N   1      30.276  15.442   5.574  0.00  0.00    -0.141 SA
ENDROOT
BRANCH   1  10
HETATM   10  N   UNK N   1      33.177  14.100   7.383  0.00  0.00    -0.340 N 
HETATM   11  C   UNK N   1      33.586  12.917   7.891  0.00  0.00     0.274 C 
HETATM   12  O   UNK N   1      32.798  12.125   8.383  0.00  0.00    -0.266 OA
HETATM   13  H   UNK N   1      33.796  14.553   6.766  0.00  0.00     0.163 HD
BRANCH  11  14
HETATM   14  C   UNK N   1      34.988  12.871   8.268  0.00  0.00     0.166 C 
HETATM   15  N   UNK N   1      35.931  12.765   7.391  0.00  0.00    -0.256 N 
ATOM     16  HN  UNK N   1      36.898  12.878   7.696  1.00  0.00     0.194 HD
BRANCH  15  17
HETATM   17  O   UNK N   1      35.693  12.514   6.106  0.00  0.00    -0.258 OA
BRANCH  17  18
HETATM   18  C   UNK N   1      35.967  13.353   5.026  0.00  0.00     0.166 C 
HETATM   19  C   UNK N   1      34.736  13.571   4.158  0.00  0.00     0.060 C 
HETATM   20  C   UNK N   1      37.108  12.832   4.174  0.00  0.00     0.060 C 
BRANCH  18  21
HETATM   21  C   UNK N   1      36.447  14.672   5.569  0.00  0.00     0.178 C 
HETATM   22  O   UNK N   1      37.643  14.920   5.623  0.00  0.00    -0.648 OA
BRANCH  21  23
HETATM   23  O   UNK N   1      35.562  15.575   6.035  0.00  0.00    -0.774 OA
HETATM   24  H   UNK N   1      35.065  16.353   5.874  0.00  0.00     0.167 HD
ENDBRANCH  21  23
ENDBRANCH  18  21
ENDBRANCH  17  18
ENDBRANCH  15  17
BRANCH  14  25
HETATM   25  C   UNK N   1      35.272  13.062   9.715  0.00  0.00     0.148 A 
HETATM   26  N   UNK N   1      36.497  12.662  10.253  0.00  0.00    -0.320 N 
HETATM   27  C   UNK N   1      36.579  12.936  11.573  0.00  0.00     0.160 A 
ATOM     28  HN  UNK N   1      37.239  12.217   9.715  1.00  0.00     0.169 HD
HETATM   29  S   UNK N   1      35.187  13.642  12.022  0.00  0.00     0.024 SA
HETATM   30  N   UNK N   1      34.383  13.648  10.584  0.00  0.00    -0.307 N 
ATOM     31  HN  UNK N   1      33.447  14.002  10.386  1.00  0.00     0.176 HD
BRANCH  27  32
HETATM   32  N   UNK N   1      37.702  12.662  12.382  0.00  0.00    -0.379 N 
HETATM   33  H   UNK N   1      38.165  11.797  12.306  0.00  0.00     0.158 HD
HETATM   34  H   UNK N   1      38.022  13.337  13.023  0.00  0.00     0.158 HD
ENDBRANCH  27  32
ENDBRANCH  14  25
ENDBRANCH  11  14
ENDBRANCH   1  10
BRANCH   6  35
HETATM   35  C   UNK N   1      29.625  17.962   9.260  0.00  0.00     0.222 C 
HETATM   36  O   UNK N   1      30.095  18.964   9.778  0.00  0.00    -0.643 OA
HETATM   37  O   UNK N   1      28.764  17.220   9.981  0.00  0.00    -0.643 OA
ENDBRANCH   6  35
BRANCH   7  38
HETATM   38  C   UNK N   1      27.852  17.679   6.929  0.00  0.00     0.185 C 
BRANCH  38  39
HETATM   39  N   UNK N   1      27.062  17.653   5.721  0.00  0.00    -0.294 N 
HETATM   40  C   UNK N   1      26.695  18.806   5.171  0.00  0.00     0.144 A 
HETATM   41  C   UNK N   1      25.822  18.533   4.150  0.00  0.00     0.099 A 
HETATM   42  C   UNK N   1      25.691  17.158   4.118  0.00  0.00     0.144 A 
HETATM   43  N   UNK N   1      26.453  16.645   5.102  0.00  0.00    -0.277 N 
HETATM   44  C   UNK N   1      26.505  15.232   5.466  0.00  0.00     0.179 C 
BRANCH  41  45
HETATM   45  N   UNK N   1      25.123  19.522   3.406  0.00  0.00    -0.304 N 
HETATM   46  C   UNK N   1      23.760  19.614   3.459  0.00  0.00     0.320 C 
HETATM   47  O   UNK N   1      23.117  18.925   4.243  0.00  0.00    -0.247 OA
HETATM   48  N   UNK N   1      23.108  20.472   2.646  0.00  0.00    -0.341 N 
HETATM   49  H   UNK N   1      23.612  21.026   2.008  0.00  0.00     0.164 HD
HETATM   50  H   UNK N   1      25.629  20.152   2.845  0.00  0.00     0.171 HD
BRANCH  48  51
HETATM   51  C   UNK N   1      21.669  20.575   2.713  0.00  0.00     0.143 C 
BRANCH  51  52
HETATM   52  C   UNK N   1      21.029  20.056   1.447  0.00  0.00     0.130 C 
BRANCH  52  53
HETATM   53  N   UNK N   1      20.344  21.150   0.784  0.00  0.00    -0.429 N 
HETATM   54  H   UNK N   1      19.552  21.608   1.235  0.00  0.00     0.149 HD
HETATM   55  H   UNK N   1      20.654  21.461  -0.137  0.00  0.00     0.149 HD
ENDBRANCH  52  53
ENDBRANCH  51  52
ENDBRANCH  48  51
ENDBRANCH  41  45
BRANCH  42  56
HETATM   56  N   UNK N   1      24.857  16.404   3.268  0.00  0.00    -0.382 N 
HETATM   57  H   UNK N   1      23.976  16.755   3.005  0.00  0.00     0.157 HD
HETATM   58  H   UNK N   1      25.157  15.526   2.937  0.00  0.00     0.157 HD
ENDBRANCH  42  56
ENDBRANCH  38  39
ENDBRANCH   7  38
TORSDOF 16
ENDMDL
