MODEL 1
REMARK VINA RESULT:      -3.9      0.000      0.000
REMARK  0 active torsions:
REMARK  status: ('A' for Active; 'I' for Inactive)
ROOT
HETATM    1  C   UNK N   1      33.014  17.188   3.765  0.00  0.00     0.071 C 
HETATM    2  C   UNK N   1      30.007  17.055   7.746  0.00  0.00     0.071 C 
HETATM    3  C   UNK N   1      34.762  18.453   8.251  0.00  0.00     0.071 C 
HETATM    4  C   UNK N   1      32.788  17.385   5.250  0.00  0.00     0.262 A 
HETATM    5  C   UNK N   1      31.366  17.322   7.134  0.00  0.00     0.262 A 
HETATM    6  C   UNK N   1      33.619  17.985   7.375  0.00  0.00     0.262 A 
HETATM    7  O   UNK N   1      31.510  17.121   5.755  0.00  0.00    -0.332 OA
HETATM    8  O   UNK N   1      33.881  17.819   6.011  0.00  0.00    -0.332 OA
HETATM    9  O   UNK N   1      32.385  17.753   7.993  0.00  0.00    -0.332 OA
ENDROOT
TORSDOF 0
ENDMDL
MODEL 2
REMARK VINA RESULT:      -3.9      0.118      2.853
REMARK  0 active torsions:
REMARK  status: ('A' for Active; 'I' for Inactive)
ROOT
HETATM    1  C   UNK N   1      32.865  17.224   3.752  0.00  0.00     0.071 C 
HETATM    2  C   UNK N   1      34.670  18.410   8.251  0.00  0.00     0.071 C 
HETATM    3  C   UNK N   1      29.895  17.084   7.744  0.00  0.00     0.071 C 
HETATM    4  C   UNK N   1      32.665  17.409   5.242  0.00  0.00     0.262 A 
HETATM    5  C   UNK N   1      33.519  17.970   7.371  0.00  0.00     0.262 A 
HETATM    6  C   UNK N   1      31.256  17.342   7.133  0.00  0.00     0.262 A 
HETATM    7  O   UNK N   1      33.769  17.817   6.001  0.00  0.00    -0.332 OA
HETATM    8  O   UNK N   1      31.386  17.156   5.752  0.00  0.00    -0.332 OA
HETATM    9  O   UNK N   1      32.284  17.746   7.992  0.00  0.00    -0.332 OA
ENDROOT
TORSDOF 0
ENDMDL
MODEL 3
REMARK VINA RESULT:      -3.9      0.125      2.857
REMARK  0 active torsions:
REMARK  status: ('A' for Active; 'I' for Inactive)
ROOT
HETATM    1  C   UNK N   1      29.876  17.164   7.731  0.00  0.00     0.071 C 
HETATM    2  C   UNK N   1      32.895  17.176   3.757  0.00  0.00     0.071 C 
HETATM    3  C   UNK N   1      34.666  18.414   8.245  0.00  0.00     0.071 C 
HETATM    4  C   UNK N   1      31.244  17.384   7.120  0.00  0.00     0.262 A 
HETATM    5  C   UNK N   1      32.673  17.390   5.239  0.00  0.00     0.262 A 
HETATM    6  C   UNK N   1      33.515  17.977   7.366  0.00  0.00     0.262 A 
HETATM    7  O   UNK N   1      31.385  17.170   5.743  0.00  0.00    -0.332 OA
HETATM    8  O   UNK N   1      32.272  17.788   7.981  0.00  0.00    -0.332 OA
HETATM    9  O   UNK N   1      33.776  17.794   6.003  0.00  0.00    -0.332 OA
ENDROOT
TORSDOF 0
ENDMDL
MODEL 4
REMARK VINA RESULT:      -3.9      0.142      3.490
REMARK  0 active torsions:
REMARK  status: ('A' for Active; 'I' for Inactive)
ROOT
HETATM    1  C   UNK N   1      29.850  17.146   7.672  0.00  0.00     0.071 C 
HETATM    2  C   UNK N   1      34.649  18.397   8.236  0.00  0.00     0.071 C 
HETATM    3  C   UNK N   1      32.894  17.191   3.733  0.00  0.00     0.071 C 
HETATM    4  C   UNK N   1      31.228  17.374   7.085  0.00  0.00     0.262 A 
HETATM    5  C   UNK N   1      33.499  17.967   7.351  0.00  0.00     0.262 A 
HETATM    6  C   UNK N   1      32.669  17.395   5.216  0.00  0.00     0.262 A 
HETATM    7  O   UNK N   1      32.250  17.772   7.955  0.00  0.00    -0.332 OA
HETATM    8  O   UNK N   1      31.378  17.171   5.707  0.00  0.00    -0.332 OA
HETATM    9  O   UNK N   1      33.767  17.793   5.987  0.00  0.00    -0.332 OA
ENDROOT
TORSDOF 0
ENDMDL
MODEL 5
REMARK VINA RESULT:      -3.8      7.955      9.463
REMARK  0 active torsions:
REMARK  status: ('A' for Active; 'I' for Inactive)
ROOT
HETATM    1  C   UNK N   1      33.924  11.091  14.717  0.00  0.00     0.071 C 
HETATM    2  C   UNK N   1      37.186  14.743  15.687  0.00  0.00     0.071 C 
HETATM    3  C   UNK N   1      35.179  14.326  11.147  0.00  0.00     0.071 C 
HETATM    4  C   UNK N   1      34.719  12.299  14.266  0.00  0.00     0.262 A 
HETATM    5  C   UNK N   1      36.262  14.028  14.724  0.00  0.00     0.262 A 
HETATM    6  C   UNK N   1      35.312  13.832  12.572  0.00  0.00     0.262 A 
HETATM    7  O   UNK N   1      35.556  12.917  15.203  0.00  0.00    -0.332 OA
HETATM    8  O   UNK N   1      34.556  12.712  12.938  0.00  0.00    -0.332 OA
HETATM    9  O   UNK N   1      36.180  14.530  13.419  0.00  0.00    -0.332 OA
ENDROOT
TORSDOF 0
ENDMDL
MODEL 6
REMARK VINA RESULT:      -3.8      8.012      9.390
REMARK  0 active torsions:
REMARK  status: ('A' for Active; 'I' for Inactive)
ROOT
HETATM    1  C   UNK N   1      34.161  11.393  15.118  0.00  0.00     0.071 C 
HETATM    2  C   UNK N   1      35.349  14.422  11.333  0.00  0.00     0.071 C 
HETATM    3  C   UNK N   1      37.362  15.137  15.833  0.00  0.00     0.071 C 
HETATM    4  C   UNK N   1      34.929  12.580  14.575  0.00  0.00     0.262 A 
HETATM    5  C   UNK N   1      35.492  14.014  12.784  0.00  0.00     0.262 A 
HETATM    6  C   UNK N   1      36.447  14.354  14.916  0.00  0.00     0.262 A 
HETATM    7  O   UNK N   1      34.754  12.907  13.225  0.00  0.00    -0.332 OA
HETATM    8  O   UNK N   1      35.761  13.267  15.468  0.00  0.00    -0.332 OA
HETATM    9  O   UNK N   1      36.353  14.775  13.585  0.00  0.00    -0.332 OA
ENDROOT
TORSDOF 0
ENDMDL
MODEL 7
REMARK VINA RESULT:      -3.8      7.922      9.486
REMARK  0 active torsions:
REMARK  status: ('A' for Active; 'I' for Inactive)
ROOT
HETATM    1  C   UNK N   1      37.248  14.817  15.700  0.00  0.00     0.071 C 
HETATM    2  C   UNK N   1      35.170  14.437  11.178  0.00  0.00     0.071 C 
HETATM    3  C   UNK N   1      33.975  11.188  14.760  0.00  0.00     0.071 C 
HETATM    4  C   UNK N   1      36.311  14.117  14.738  0.00  0.00     0.262 A 
HETATM    5  C   UNK N   1      35.327  13.937  12.598  0.00  0.00     0.262 A 
HETATM    6  C   UNK N   1      34.759  12.396  14.294  0.00  0.00     0.262 A 
HETATM    7  O   UNK N   1      36.210  14.628  13.438  0.00  0.00    -0.332 OA
HETATM    8  O   UNK N   1      35.611  13.005  15.222  0.00  0.00    -0.332 OA
HETATM    9  O   UNK N   1      34.576  12.815  12.972  0.00  0.00    -0.332 OA
ENDROOT
TORSDOF 0
ENDMDL
MODEL 8
REMARK VINA RESULT:      -3.7     10.154     12.507
REMARK  0 active torsions:
REMARK  status: ('A' for Active; 'I' for Inactive)
ROOT
HETATM    1  C   UNK N   1      20.331  12.084  11.719  0.00  0.00     0.071 C 
HETATM    2  C   UNK N   1      24.815  13.104   9.777  0.00  0.00     0.071 C 
HETATM    3  C   UNK N   1      20.678  14.202   7.228  0.00  0.00     0.071 C 
HETATM    4  C   UNK N   1      21.183  12.633  10.593  0.00  0.00     0.262 A 
HETATM    5  C   UNK N   1      23.304  13.116   9.674  0.00  0.00     0.262 A 
HETATM    6  C   UNK N   1      21.345  13.637   8.464  0.00  0.00     0.262 A 
HETATM    7  O   UNK N   1      22.574  12.594  10.749  0.00  0.00    -0.332 OA
HETATM    8  O   UNK N   1      20.513  13.143   9.474  0.00  0.00    -0.332 OA
HETATM    9  O   UNK N   1      22.744  13.651   8.507  0.00  0.00    -0.332 OA
ENDROOT
TORSDOF 0
ENDMDL
MODEL 9
REMARK VINA RESULT:      -3.6      4.339      5.451
REMARK  0 active torsions:
REMARK  status: ('A' for Active; 'I' for Inactive)
ROOT
HETATM    1  C   UNK N   1      27.059  21.557   6.120  0.00  0.00     0.071 C 
HETATM    2  C   UNK N   1      28.344  17.888   9.251  0.00  0.00     0.071 C 
HETATM    3  C   UNK N   1      29.073  17.363   4.352  0.00  0.00     0.071 C 
HETATM    4  C   UNK N   1      27.637  20.178   6.364  0.00  0.00     0.262 A 
HETATM    5  C   UNK N   1      28.245  18.441   7.846  0.00  0.00     0.262 A 
HETATM    6  C   UNK N   1      28.592  18.190   5.524  0.00  0.00     0.262 A 
HETATM    7  O   UNK N   1      27.701  19.723   7.687  0.00  0.00    -0.332 OA
HETATM    8  O   UNK N   1      28.066  19.457   5.243  0.00  0.00    -0.332 OA
HETATM    9  O   UNK N   1      28.706  17.630   6.801  0.00  0.00    -0.332 OA
ENDROOT
TORSDOF 0
ENDMDL
