MODEL 1
REMARK VINA RESULT:      -7.0      0.000      0.000
REMARK  8 active torsions:
REMARK  status: ('A' for Active; 'I' for Inactive)
REMARK    1  A    between atoms: C_13  and  O_2 
REMARK    2  A    between atoms: O_2  and  C_19 
REMARK    3  A    between atoms: C_14  and  O_3 
REMARK    4  A    between atoms: O_3  and  C_22 
REMARK    5  A    between atoms: O_4  and  C_18 
REMARK    6  A    between atoms: O_4  and  C_23 
REMARK    7  A    between atoms: C_12  and  N_10 
REMARK    8  A    between atoms: C_15  and  C_18 
ROOT
HETATM    1  O   UNK N   1      20.646  18.176   7.248  0.00  0.00    -0.353 OA
HETATM    2  C   UNK N   1      19.970  17.172   7.954  0.00  0.00     0.264 C 
HETATM    3  C   UNK N   1      20.943  16.019   8.130  0.00  0.00     0.213 C 
HETATM    4  C   UNK N   1      21.523  16.031   6.732  0.00  0.00     0.197 C 
HETATM    5  C   UNK N   1      21.237  17.449   6.207  0.00  0.00     0.180 C 
ENDROOT
BRANCH   2   6
HETATM    6  N   UNK N   1      19.141  17.699   9.065  0.00  0.00    -0.280 N 
HETATM    7  C   UNK N   1      17.831  17.313   9.326  0.00  0.00     0.331 A 
HETATM    8  O   UNK N   1      17.308  16.402   8.714  0.00  0.00    -0.246 OA
HETATM    9  N   UNK N   1      17.093  17.977  10.270  0.00  0.00    -0.275 N 
HETATM   10  C   UNK N   1      17.620  19.027  10.967  0.00  0.00     0.250 A 
HETATM   11  H   UNK N   1      16.167  17.693  10.449  0.00  0.00     0.173 HD
HETATM   12  O   UNK N   1      16.938  19.625  11.777  0.00  0.00    -0.268 OA
HETATM   13  C   UNK N   1      18.928  19.417  10.737  0.00  0.00     0.092 A 
HETATM   14  C   UNK N   1      19.669  18.742   9.772  0.00  0.00     0.104 A 
ENDBRANCH   2   6
BRANCH   3  15
HETATM   15  O   UNK N   1      20.249  14.842   8.310  0.00  0.00    -0.309 OA
BRANCH  15  16
HETATM   16  C   UNK N   1      20.326  14.085   9.431  0.00  0.00     0.255 C 
HETATM   17  O   UNK N   1      19.338  13.870  10.116  0.00  0.00    -0.266 OA
HETATM   18  C   UNK N   1      21.636  13.487   9.816  0.00  0.00     0.126 C 
ENDBRANCH  15  16
ENDBRANCH   3  15
BRANCH   5  19
HETATM   19  C   UNK N   1      22.416  18.217   5.619  0.00  0.00     0.213 C 
BRANCH  19  20
HETATM   20  O   UNK N   1      22.251  18.404   4.265  0.00  0.00    -0.319 OA
BRANCH  20  21
HETATM   21  C   UNK N   1      21.819  19.575   3.743  0.00  0.00     0.254 C 
HETATM   22  O   UNK N   1      20.725  20.032   4.044  0.00  0.00    -0.266 OA
HETATM   23  C   UNK N   1      22.688  20.319   2.790  0.00  0.00     0.126 C 
ENDBRANCH  20  21
ENDBRANCH  19  20
ENDBRANCH   5  19
BRANCH   4  24
HETATM   24  O   UNK N   1      22.856  15.682   6.703  0.00  0.00    -0.311 OA
BRANCH  24  25
HETATM   25  C   UNK N   1      23.298  14.636   5.961  0.00  0.00     0.255 C 
HETATM   26  O   UNK N   1      24.244  14.765   5.197  0.00  0.00    -0.266 OA
HETATM   27  C   UNK N   1      22.632  13.310   6.084  0.00  0.00     0.126 C 
ENDBRANCH  24  25
ENDBRANCH   4  24
TORSDOF 8
ENDMDL
MODEL 2
REMARK VINA RESULT:      -6.7      3.234      6.031
REMARK  8 active torsions:
REMARK  status: ('A' for Active; 'I' for Inactive)
REMARK    1  A    between atoms: C_13  and  O_2 
REMARK    2  A    between atoms: O_2  and  C_19 
REMARK    3  A    between atoms: C_14  and  O_3 
REMARK    4  A    between atoms: O_3  and  C_22 
REMARK    5  A    between atoms: O_4  and  C_18 
REMARK    6  A    between atoms: O_4  and  C_23 
REMARK    7  A    between atoms: C_12  and  N_10 
REMARK    8  A    between atoms: C_15  and  C_18 
ROOT
HETATM    1  O   UNK N   1      20.884  15.231   9.453  0.00  0.00    -0.353 OA
HETATM    2  C   UNK N   1      21.014  13.897   9.045  0.00  0.00     0.264 C 
HETATM    3  C   UNK N   1      21.042  13.897   7.526  0.00  0.00     0.213 C 
HETATM    4  C   UNK N   1      19.930  14.898   7.305  0.00  0.00     0.197 C 
HETATM    5  C   UNK N   1      19.851  15.687   8.624  0.00  0.00     0.180 C 
ENDROOT
BRANCH   2   6
HETATM    6  N   UNK N   1      21.980  13.128   9.867  0.00  0.00    -0.280 N 
HETATM    7  C   UNK N   1      21.656  12.432  11.025  0.00  0.00     0.331 A 
HETATM    8  O   UNK N   1      20.501  12.306  11.383  0.00  0.00    -0.246 OA
HETATM    9  N   UNK N   1      22.646  11.894  11.804  0.00  0.00    -0.275 N 
HETATM   10  C   UNK N   1      23.962  12.029  11.466  0.00  0.00     0.250 A 
HETATM   11  H   UNK N   1      22.404  11.400  12.622  0.00  0.00     0.173 HD
HETATM   12  O   UNK N   1      24.827  11.572  12.188  0.00  0.00    -0.268 OA
HETATM   13  C   UNK N   1      24.307  12.702  10.307  0.00  0.00     0.092 A 
HETATM   14  C   UNK N   1      23.298  13.252   9.525  0.00  0.00     0.104 A 
ENDBRANCH   2   6
BRANCH   3  15
HETATM   15  O   UNK N   1      20.634  12.670   7.049  0.00  0.00    -0.309 OA
BRANCH  15  16
HETATM   16  C   UNK N   1      21.291  11.979   6.087  0.00  0.00     0.255 C 
HETATM   17  O   UNK N   1      21.052  12.161   4.903  0.00  0.00    -0.266 OA
HETATM   18  C   UNK N   1      22.343  11.000   6.485  0.00  0.00     0.126 C 
ENDBRANCH  15  16
ENDBRANCH   3  15
BRANCH   5  19
HETATM   19  C   UNK N   1      19.881  17.209   8.520  0.00  0.00     0.213 C 
BRANCH  19  20
HETATM   20  O   UNK N   1      18.848  17.767   9.238  0.00  0.00    -0.319 OA
BRANCH  20  21
HETATM   21  C   UNK N   1      19.034  18.805  10.087  0.00  0.00     0.254 C 
HETATM   22  O   UNK N   1      20.042  19.495  10.024  0.00  0.00    -0.266 OA
HETATM   23  C   UNK N   1      17.997  19.111  11.110  0.00  0.00     0.126 C 
ENDBRANCH  20  21
ENDBRANCH  19  20
ENDBRANCH   5  19
BRANCH   4  24
HETATM   24  O   UNK N   1      20.135  15.687   6.193  0.00  0.00    -0.311 OA
BRANCH  24  25
HETATM   25  C   UNK N   1      19.227  15.740   5.186  0.00  0.00     0.255 C 
HETATM   26  O   UNK N   1      18.033  15.844   5.425  0.00  0.00    -0.266 OA
HETATM   27  C   UNK N   1      19.689  15.680   3.772  0.00  0.00     0.126 C 
ENDBRANCH  24  25
ENDBRANCH   4  24
TORSDOF 8
ENDMDL
MODEL 3
REMARK VINA RESULT:      -6.4      3.131      6.378
REMARK  8 active torsions:
REMARK  status: ('A' for Active; 'I' for Inactive)
REMARK    1  A    between atoms: C_13  and  O_2 
REMARK    2  A    between atoms: O_2  and  C_19 
REMARK    3  A    between atoms: C_14  and  O_3 
REMARK    4  A    between atoms: O_3  and  C_22 
REMARK    5  A    between atoms: O_4  and  C_18 
REMARK    6  A    between atoms: O_4  and  C_23 
REMARK    7  A    between atoms: C_12  and  N_10 
REMARK    8  A    between atoms: C_15  and  C_18 
ROOT
HETATM    1  O   UNK N   1      20.943  18.009   5.863  0.00  0.00    -0.353 OA
HETATM    2  C   UNK N   1      21.206  17.607   4.547  0.00  0.00     0.264 C 
HETATM    3  C   UNK N   1      20.598  16.226   4.374  0.00  0.00     0.213 C 
HETATM    4  C   UNK N   1      21.045  15.644   5.697  0.00  0.00     0.197 C 
HETATM    5  C   UNK N   1      21.305  16.869   6.591  0.00  0.00     0.180 C 
ENDROOT
BRANCH   2   6
HETATM    6  N   UNK N   1      21.020  18.696   3.557  0.00  0.00    -0.280 N 
HETATM    7  C   UNK N   1      19.894  18.853   2.757  0.00  0.00     0.331 A 
HETATM    8  O   UNK N   1      18.910  18.156   2.909  0.00  0.00    -0.246 OA
HETATM    9  N   UNK N   1      19.886  19.789   1.756  0.00  0.00    -0.275 N 
HETATM   10  C   UNK N   1      20.975  20.580   1.521  0.00  0.00     0.250 A 
HETATM   11  H   UNK N   1      19.082  19.894   1.197  0.00  0.00     0.173 HD
HETATM   12  O   UNK N   1      20.960  21.382   0.607  0.00  0.00    -0.268 OA
HETATM   13  C   UNK N   1      22.100  20.453   2.318  0.00  0.00     0.092 A 
HETATM   14  C   UNK N   1      22.103  19.496   3.327  0.00  0.00     0.104 A 
ENDBRANCH   2   6
BRANCH   3  15
HETATM   15  O   UNK N   1      21.241  15.554   3.357  0.00  0.00    -0.309 OA
BRANCH  15  16
HETATM   16  C   UNK N   1      20.598  14.945   2.331  0.00  0.00     0.255 C 
HETATM   17  O   UNK N   1      19.460  14.522   2.462  0.00  0.00    -0.266 OA
HETATM   18  C   UNK N   1      21.286  14.818   1.015  0.00  0.00     0.126 C 
ENDBRANCH  15  16
ENDBRANCH   3  15
BRANCH   5  19
HETATM   19  C   UNK N   1      20.638  16.876   7.963  0.00  0.00     0.213 C 
BRANCH  19  20
HETATM   20  O   UNK N   1      20.337  18.162   8.353  0.00  0.00    -0.319 OA
BRANCH  20  21
HETATM   21  C   UNK N   1      19.483  18.429   9.368  0.00  0.00     0.254 C 
HETATM   22  O   UNK N   1      19.715  19.329  10.164  0.00  0.00    -0.266 OA
HETATM   23  C   UNK N   1      18.243  17.619   9.517  0.00  0.00     0.126 C 
ENDBRANCH  20  21
ENDBRANCH  19  20
ENDBRANCH   5  19
BRANCH   4  24
HETATM   24  O   UNK N   1      20.134  14.752   6.223  0.00  0.00    -0.311 OA
BRANCH  24  25
HETATM   25  C   UNK N   1      20.448  13.445   6.404  0.00  0.00     0.255 C 
HETATM   26  O   UNK N   1      20.669  13.002   7.522  0.00  0.00    -0.266 OA
HETATM   27  C   UNK N   1      20.516  12.532   5.229  0.00  0.00     0.126 C 
ENDBRANCH  24  25
ENDBRANCH   4  24
TORSDOF 8
ENDMDL
MODEL 4
REMARK VINA RESULT:      -6.4     16.202     17.150
REMARK  8 active torsions:
REMARK  status: ('A' for Active; 'I' for Inactive)
REMARK    1  A    between atoms: C_13  and  O_2 
REMARK    2  A    between atoms: O_2  and  C_19 
REMARK    3  A    between atoms: C_14  and  O_3 
REMARK    4  A    between atoms: O_3  and  C_22 
REMARK    5  A    between atoms: O_4  and  C_18 
REMARK    6  A    between atoms: O_4  and  C_23 
REMARK    7  A    between atoms: C_12  and  N_10 
REMARK    8  A    between atoms: C_15  and  C_18 
ROOT
HETATM    1  O   UNK N   1      26.388  25.470  -6.055  0.00  0.00    -0.353 OA
HETATM    2  C   UNK N   1      27.102  25.756  -4.884  0.00  0.00     0.264 C 
HETATM    3  C   UNK N   1      28.429  25.023  -4.982  0.00  0.00     0.213 C 
HETATM    4  C   UNK N   1      27.897  23.716  -5.526  0.00  0.00     0.197 C 
HETATM    5  C   UNK N   1      26.541  24.082  -6.156  0.00  0.00     0.180 C 
ENDROOT
BRANCH   2   6
HETATM    6  N   UNK N   1      26.998  27.176  -4.469  0.00  0.00    -0.280 N 
HETATM    7  C   UNK N   1      26.398  27.615  -3.295  0.00  0.00     0.331 A 
HETATM    8  O   UNK N   1      26.017  26.829  -2.449  0.00  0.00    -0.246 OA
HETATM    9  N   UNK N   1      26.202  28.954  -3.081  0.00  0.00    -0.275 N 
HETATM   10  C   UNK N   1      26.584  29.880  -4.009  0.00  0.00     0.250 A 
HETATM   11  H   UNK N   1      25.779  29.254  -2.244  0.00  0.00     0.173 HD
HETATM   12  O   UNK N   1      26.372  31.062  -3.815  0.00  0.00    -0.268 OA
HETATM   13  C   UNK N   1      27.201  29.467  -5.178  0.00  0.00     0.092 A 
HETATM   14  C   UNK N   1      27.390  28.106  -5.391  0.00  0.00     0.104 A 
ENDBRANCH   2   6
BRANCH   3  15
HETATM   15  O   UNK N   1      28.939  24.802  -3.721  0.00  0.00    -0.309 OA
BRANCH  15  16
HETATM   16  C   UNK N   1      30.257  24.627  -3.461  0.00  0.00     0.255 C 
HETATM   17  O   UNK N   1      30.628  23.990  -2.486  0.00  0.00    -0.266 OA
HETATM   18  C   UNK N   1      31.266  25.199  -4.397  0.00  0.00     0.126 C 
ENDBRANCH  15  16
ENDBRANCH   3  15
BRANCH   5  19
HETATM   19  C   UNK N   1      26.298  23.619  -7.589  0.00  0.00     0.213 C 
BRANCH  19  20
HETATM   20  O   UNK N   1      25.053  23.046  -7.712  0.00  0.00    -0.319 OA
BRANCH  20  21
HETATM   21  C   UNK N   1      24.836  21.730  -7.483  0.00  0.00     0.254 C 
HETATM   22  O   UNK N   1      23.999  21.362  -6.670  0.00  0.00    -0.266 OA
HETATM   23  C   UNK N   1      25.625  20.715  -8.233  0.00  0.00     0.126 C 
ENDBRANCH  20  21
ENDBRANCH  19  20
ENDBRANCH   5  19
BRANCH   4  24
HETATM   24  O   UNK N   1      28.771  23.104  -6.399  0.00  0.00    -0.311 OA
BRANCH  24  25
HETATM   25  C   UNK N   1      29.318  21.894  -6.121  0.00  0.00     0.255 C 
HETATM   26  O   UNK N   1      29.809  21.666  -5.025  0.00  0.00    -0.266 OA
HETATM   27  C   UNK N   1      29.311  20.825  -7.157  0.00  0.00     0.126 C 
ENDBRANCH  24  25
ENDBRANCH   4  24
TORSDOF 8
ENDMDL
MODEL 5
REMARK VINA RESULT:      -6.3     14.691     17.330
REMARK  8 active torsions:
REMARK  status: ('A' for Active; 'I' for Inactive)
REMARK    1  A    between atoms: C_13  and  O_2 
REMARK    2  A    between atoms: O_2  and  C_19 
REMARK    3  A    between atoms: C_14  and  O_3 
REMARK    4  A    between atoms: O_3  and  C_22 
REMARK    5  A    between atoms: O_4  and  C_18 
REMARK    6  A    between atoms: O_4  and  C_23 
REMARK    7  A    between atoms: C_12  and  N_10 
REMARK    8  A    between atoms: C_15  and  C_18 
ROOT
HETATM    1  O   UNK N   1      26.964  25.347  -4.876  0.00  0.00    -0.353 OA
HETATM    2  C   UNK N   1      27.193  23.978  -5.061  0.00  0.00     0.264 C 
HETATM    3  C   UNK N   1      27.161  23.719  -6.558  0.00  0.00     0.213 C 
HETATM    4  C   UNK N   1      25.958  24.578  -6.884  0.00  0.00     0.197 C 
HETATM    5  C   UNK N   1      25.864  25.573  -5.713  0.00  0.00     0.180 C 
ENDROOT
BRANCH   2   6
HETATM    6  N   UNK N   1      28.254  23.440  -4.176  0.00  0.00    -0.280 N 
HETATM    7  C   UNK N   1      28.188  23.414  -2.788  0.00  0.00     0.331 A 
HETATM    8  O   UNK N   1      27.173  23.730  -2.199  0.00  0.00    -0.246 OA
HETATM    9  N   UNK N   1      29.287  23.052  -2.053  0.00  0.00    -0.275 N 
HETATM   10  C   UNK N   1      30.462  22.715  -2.662  0.00  0.00     0.250 A 
HETATM   11  H   UNK N   1      29.227  23.034  -1.070  0.00  0.00     0.173 HD
HETATM   12  O   UNK N   1      31.436  22.428  -1.991  0.00  0.00    -0.268 OA
HETATM   13  C   UNK N   1      30.545  22.716  -4.043  0.00  0.00     0.092 A 
HETATM   14  C   UNK N   1      29.428  23.091  -4.782  0.00  0.00     0.104 A 
ENDBRANCH   2   6
BRANCH   3  15
HETATM   15  O   UNK N   1      26.842  22.401  -6.801  0.00  0.00    -0.309 OA
BRANCH  15  16
HETATM   16  C   UNK N   1      27.339  21.683  -7.837  0.00  0.00     0.255 C 
HETATM   17  O   UNK N   1      26.774  20.676  -8.235  0.00  0.00    -0.266 OA
HETATM   18  C   UNK N   1      28.581  22.151  -8.515  0.00  0.00     0.126 C 
ENDBRANCH  15  16
ENDBRANCH   3  15
BRANCH   5  19
HETATM   19  C   UNK N   1      25.757  27.051  -6.072  0.00  0.00     0.213 C 
BRANCH  19  20
HETATM   20  O   UNK N   1      25.049  27.737  -5.111  0.00  0.00    -0.319 OA
BRANCH  20  21
HETATM   21  C   UNK N   1      25.647  28.296  -4.033  0.00  0.00     0.254 C 
HETATM   22  O   UNK N   1      25.469  27.844  -2.910  0.00  0.00    -0.266 OA
HETATM   23  C   UNK N   1      26.534  29.477  -4.216  0.00  0.00     0.126 C 
ENDBRANCH  20  21
ENDBRANCH  19  20
ENDBRANCH   5  19
BRANCH   4  24
HETATM   24  O   UNK N   1      26.050  25.178  -8.122  0.00  0.00    -0.311 OA
BRANCH  24  25
HETATM   25  C   UNK N   1      25.311  24.745  -9.174  0.00  0.00     0.255 C 
HETATM   26  O   UNK N   1      24.759  23.654  -9.145  0.00  0.00    -0.266 OA
HETATM   27  C   UNK N   1      25.161  25.610 -10.377  0.00  0.00     0.126 C 
ENDBRANCH  24  25
ENDBRANCH   4  24
TORSDOF 8
ENDMDL
MODEL 6
REMARK VINA RESULT:      -6.3      3.537      6.639
REMARK  8 active torsions:
REMARK  status: ('A' for Active; 'I' for Inactive)
REMARK    1  A    between atoms: C_13  and  O_2 
REMARK    2  A    between atoms: O_2  and  C_19 
REMARK    3  A    between atoms: C_14  and  O_3 
REMARK    4  A    between atoms: O_3  and  C_22 
REMARK    5  A    between atoms: O_4  and  C_18 
REMARK    6  A    between atoms: O_4  and  C_23 
REMARK    7  A    between atoms: C_12  and  N_10 
REMARK    8  A    between atoms: C_15  and  C_18 
ROOT
HETATM    1  O   UNK N   1      22.198  12.582   7.232  0.00  0.00    -0.353 OA
HETATM    2  C   UNK N   1      22.111  13.602   8.189  0.00  0.00     0.264 C 
HETATM    3  C   UNK N   1      20.763  14.276   8.000  0.00  0.00     0.213 C 
HETATM    4  C   UNK N   1      20.778  14.332   6.488  0.00  0.00     0.197 C 
HETATM    5  C   UNK N   1      21.778  13.239   6.069  0.00  0.00     0.180 C 
ENDROOT
BRANCH   2   6
HETATM    6  N   UNK N   1      22.627  13.198   9.519  0.00  0.00    -0.280 N 
HETATM    7  C   UNK N   1      23.974  13.095   9.847  0.00  0.00     0.331 A 
HETATM    8  O   UNK N   1      24.840  13.458   9.076  0.00  0.00    -0.246 OA
HETATM    9  N   UNK N   1      24.350  12.554  11.048  0.00  0.00    -0.275 N 
HETATM   10  C   UNK N   1      23.420  12.103  11.942  0.00  0.00     0.250 A 
HETATM   11  H   UNK N   1      25.307  12.489  11.271  0.00  0.00     0.173 HD
HETATM   12  O   UNK N   1      23.776  11.596  12.988  0.00  0.00    -0.268 OA
HETATM   13  C   UNK N   1      22.073  12.213  11.644  0.00  0.00     0.092 A 
HETATM   14  C   UNK N   1      21.699  12.757  10.420  0.00  0.00     0.104 A 
ENDBRANCH   2   6
BRANCH   3  15
HETATM   15  O   UNK N   1      20.809  15.563   8.490  0.00  0.00    -0.309 OA
BRANCH  15  16
HETATM   16  C   UNK N   1      19.709  16.285   8.816  0.00  0.00     0.255 C 
HETATM   17  O   UNK N   1      18.699  15.741   9.236  0.00  0.00    -0.266 OA
HETATM   18  C   UNK N   1      19.748  17.769   8.685  0.00  0.00     0.126 C 
ENDBRANCH  15  16
ENDBRANCH   3  15
BRANCH   5  19
HETATM   19  C   UNK N   1      21.303  12.233   5.026  0.00  0.00     0.213 C 
BRANCH  19  20
HETATM   20  O   UNK N   1      20.714  11.145   5.631  0.00  0.00    -0.319 OA
BRANCH  20  21
HETATM   21  C   UNK N   1      19.649  10.507   5.092  0.00  0.00     0.254 C 
HETATM   22  O   UNK N   1      18.638  11.123   4.781  0.00  0.00    -0.266 OA
HETATM   23  C   UNK N   1      19.708   9.036   4.874  0.00  0.00     0.126 C 
ENDBRANCH  20  21
ENDBRANCH  19  20
ENDBRANCH   5  19
BRANCH   4  24
HETATM   24  O   UNK N   1      19.523  14.182   5.935  0.00  0.00    -0.311 OA
BRANCH  24  25
HETATM   25  C   UNK N   1      18.957  15.164   5.189  0.00  0.00     0.255 C 
HETATM   26  O   UNK N   1      18.047  15.846   5.638  0.00  0.00    -0.266 OA
HETATM   27  C   UNK N   1      19.456  15.424   3.811  0.00  0.00     0.126 C 
ENDBRANCH  24  25
ENDBRANCH   4  24
TORSDOF 8
ENDMDL
MODEL 7
REMARK VINA RESULT:      -6.3      2.265      5.653
REMARK  8 active torsions:
REMARK  status: ('A' for Active; 'I' for Inactive)
REMARK    1  A    between atoms: C_13  and  O_2 
REMARK    2  A    between atoms: O_2  and  C_19 
REMARK    3  A    between atoms: C_14  and  O_3 
REMARK    4  A    between atoms: O_3  and  C_22 
REMARK    5  A    between atoms: O_4  and  C_18 
REMARK    6  A    between atoms: O_4  and  C_23 
REMARK    7  A    between atoms: C_12  and  N_10 
REMARK    8  A    between atoms: C_15  and  C_18 
ROOT
HETATM    1  O   UNK N   1      21.975  15.002   5.735  0.00  0.00    -0.353 OA
HETATM    2  C   UNK N   1      20.821  15.785   5.874  0.00  0.00     0.264 C 
HETATM    3  C   UNK N   1      20.515  15.865   7.360  0.00  0.00     0.213 C 
HETATM    4  C   UNK N   1      20.776  14.414   7.697  0.00  0.00     0.197 C 
HETATM    5  C   UNK N   1      21.685  13.910   6.562  0.00  0.00     0.180 C 
ENDROOT
BRANCH   2   6
HETATM    6  N   UNK N   1      20.813  16.973   4.987  0.00  0.00    -0.280 N 
HETATM    7  C   UNK N   1      21.305  18.225   5.338  0.00  0.00     0.331 A 
HETATM    8  O   UNK N   1      21.900  18.399   6.383  0.00  0.00    -0.246 OA
HETATM    9  N   UNK N   1      21.100  19.300   4.514  0.00  0.00    -0.275 N 
HETATM   10  C   UNK N   1      20.413  19.169   3.340  0.00  0.00     0.250 A 
HETATM   11  H   UNK N   1      21.455  20.182   4.771  0.00  0.00     0.173 HD
HETATM   12  O   UNK N   1      20.214  20.142   2.638  0.00  0.00    -0.268 OA
HETATM   13  C   UNK N   1      19.931  17.928   2.962  0.00  0.00     0.092 A 
HETATM   14  C   UNK N   1      20.136  16.843   3.808  0.00  0.00     0.104 A 
ENDBRANCH   2   6
BRANCH   3  15
HETATM   15  O   UNK N   1      19.175  16.129   7.550  0.00  0.00    -0.309 OA
BRANCH  15  16
HETATM   16  C   UNK N   1      18.684  16.810   8.613  0.00  0.00     0.255 C 
HETATM   17  O   UNK N   1      17.679  16.432   9.195  0.00  0.00    -0.266 OA
HETATM   18  C   UNK N   1      19.402  18.025   9.092  0.00  0.00     0.126 C 
ENDBRANCH  15  16
ENDBRANCH   3  15
BRANCH   5  19
HETATM   19  C   UNK N   1      22.967  13.193   6.972  0.00  0.00     0.213 C 
BRANCH  19  20
HETATM   20  O   UNK N   1      24.074  13.892   6.547  0.00  0.00    -0.319 OA
BRANCH  20  21
HETATM   21  C   UNK N   1      25.077  14.240   7.387  0.00  0.00     0.254 C 
HETATM   22  O   UNK N   1      25.218  13.678   8.464  0.00  0.00    -0.266 OA
HETATM   23  C   UNK N   1      26.023  15.319   6.992  0.00  0.00     0.126 C 
ENDBRANCH  20  21
ENDBRANCH  19  20
ENDBRANCH   5  19
BRANCH   4  24
HETATM   24  O   UNK N   1      21.310  14.246   8.958  0.00  0.00    -0.311 OA
BRANCH  24  25
HETATM   25  C   UNK N   1      20.656  13.541   9.914  0.00  0.00     0.255 C 
HETATM   26  O   UNK N   1      19.461  13.710  10.110  0.00  0.00    -0.266 OA
HETATM   27  C   UNK N   1      21.397  12.541  10.731  0.00  0.00     0.126 C 
ENDBRANCH  24  25
ENDBRANCH   4  24
TORSDOF 8
ENDMDL
MODEL 8
REMARK VINA RESULT:      -6.2      8.677     11.504
REMARK  8 active torsions:
REMARK  status: ('A' for Active; 'I' for Inactive)
REMARK    1  A    between atoms: C_13  and  O_2 
REMARK    2  A    between atoms: O_2  and  C_19 
REMARK    3  A    between atoms: C_14  and  O_3 
REMARK    4  A    between atoms: O_3  and  C_22 
REMARK    5  A    between atoms: O_4  and  C_18 
REMARK    6  A    between atoms: O_4  and  C_23 
REMARK    7  A    between atoms: C_12  and  N_10 
REMARK    8  A    between atoms: C_15  and  C_18 
ROOT
HETATM    1  O   UNK N   1      29.847  17.215   7.157  0.00  0.00    -0.353 OA
HETATM    2  C   UNK N   1      30.930  16.440   6.720  0.00  0.00     0.264 C 
HETATM    3  C   UNK N   1      30.874  16.412   5.202  0.00  0.00     0.213 C 
HETATM    4  C   UNK N   1      29.383  16.203   5.060  0.00  0.00     0.197 C 
HETATM    5  C   UNK N   1      28.794  16.696   6.394  0.00  0.00     0.180 C 
ENDROOT
BRANCH   2   6
HETATM    6  N   UNK N   1      32.179  16.708   7.473  0.00  0.00    -0.280 N 
HETATM    7  C   UNK N   1      32.459  16.215   8.742  0.00  0.00     0.331 A 
HETATM    8  O   UNK N   1      31.725  15.409   9.282  0.00  0.00    -0.246 OA
HETATM    9  N   UNK N   1      33.564  16.653   9.423  0.00  0.00    -0.275 N 
HETATM   10  C   UNK N   1      34.407  17.579   8.878  0.00  0.00     0.250 A 
HETATM   11  H   UNK N   1      33.754  16.295  10.321  0.00  0.00     0.173 HD
HETATM   12  O   UNK N   1      35.365  17.980   9.511  0.00  0.00    -0.268 OA
HETATM   13  C   UNK N   1      34.159  18.070   7.607  0.00  0.00     0.092 A 
HETATM   14  C   UNK N   1      33.031  17.625   6.926  0.00  0.00     0.104 A 
ENDBRANCH   2   6
BRANCH   3  15
HETATM   15  O   UNK N   1      31.524  15.293   4.729  0.00  0.00    -0.309 OA
BRANCH  15  16
HETATM   16  C   UNK N   1      32.244  15.268   3.581  0.00  0.00     0.255 C 
HETATM   17  O   UNK N   1      32.332  14.249   2.913  0.00  0.00    -0.266 OA
HETATM   18  C   UNK N   1      32.914  16.516   3.116  0.00  0.00     0.126 C 
ENDBRANCH  15  16
ENDBRANCH   3  15
BRANCH   5  19
HETATM   19  C   UNK N   1      27.646  17.697   6.314  0.00  0.00     0.213 C 
BRANCH  19  20
HETATM   20  O   UNK N   1      28.102  18.979   6.526  0.00  0.00    -0.319 OA
BRANCH  20  21
HETATM   21  C   UNK N   1      27.793  20.004   5.698  0.00  0.00     0.254 C 
HETATM   22  O   UNK N   1      28.099  19.970   4.514  0.00  0.00    -0.266 OA
HETATM   23  C   UNK N   1      27.068  21.188   6.235  0.00  0.00     0.126 C 
ENDBRANCH  20  21
ENDBRANCH  19  20
ENDBRANCH   5  19
BRANCH   4  24
HETATM   24  O   UNK N   1      28.858  16.833   3.951  0.00  0.00    -0.311 OA
BRANCH  24  25
HETATM   25  C   UNK N   1      28.123  16.155   3.035  0.00  0.00     0.255 C 
HETATM   26  O   UNK N   1      26.932  16.393   2.887  0.00  0.00    -0.266 OA
HETATM   27  C   UNK N   1      28.772  15.115   2.190  0.00  0.00     0.126 C 
ENDBRANCH  24  25
ENDBRANCH   4  24
TORSDOF 8
ENDMDL
MODEL 9
REMARK VINA RESULT:      -6.1     15.820     17.516
REMARK  8 active torsions:
REMARK  status: ('A' for Active; 'I' for Inactive)
REMARK    1  A    between atoms: C_13  and  O_2 
REMARK    2  A    between atoms: O_2  and  C_19 
REMARK    3  A    between atoms: C_14  and  O_3 
REMARK    4  A    between atoms: O_3  and  C_22 
REMARK    5  A    between atoms: O_4  and  C_18 
REMARK    6  A    between atoms: O_4  and  C_23 
REMARK    7  A    between atoms: C_12  and  N_10 
REMARK    8  A    between atoms: C_15  and  C_18 
ROOT
HETATM    1  O   UNK N   1      29.629  25.207  -3.853  0.00  0.00    -0.353 OA
HETATM    2  C   UNK N   1      28.933  24.019  -4.114  0.00  0.00     0.264 C 
HETATM    3  C   UNK N   1      28.017  24.290  -5.295  0.00  0.00     0.213 C 
HETATM    4  C   UNK N   1      27.526  25.653  -4.860  0.00  0.00     0.197 C 
HETATM    5  C   UNK N   1      28.600  26.157  -3.879  0.00  0.00     0.180 C 
ENDROOT
BRANCH   2   6
HETATM    6  N   UNK N   1      29.788  22.811  -4.021  0.00  0.00    -0.280 N 
HETATM    7  C   UNK N   1      30.502  22.433  -2.890  0.00  0.00     0.331 A 
HETATM    8  O   UNK N   1      30.372  23.023  -1.835  0.00  0.00    -0.246 OA
HETATM    9  N   UNK N   1      31.394  21.395  -2.955  0.00  0.00    -0.275 N 
HETATM   10  C   UNK N   1      31.602  20.715  -4.122  0.00  0.00     0.250 A 
HETATM   11  H   UNK N   1      31.893  21.134  -2.147  0.00  0.00     0.173 HD
HETATM   12  O   UNK N   1      32.422  19.818  -4.167  0.00  0.00    -0.268 OA
HETATM   13  C   UNK N   1      30.887  21.062  -5.255  0.00  0.00     0.092 A 
HETATM   14  C   UNK N   1      29.989  22.122  -5.183  0.00  0.00     0.104 A 
ENDBRANCH   2   6
BRANCH   3  15
HETATM   15  O   UNK N   1      26.955  23.412  -5.278  0.00  0.00    -0.309 OA
BRANCH  15  16
HETATM   16  C   UNK N   1      26.294  23.006  -6.389  0.00  0.00     0.255 C 
HETATM   17  O   UNK N   1      25.111  23.264  -6.549  0.00  0.00    -0.266 OA
HETATM   18  C   UNK N   1      27.035  22.255  -7.442  0.00  0.00     0.126 C 
ENDBRANCH  15  16
ENDBRANCH   3  15
BRANCH   5  19
HETATM   19  C   UNK N   1      29.164  27.551  -4.131  0.00  0.00     0.213 C 
BRANCH  19  20
HETATM   20  O   UNK N   1      28.577  28.474  -3.294  0.00  0.00    -0.319 OA
BRANCH  20  21
HETATM   21  C   UNK N   1      27.361  29.011  -3.548  0.00  0.00     0.254 C 
HETATM   22  O   UNK N   1      26.399  28.752  -2.838  0.00  0.00    -0.266 OA
HETATM   23  C   UNK N   1      27.192  29.930  -4.706  0.00  0.00     0.126 C 
ENDBRANCH  20  21
ENDBRANCH  19  20
ENDBRANCH   5  19
BRANCH   4  24
HETATM   24  O   UNK N   1      27.295  26.503  -5.921  0.00  0.00    -0.311 OA
BRANCH  24  25
HETATM   25  C   UNK N   1      26.059  26.639  -6.462  0.00  0.00     0.255 C 
HETATM   26  O   UNK N   1      25.878  26.476  -7.660  0.00  0.00    -0.266 OA
HETATM   27  C   UNK N   1      24.904  26.981  -5.587  0.00  0.00     0.126 C 
ENDBRANCH  24  25
ENDBRANCH   4  24
TORSDOF 8
ENDMDL
