MODEL 1
REMARK VINA RESULT:      -8.0      0.000      0.000
REMARK  6 active torsions:
REMARK  status: ('A' for Active; 'I' for Inactive)
REMARK    1  A    between atoms: O_27  and  C_10 
REMARK    2  A    between atoms: C_20  and  C_13 
REMARK    3  A    between atoms: C_15  and  N_26 
REMARK    4  A    between atoms: O_29  and  C_17 
REMARK    5  A    between atoms: O_30  and  C_18 
REMARK    6  A    between atoms: O_32  and  C_20 
ROOT
HETATM    1  C   UNK N   1      31.731  15.894   4.642  0.00  0.00     0.052 C 
HETATM    2  C   UNK N   1      28.234  18.460   5.301  0.00  0.00     0.027 A 
HETATM    3  C   UNK N   1      27.910  18.855   6.587  0.00  0.00     0.039 A 
HETATM    4  C   UNK N   1      32.986  14.628   6.863  0.00  0.00     0.024 C 
HETATM    5  C   UNK N   1      32.111  15.870   7.073  0.00  0.00     0.065 C 
HETATM    6  C   UNK N   1      33.989  14.416   7.966  0.00  0.00     0.075 C 
HETATM    7  C   UNK N   1      29.238  17.525   5.068  0.00  0.00     0.044 A 
HETATM    8  C   UNK N   1      28.591  18.332   7.679  0.00  0.00     0.080 A 
HETATM    9  C   UNK N   1      31.541  15.929   8.474  0.00  0.00     0.033 C 
HETATM   10  C   UNK N   1      29.641  17.398   7.491  0.00  0.00     0.059 A 
HETATM   11  C   UNK N   1      35.475  13.311  10.173  0.00  0.00     0.095 C 
HETATM   12  C   UNK N   1      29.977  16.976   6.169  0.00  0.00     0.015 A 
HETATM   13  C   UNK N   1      34.926  13.185   7.671  0.00  0.00     0.286 C 
HETATM   14  C   UNK N   1      30.364  16.828   8.678  0.00  0.00     0.195 C 
HETATM   15  C   UNK N   1      35.739  12.797   8.934  0.00  0.00     0.095 C 
HETATM   16  C   UNK N   1      32.065  15.180   9.496  0.00  0.00     0.097 C 
HETATM   17  C   UNK N   1      34.287  14.210  10.350  0.00  0.00     0.207 C 
HETATM   18  C   UNK N   1      31.008  15.848   5.989  0.00  0.00     0.092 C 
HETATM   19  C   UNK N   1      33.222  14.199   9.277  0.00  0.00     0.177 C 
HETATM   20 Cl   UNK N   1      29.457  17.074   3.379  0.00  0.00    -0.084 Cl
HETATM   21  O   UNK N   1      29.969  17.071   9.807  0.00  0.00    -0.287 OA
HETATM   22  O   UNK N   1      34.165  14.901  11.349  0.00  0.00    -0.288 OA
HETATM   23  O   UNK N   1      30.310  14.638   6.074  0.00  0.00    -0.385 OA
HETATM   24  O   UNK N   1      32.638  12.927   9.272  0.00  0.00    -0.374 OA
HETATM   25  H   UNK N   1      29.784  13.823   6.068  0.00  0.00     0.211 HD
HETATM   26  H   UNK N   1      32.108  12.122   9.158  0.00  0.00     0.211 HD
ENDROOT
BRANCH  16  27
HETATM   27  O   UNK N   1      31.495  15.217  10.718  0.00  0.00    -0.361 OA
HETATM   28  H   UNK N   1      31.996  15.268  11.508  0.00  0.00     0.217 HD
ENDBRANCH  16  27
BRANCH   8  29
HETATM   29  O   UNK N   1      28.218  18.729   8.908  0.00  0.00    -0.360 OA
HETATM   30  H   UNK N   1      28.051  18.092   9.575  0.00  0.00     0.217 HD
ENDBRANCH   8  29
BRANCH  13  31
HETATM   31  N   UNK N   1      35.821  13.464   6.507  0.00  0.00     0.091 N 
HETATM   32  C   UNK N   1      35.309  12.874   5.276  0.00  0.00     0.310 C 
HETATM   33  C   UNK N   1      35.871  14.885   6.183  0.00  0.00     0.310 C 
ENDBRANCH  13  31
BRANCH  15  34
HETATM   34  O   UNK N   1      36.727  11.887   8.801  0.00  0.00    -0.362 OA
HETATM   35  H   UNK N   1      37.487  12.080   8.289  0.00  0.00     0.217 HD
ENDBRANCH  15  34
BRANCH  11  36
HETATM   36  C   UNK N   1      36.324  12.945  11.362  0.00  0.00     0.150 C 
HETATM   37  N   UNK N   1      37.045  13.829  11.945  0.00  0.00    -0.379 N 
HETATM   38  H   UNK N   1      37.608  13.581  12.714  0.00  0.00     0.158 HD
ATOM     39  HN  UNK N   1      37.036  14.793  11.612  1.00  0.00     0.158 HD
BRANCH  36  40
HETATM   40  O   UNK N   1      36.330  11.687  11.849  0.00  0.00    -0.346 OA
HETATM   41  H   UNK N   1      36.886  11.466  12.571  0.00  0.00     0.219 HD
ENDBRANCH  36  40
ENDBRANCH  11  36
TORSDOF 6
ENDMDL
MODEL 2
REMARK VINA RESULT:      -7.9      5.690      8.951
REMARK  6 active torsions:
REMARK  status: ('A' for Active; 'I' for Inactive)
REMARK    1  A    between atoms: O_27  and  C_10 
REMARK    2  A    between atoms: C_20  and  C_13 
REMARK    3  A    between atoms: C_15  and  N_26 
REMARK    4  A    between atoms: O_29  and  C_17 
REMARK    5  A    between atoms: O_30  and  C_18 
REMARK    6  A    between atoms: O_32  and  C_20 
ROOT
HETATM    1  C   UNK N   1      22.451  15.467   3.873  0.00  0.00     0.052 C 
HETATM    2  C   UNK N   1      19.554  18.589   2.825  0.00  0.00     0.027 A 
HETATM    3  C   UNK N   1      19.992  19.886   2.620  0.00  0.00     0.039 A 
HETATM    4  C   UNK N   1      25.091  16.199   4.647  0.00  0.00     0.024 C 
HETATM    5  C   UNK N   1      24.227  17.168   3.830  0.00  0.00     0.065 C 
HETATM    6  C   UNK N   1      26.569  16.456   4.502  0.00  0.00     0.075 C 
HETATM    7  C   UNK N   1      20.413  17.609   3.308  0.00  0.00     0.044 A 
HETATM    8  C   UNK N   1      21.310  20.237   2.885  0.00  0.00     0.080 A 
HETATM    9  C   UNK N   1      24.648  18.608   4.032  0.00  0.00     0.033 C 
HETATM   10  C   UNK N   1      22.232  19.265   3.351  0.00  0.00     0.059 A 
HETATM   11  C   UNK N   1      29.327  17.090   5.040  0.00  0.00     0.095 C 
HETATM   12  C   UNK N   1      21.787  17.926   3.575  0.00  0.00     0.015 A 
HETATM   13  C   UNK N   1      27.423  15.388   5.284  0.00  0.00     0.286 C 
HETATM   14  C   UNK N   1      23.652  19.654   3.646  0.00  0.00     0.195 C 
HETATM   15  C   UNK N   1      28.906  15.833   5.379  0.00  0.00     0.095 C 
HETATM   16  C   UNK N   1      25.869  18.933   4.563  0.00  0.00     0.097 C 
HETATM   17  C   UNK N   1      28.306  18.120   4.657  0.00  0.00     0.207 C 
HETATM   18  C   UNK N   1      22.753  16.923   4.229  0.00  0.00     0.092 C 
HETATM   19  C   UNK N   1      26.864  17.865   5.033  0.00  0.00     0.177 C 
HETATM   20 Cl   UNK N   1      19.666  16.038   3.591  0.00  0.00    -0.084 Cl
HETATM   21  O   UNK N   1      23.984  20.828   3.605  0.00  0.00    -0.287 OA
HETATM   22  O   UNK N   1      28.636  19.152   4.094  0.00  0.00    -0.288 OA
HETATM   23  O   UNK N   1      22.625  17.075   5.614  0.00  0.00    -0.385 OA
HETATM   24  O   UNK N   1      26.783  17.866   6.430  0.00  0.00    -0.374 OA
HETATM   25  H   UNK N   1      22.459  17.158   6.566  0.00  0.00     0.211 HD
HETATM   26  H   UNK N   1      26.544  17.869   7.371  0.00  0.00     0.211 HD
ENDROOT
BRANCH  16  27
HETATM   27  O   UNK N   1      26.186  20.226   4.780  0.00  0.00    -0.361 OA
HETATM   28  H   UNK N   1      26.082  20.640   5.614  0.00  0.00     0.217 HD
ENDBRANCH  16  27
BRANCH   8  29
HETATM   29  O   UNK N   1      21.677  21.515   2.695  0.00  0.00    -0.360 OA
HETATM   30  H   UNK N   1      22.455  21.844   3.101  0.00  0.00     0.217 HD
ENDBRANCH   8  29
BRANCH  13  31
HETATM   31  N   UNK N   1      27.295  14.039   4.653  0.00  0.00     0.091 N 
HETATM   32  C   UNK N   1      26.148  13.305   5.173  0.00  0.00     0.310 C 
HETATM   33  C   UNK N   1      26.996  14.127   3.228  0.00  0.00     0.310 C 
ENDBRANCH  13  31
BRANCH  15  34
HETATM   34  O   UNK N   1      29.808  14.945   5.848  0.00  0.00    -0.362 OA
HETATM   35  H   UNK N   1      30.714  15.175   5.913  0.00  0.00     0.217 HD
ENDBRANCH  15  34
BRANCH  11  36
HETATM   36  C   UNK N   1      30.786  17.461   5.099  0.00  0.00     0.150 C 
HETATM   37  N   UNK N   1      31.378  17.937   4.069  0.00  0.00    -0.379 N 
HETATM   38  H   UNK N   1      32.336  18.166   4.109  0.00  0.00     0.158 HD
ATOM     39  HN  UNK N   1      30.858  18.080   3.203  1.00  0.00     0.158 HD
BRANCH  36  40
HETATM   40  O   UNK N   1      31.492  17.318   6.240  0.00  0.00    -0.346 OA
HETATM   41  H   UNK N   1      32.288  16.823   6.239  0.00  0.00     0.219 HD
ENDBRANCH  36  40
ENDBRANCH  11  36
TORSDOF 6
ENDMDL
MODEL 3
REMARK VINA RESULT:      -7.9      4.466      8.318
REMARK  6 active torsions:
REMARK  status: ('A' for Active; 'I' for Inactive)
REMARK    1  A    between atoms: O_27  and  C_10 
REMARK    2  A    between atoms: C_20  and  C_13 
REMARK    3  A    between atoms: C_15  and  N_26 
REMARK    4  A    between atoms: O_29  and  C_17 
REMARK    5  A    between atoms: O_30  and  C_18 
REMARK    6  A    between atoms: O_32  and  C_20 
ROOT
HETATM    1  C   UNK N   1      34.790   9.936  11.188  0.00  0.00     0.052 C 
HETATM    2  C   UNK N   1      35.513   8.972  15.406  0.00  0.00     0.027 A 
HETATM    3  C   UNK N   1      35.663   9.997  16.324  0.00  0.00     0.039 A 
HETATM    4  C   UNK N   1      35.162  12.606  10.270  0.00  0.00     0.024 C 
HETATM    5  C   UNK N   1      34.928  12.325  11.760  0.00  0.00     0.065 C 
HETATM    6  C   UNK N   1      34.790  14.009   9.866  0.00  0.00     0.075 C 
HETATM    7  C   UNK N   1      35.438   9.236  14.043  0.00  0.00     0.044 A 
HETATM    8  C   UNK N   1      35.733  11.319  15.903  0.00  0.00     0.080 A 
HETATM    9  C   UNK N   1      35.503  13.416  12.638  0.00  0.00     0.033 C 
HETATM   10  C   UNK N   1      35.632  11.640  14.525  0.00  0.00     0.059 A 
HETATM   11  C   UNK N   1      34.887  16.725   8.911  0.00  0.00     0.095 C 
HETATM   12  C   UNK N   1      35.487  10.589  13.568  0.00  0.00     0.015 A 
HETATM   13  C   UNK N   1      34.961  14.231   8.316  0.00  0.00     0.286 C 
HETATM   14  C   UNK N   1      35.719  13.071  14.076  0.00  0.00     0.195 C 
HETATM   15  C   UNK N   1      34.870  15.739   7.964  0.00  0.00     0.095 C 
HETATM   16  C   UNK N   1      35.829  14.648  12.133  0.00  0.00     0.097 C 
HETATM   17  C   UNK N   1      35.107  16.350  10.347  0.00  0.00     0.207 C 
HETATM   18  C   UNK N   1      35.537  10.937  12.071  0.00  0.00     0.092 C 
HETATM   19  C   UNK N   1      35.683  14.984  10.645  0.00  0.00     0.177 C 
HETATM   20 Cl   UNK N   1      35.336   7.808  13.013  0.00  0.00    -0.084 Cl
HETATM   21  O   UNK N   1      36.001  13.945  14.879  0.00  0.00    -0.287 OA
HETATM   22  O   UNK N   1      34.863  17.139  11.247  0.00  0.00    -0.288 OA
HETATM   23  O   UNK N   1      36.885  10.937  11.695  0.00  0.00    -0.385 OA
HETATM   24  O   UNK N   1      36.981  14.949  10.123  0.00  0.00    -0.374 OA
HETATM   25  H   UNK N   1      37.822  10.858  11.456  0.00  0.00     0.211 HD
HETATM   26  H   UNK N   1      37.897  14.767   9.857  0.00  0.00     0.211 HD
ENDROOT
BRANCH  16  27
HETATM   27  O   UNK N   1      36.391  15.576  12.934  0.00  0.00    -0.361 OA
HETATM   28  H   UNK N   1      36.955  16.251  12.611  0.00  0.00     0.217 HD
ENDBRANCH  16  27
BRANCH   8  29
HETATM   29  O   UNK N   1      35.906  12.273  16.833  0.00  0.00    -0.360 OA
HETATM   30  H   UNK N   1      36.759  12.432  17.187  0.00  0.00     0.217 HD
ENDBRANCH   8  29
BRANCH  13  31
HETATM   31  N   UNK N   1      33.959  13.428   7.550  0.00  0.00     0.091 N 
HETATM   32  C   UNK N   1      32.671  14.106   7.467  0.00  0.00     0.310 C 
HETATM   33  C   UNK N   1      34.332  13.281   6.148  0.00  0.00     0.310 C 
ENDBRANCH  13  31
BRANCH  15  34
HETATM   34  O   UNK N   1      34.804  16.085   6.660  0.00  0.00    -0.362 OA
HETATM   35  H   UNK N   1      35.362  16.754   6.316  0.00  0.00     0.217 HD
ENDBRANCH  15  34
BRANCH  11  36
HETATM   36  C   UNK N   1      34.744  18.174   8.526  0.00  0.00     0.150 C 
HETATM   37  N   UNK N   1      33.777  18.557   7.780  0.00  0.00    -0.379 N 
HETATM   38  H   UNK N   1      33.695  19.503   7.520  0.00  0.00     0.158 HD
ATOM     39  HN  UNK N   1      33.088  17.880   7.452  1.00  0.00     0.158 HD
BRANCH  36  40
HETATM   40  O   UNK N   1      35.619  19.099   8.971  0.00  0.00    -0.346 OA
HETATM   41  H   UNK N   1      36.396  19.285   8.481  0.00  0.00     0.219 HD
ENDBRANCH  36  40
ENDBRANCH  11  36
TORSDOF 6
ENDMDL
MODEL 4
REMARK VINA RESULT:      -7.8      1.825      2.578
REMARK  6 active torsions:
REMARK  status: ('A' for Active; 'I' for Inactive)
REMARK    1  A    between atoms: O_27  and  C_10 
REMARK    2  A    between atoms: C_20  and  C_13 
REMARK    3  A    between atoms: C_15  and  N_26 
REMARK    4  A    between atoms: O_29  and  C_17 
REMARK    5  A    between atoms: O_30  and  C_18 
REMARK    6  A    between atoms: O_32  and  C_20 
ROOT
HETATM    1  C   UNK N   1      34.517  14.901   4.994  0.00  0.00     0.052 C 
HETATM    2  C   UNK N   1      30.818  17.051   4.028  0.00  0.00     0.027 A 
HETATM    3  C   UNK N   1      30.046  17.574   5.050  0.00  0.00     0.039 A 
HETATM    4  C   UNK N   1      35.036  14.130   7.686  0.00  0.00     0.024 C 
HETATM    5  C   UNK N   1      34.048  15.264   7.381  0.00  0.00     0.065 C 
HETATM    6  C   UNK N   1      35.617  14.207   9.074  0.00  0.00     0.075 C 
HETATM    7  C   UNK N   1      31.909  16.234   4.299  0.00  0.00     0.044 A 
HETATM    8  C   UNK N   1      30.352  17.302   6.377  0.00  0.00     0.080 A 
HETATM    9  C   UNK N   1      33.033  15.441   8.490  0.00  0.00     0.033 C 
HETATM   10  C   UNK N   1      31.473  16.497   6.705  0.00  0.00     0.059 A 
HETATM   11  C   UNK N   1      36.343  13.623  11.799  0.00  0.00     0.095 C 
HETATM   12  C   UNK N   1      32.270  15.943   5.658  0.00  0.00     0.015 A 
HETATM   13  C   UNK N   1      36.690  13.081   9.316  0.00  0.00     0.286 C 
HETATM   14  C   UNK N   1      31.790  16.197   8.143  0.00  0.00     0.195 C 
HETATM   15  C   UNK N   1      37.052  12.982  10.822  0.00  0.00     0.095 C 
HETATM   16  C   UNK N   1      33.234  14.916   9.740  0.00  0.00     0.097 C 
HETATM   17  C   UNK N   1      35.100  14.374  11.422  0.00  0.00     0.207 C 
HETATM   18  C   UNK N   1      33.385  14.947   6.021  0.00  0.00     0.092 C 
HETATM   19  C   UNK N   1      34.468  14.074  10.082  0.00  0.00     0.177 C 
HETATM   20 Cl   UNK N   1      32.725  15.585   2.877  0.00  0.00    -0.084 Cl
HETATM   21  O   UNK N   1      31.017  16.540   9.022  0.00  0.00    -0.287 OA
HETATM   22  O   UNK N   1      34.592  15.175  12.192  0.00  0.00    -0.288 OA
HETATM   23  O   UNK N   1      32.796  13.680   6.085  0.00  0.00    -0.385 OA
HETATM   24  O   UNK N   1      34.022  12.748  10.111  0.00  0.00    -0.374 OA
HETATM   25  H   UNK N   1      32.368  12.809   6.051  0.00  0.00     0.211 HD
HETATM   26  H   UNK N   1      33.626  11.873   9.974  0.00  0.00     0.211 HD
ENDROOT
BRANCH  16  27
HETATM   27  O   UNK N   1      32.281  15.047  10.686  0.00  0.00    -0.361 OA
HETATM   28  H   UNK N   1      32.043  14.350  11.266  0.00  0.00     0.217 HD
ENDBRANCH  16  27
BRANCH   8  29
HETATM   29  O   UNK N   1      29.554  17.812   7.330  0.00  0.00    -0.360 OA
HETATM   30  H   UNK N   1      29.888  17.954   8.195  0.00  0.00     0.217 HD
ENDBRANCH   8  29
BRANCH  13  31
HETATM   31  N   UNK N   1      37.904  13.311   8.475  0.00  0.00     0.091 N 
HETATM   32  C   UNK N   1      38.877  14.162   9.150  0.00  0.00     0.310 C 
HETATM   33  C   UNK N   1      38.657  12.083   8.251  0.00  0.00     0.310 C 
ENDBRANCH  13  31
BRANCH  15  34
HETATM   34  O   UNK N   1      38.094  12.200  11.176  0.00  0.00    -0.362 OA
HETATM   35  H   UNK N   1      38.957  12.381  10.858  0.00  0.00     0.217 HD
ENDBRANCH  15  34
BRANCH  11  36
HETATM   36  C   UNK N   1      36.763  13.540  13.244  0.00  0.00     0.150 C 
HETATM   37  N   UNK N   1      37.059  12.412  13.772  0.00  0.00    -0.379 N 
HETATM   38  H   UNK N   1      37.321  12.362  14.720  0.00  0.00     0.158 HD
ATOM     39  HN  UNK N   1      37.025  11.562  13.209  1.00  0.00     0.158 HD
BRANCH  36  40
HETATM   40  O   UNK N   1      36.853  14.651  14.004  0.00  0.00    -0.346 OA
HETATM   41  H   UNK N   1      36.232  15.346  13.895  0.00  0.00     0.219 HD
ENDBRANCH  36  40
ENDBRANCH  11  36
TORSDOF 6
ENDMDL
MODEL 5
REMARK VINA RESULT:      -7.7      6.230      9.821
REMARK  6 active torsions:
REMARK  status: ('A' for Active; 'I' for Inactive)
REMARK    1  A    between atoms: O_27  and  C_10 
REMARK    2  A    between atoms: C_20  and  C_13 
REMARK    3  A    between atoms: C_15  and  N_26 
REMARK    4  A    between atoms: O_29  and  C_17 
REMARK    5  A    between atoms: O_30  and  C_18 
REMARK    6  A    between atoms: O_32  and  C_20 
ROOT
HETATM    1  C   UNK N   1      35.155   9.103  15.677  0.00  0.00     0.052 C 
HETATM    2  C   UNK N   1      35.026  10.889  19.681  0.00  0.00     0.027 A 
HETATM    3  C   UNK N   1      35.095  12.264  19.817  0.00  0.00     0.039 A 
HETATM    4  C   UNK N   1      35.910  10.703  13.446  0.00  0.00     0.024 C 
HETATM    5  C   UNK N   1      35.389  11.361  14.730  0.00  0.00     0.065 C 
HETATM    6  C   UNK N   1      35.736  11.567  12.224  0.00  0.00     0.075 C 
HETATM    7  C   UNK N   1      35.219  10.280  18.446  0.00  0.00     0.044 A 
HETATM    8  C   UNK N   1      35.350  13.072  18.716  0.00  0.00     0.080 A 
HETATM    9  C   UNK N   1      35.887  12.783  14.877  0.00  0.00     0.033 C 
HETATM   10  C   UNK N   1      35.525  12.499  17.430  0.00  0.00     0.059 A 
HETATM   11  C   UNK N   1      36.231  13.170   9.882  0.00  0.00     0.095 C 
HETATM   12  C   UNK N   1      35.466  11.080  17.280  0.00  0.00     0.015 A 
HETATM   13  C   UNK N   1      36.199  10.823  10.915  0.00  0.00     0.286 C 
HETATM   14  C   UNK N   1      35.812  13.378  16.247  0.00  0.00     0.195 C 
HETATM   15  C   UNK N   1      36.301  11.814   9.726  0.00  0.00     0.095 C 
HETATM   16  C   UNK N   1      36.401  13.479  13.814  0.00  0.00     0.097 C 
HETATM   17  C   UNK N   1      36.157  13.740  11.268  0.00  0.00     0.207 C 
HETATM   18  C   UNK N   1      35.814  10.463  15.915  0.00  0.00     0.092 C 
HETATM   19  C   UNK N   1      36.553  12.850  12.424  0.00  0.00     0.177 C 
HETATM   20 Cl   UNK N   1      35.184   8.517  18.473  0.00  0.00    -0.084 Cl
HETATM   21  O   UNK N   1      36.018  14.569  16.408  0.00  0.00    -0.287 OA
HETATM   22  O   UNK N   1      35.823  14.900  11.454  0.00  0.00    -0.288 OA
HETATM   23  O   UNK N   1      37.202  10.293  15.884  0.00  0.00    -0.385 OA
HETATM   24  O   UNK N   1      37.916  12.563  12.290  0.00  0.00    -0.374 OA
HETATM   25  H   UNK N   1      38.157  10.125  15.925  0.00  0.00     0.211 HD
HETATM   26  H   UNK N   1      38.846  12.295  12.368  0.00  0.00     0.211 HD
ENDROOT
BRANCH  16  27
HETATM   27  O   UNK N   1      36.886  14.725  13.996  0.00  0.00    -0.361 OA
HETATM   28  H   UNK N   1      37.777  14.952  13.818  0.00  0.00     0.217 HD
ENDBRANCH  16  27
BRANCH   8  29
HETATM   29  O   UNK N   1      35.433  14.399  18.908  0.00  0.00    -0.360 OA
HETATM   30  H   UNK N   1      34.708  14.951  18.687  0.00  0.00     0.217 HD
ENDBRANCH   8  29
BRANCH  13  31
HETATM   31  N   UNK N   1      35.288   9.681  10.601  0.00  0.00     0.091 N 
HETATM   32  C   UNK N   1      35.703   8.456  11.274  0.00  0.00     0.310 C 
HETATM   33  C   UNK N   1      33.944   9.892  11.126  0.00  0.00     0.310 C 
ENDBRANCH  13  31
BRANCH  15  34
HETATM   34  O   UNK N   1      36.499  11.307   8.490  0.00  0.00    -0.362 OA
HETATM   35  H   UNK N   1      36.022  10.555   8.201  0.00  0.00     0.217 HD
ENDBRANCH  15  34
BRANCH  11  36
HETATM   36  C   UNK N   1      36.282  14.092   8.692  0.00  0.00     0.150 C 
HETATM   37  N   UNK N   1      35.404  15.012   8.543  0.00  0.00    -0.379 N 
HETATM   38  H   UNK N   1      35.435  15.604   7.756  0.00  0.00     0.158 HD
ATOM     39  HN  UNK N   1      34.670  15.134   9.241  1.00  0.00     0.158 HD
BRANCH  36  40
HETATM   40  O   UNK N   1      37.261  13.980   7.770  0.00  0.00    -0.346 OA
HETATM   41  H   UNK N   1      37.945  14.620   7.733  0.00  0.00     0.219 HD
ENDBRANCH  36  40
ENDBRANCH  11  36
TORSDOF 6
ENDMDL
MODEL 6
REMARK VINA RESULT:      -7.4      3.419      4.363
REMARK  6 active torsions:
REMARK  status: ('A' for Active; 'I' for Inactive)
REMARK    1  A    between atoms: O_27  and  C_10 
REMARK    2  A    between atoms: C_20  and  C_13 
REMARK    3  A    between atoms: C_15  and  N_26 
REMARK    4  A    between atoms: O_29  and  C_17 
REMARK    5  A    between atoms: O_30  and  C_18 
REMARK    6  A    between atoms: O_32  and  C_20 
ROOT
HETATM    1  C   UNK N   1      33.814  12.219   6.266  0.00  0.00     0.052 C 
HETATM    2  C   UNK N   1      32.960  15.282   3.245  0.00  0.00     0.027 A 
HETATM    3  C   UNK N   1      33.180  16.615   3.543  0.00  0.00     0.039 A 
HETATM    4  C   UNK N   1      34.296  12.997   8.962  0.00  0.00     0.024 C 
HETATM    5  C   UNK N   1      34.477  14.006   7.821  0.00  0.00     0.065 C 
HETATM    6  C   UNK N   1      35.089  13.348  10.195  0.00  0.00     0.075 C 
HETATM    7  C   UNK N   1      33.070  14.300   4.223  0.00  0.00     0.044 A 
HETATM    8  C   UNK N   1      33.529  17.003   4.831  0.00  0.00     0.080 A 
HETATM    9  C   UNK N   1      34.316  15.434   8.299  0.00  0.00     0.033 C 
HETATM   10  C   UNK N   1      33.683  16.034   5.856  0.00  0.00     0.059 A 
HETATM   11  C   UNK N   1      35.845  14.062  12.881  0.00  0.00     0.095 C 
HETATM   12  C   UNK N   1      33.447  14.657   5.561  0.00  0.00     0.015 A 
HETATM   13  C   UNK N   1      34.948  12.244  11.309  0.00  0.00     0.286 C 
HETATM   14  C   UNK N   1      34.048  16.463   7.248  0.00  0.00     0.195 C 
HETATM   15  C   UNK N   1      35.511  12.754  12.662  0.00  0.00     0.095 C 
HETATM   16  C   UNK N   1      34.390  15.760   9.629  0.00  0.00     0.097 C 
HETATM   17  C   UNK N   1      35.565  15.073  11.810  0.00  0.00     0.207 C 
HETATM   18  C   UNK N   1      33.462  13.639   6.714  0.00  0.00     0.092 C 
HETATM   19  C   UNK N   1      34.588  14.700  10.718  0.00  0.00     0.177 C 
HETATM   20 Cl   UNK N   1      32.669  12.669   3.688  0.00  0.00    -0.084 Cl
HETATM   21  O   UNK N   1      34.092  17.649   7.529  0.00  0.00    -0.287 OA
HETATM   22  O   UNK N   1      36.081  16.180  11.839  0.00  0.00    -0.288 OA
HETATM   23  O   UNK N   1      32.175  13.622   7.262  0.00  0.00    -0.385 OA
HETATM   24  O   UNK N   1      33.331  14.536  11.312  0.00  0.00    -0.374 OA
HETATM   25  H   UNK N   1      31.255  13.585   7.570  0.00  0.00     0.211 HD
HETATM   26  H   UNK N   1      32.398  14.417  11.551  0.00  0.00     0.211 HD
ENDROOT
BRANCH  16  27
HETATM   27  O   UNK N   1      34.187  17.034  10.021  0.00  0.00    -0.361 OA
HETATM   28  H   UNK N   1      33.355  17.460   9.950  0.00  0.00     0.217 HD
ENDBRANCH  16  27
BRANCH   8  29
HETATM   29  O   UNK N   1      33.706  18.312   5.073  0.00  0.00    -0.360 OA
HETATM   30  H   UNK N   1      33.066  18.788   5.567  0.00  0.00     0.217 HD
ENDBRANCH   8  29
BRANCH  13  31
HETATM   31  N   UNK N   1      35.609  10.972  10.886  0.00  0.00     0.091 N 
HETATM   32  C   UNK N   1      37.039  10.985  11.169  0.00  0.00     0.310 C 
HETATM   33  C   UNK N   1      35.142   9.828  11.660  0.00  0.00     0.310 C 
ENDBRANCH  13  31
BRANCH  15  34
HETATM   34  O   UNK N   1      35.642  11.868  13.672  0.00  0.00    -0.362 OA
HETATM   35  H   UNK N   1      34.917  11.335  13.935  0.00  0.00     0.217 HD
ENDBRANCH  15  34
BRANCH  11  36
HETATM   36  C   UNK N   1      36.438  14.502  14.195  0.00  0.00     0.150 C 
HETATM   37  N   UNK N   1      36.253  13.810  15.256  0.00  0.00    -0.379 N 
HETATM   38  H   UNK N   1      36.632  14.109  16.115  0.00  0.00     0.158 HD
ATOM     39  HN  UNK N   1      35.713  12.947  15.213  1.00  0.00     0.158 HD
BRANCH  36  40
HETATM   40  O   UNK N   1      37.187  15.621  14.277  0.00  0.00    -0.346 OA
HETATM   41  H   UNK N   1      38.014  15.600  14.719  0.00  0.00     0.219 HD
ENDBRANCH  36  40
ENDBRANCH  11  36
TORSDOF 6
ENDMDL
MODEL 7
REMARK VINA RESULT:      -7.3      3.330      7.360
REMARK  6 active torsions:
REMARK  status: ('A' for Active; 'I' for Inactive)
REMARK    1  A    between atoms: O_27  and  C_10 
REMARK    2  A    between atoms: C_20  and  C_13 
REMARK    3  A    between atoms: C_15  and  N_26 
REMARK    4  A    between atoms: O_29  and  C_17 
REMARK    5  A    between atoms: O_30  and  C_18 
REMARK    6  A    between atoms: O_32  and  C_20 
ROOT
HETATM    1  C   UNK N   1      35.189  13.044   5.719  0.00  0.00     0.052 C 
HETATM    2  C   UNK N   1      38.384  13.199   8.721  0.00  0.00     0.027 A 
HETATM    3  C   UNK N   1      38.183  13.901   9.896  0.00  0.00     0.039 A 
HETATM    4  C   UNK N   1      32.958  14.798   5.947  0.00  0.00     0.024 C 
HETATM    5  C   UNK N   1      33.817  14.475   7.175  0.00  0.00     0.065 C 
HETATM    6  C   UNK N   1      31.563  15.246   6.300  0.00  0.00     0.075 C 
HETATM    7  C   UNK N   1      37.460  13.255   7.684  0.00  0.00     0.044 A 
HETATM    8  C   UNK N   1      37.042  14.674  10.071  0.00  0.00     0.080 A 
HETATM    9  C   UNK N   1      33.743  15.569   8.220  0.00  0.00     0.033 C 
HETATM   10  C   UNK N   1      36.056  14.740   9.054  0.00  0.00     0.059 A 
HETATM   11  C   UNK N   1      29.152  16.794   6.596  0.00  0.00     0.095 C 
HETATM   12  C   UNK N   1      36.259  14.027   7.833  0.00  0.00     0.015 A 
HETATM   13  C   UNK N   1      30.686  15.482   5.013  0.00  0.00     0.286 C 
HETATM   14  C   UNK N   1      34.831  15.587   9.245  0.00  0.00     0.195 C 
HETATM   15  C   UNK N   1      29.372  16.224   5.372  0.00  0.00     0.095 C 
HETATM   16  C   UNK N   1      32.742  16.506   8.210  0.00  0.00     0.097 C 
HETATM   17  C   UNK N   1      30.261  16.799   7.605  0.00  0.00     0.207 C 
HETATM   18  C   UNK N   1      35.262  14.233   6.679  0.00  0.00     0.092 C 
HETATM   19  C   UNK N   1      31.668  16.540   7.117  0.00  0.00     0.177 C 
HETATM   20 Cl   UNK N   1      37.918  12.371   6.230  0.00  0.00    -0.084 Cl
HETATM   21  O   UNK N   1      34.739  16.315  10.220  0.00  0.00    -0.287 OA
HETATM   22  O   UNK N   1      30.039  17.042   8.782  0.00  0.00    -0.288 OA
HETATM   23  O   UNK N   1      35.691  15.354   5.962  0.00  0.00    -0.385 OA
HETATM   24  O   UNK N   1      32.025  17.599   6.274  0.00  0.00    -0.374 OA
HETATM   25  H   UNK N   1      36.058  16.091   5.448  0.00  0.00     0.211 HD
HETATM   26  H   UNK N   1      32.443  18.261   5.700  0.00  0.00     0.211 HD
ENDROOT
BRANCH  16  27
HETATM   27  O   UNK N   1      32.741  17.498   9.124  0.00  0.00    -0.361 OA
HETATM   28  H   UNK N   1      31.956  17.820   9.521  0.00  0.00     0.217 HD
ENDBRANCH  16  27
BRANCH   8  29
HETATM   29  O   UNK N   1      36.908  15.357  11.220  0.00  0.00    -0.360 OA
HETATM   30  H   UNK N   1      36.059  15.472  11.601  0.00  0.00     0.217 HD
ENDBRANCH   8  29
BRANCH  13  31
HETATM   31  N   UNK N   1      30.413  14.190   4.311  0.00  0.00     0.091 N 
HETATM   32  C   UNK N   1      29.164  13.586   4.759  0.00  0.00     0.310 C 
HETATM   33  C   UNK N   1      30.179  14.382   2.884  0.00  0.00     0.310 C 
ENDBRANCH  13  31
BRANCH  15  34
HETATM   34  O   UNK N   1      28.422  16.334   4.419  0.00  0.00    -0.362 OA
HETATM   35  H   UNK N   1      27.815  17.047   4.432  0.00  0.00     0.217 HD
ENDBRANCH  15  34
BRANCH  11  36
HETATM   36  C   UNK N   1      27.839  17.459   6.917  0.00  0.00     0.150 C 
HETATM   37  N   UNK N   1      27.810  18.650   7.386  0.00  0.00    -0.379 N 
HETATM   38  H   UNK N   1      26.950  19.076   7.606  0.00  0.00     0.158 HD
ATOM     39  HN  UNK N   1      28.681  19.161   7.532  1.00  0.00     0.158 HD
BRANCH  36  40
HETATM   40  O   UNK N   1      26.669  16.823   6.701  0.00  0.00    -0.346 OA
HETATM   41  H   UNK N   1      25.989  17.245   6.212  0.00  0.00     0.219 HD
ENDBRANCH  36  40
ENDBRANCH  11  36
TORSDOF 6
ENDMDL
MODEL 8
REMARK VINA RESULT:      -7.3      3.530      7.506
REMARK  6 active torsions:
REMARK  status: ('A' for Active; 'I' for Inactive)
REMARK    1  A    between atoms: O_27  and  C_10 
REMARK    2  A    between atoms: C_20  and  C_13 
REMARK    3  A    between atoms: C_15  and  N_26 
REMARK    4  A    between atoms: O_29  and  C_17 
REMARK    5  A    between atoms: O_30  and  C_18 
REMARK    6  A    between atoms: O_32  and  C_20 
ROOT
HETATM    1  C   UNK N   1      37.165  11.889   8.037  0.00  0.00     0.052 C 
HETATM    2  C   UNK N   1      37.496  11.342  12.377  0.00  0.00     0.027 A 
HETATM    3  C   UNK N   1      36.606  11.988  13.216  0.00  0.00     0.039 A 
HETATM    4  C   UNK N   1      35.499  13.954   7.002  0.00  0.00     0.024 C 
HETATM    5  C   UNK N   1      35.278  13.420   8.423  0.00  0.00     0.065 C 
HETATM    6  C   UNK N   1      34.269  14.591   6.410  0.00  0.00     0.075 C 
HETATM    7  C   UNK N   1      37.521  11.611  11.013  0.00  0.00     0.044 A 
HETATM    8  C   UNK N   1      35.705  12.918  12.711  0.00  0.00     0.080 A 
HETATM    9  C   UNK N   1      34.597  14.440   9.311  0.00  0.00     0.033 C 
HETATM   10  C   UNK N   1      35.673  13.205  11.322  0.00  0.00     0.059 A 
HETATM   11  C   UNK N   1      32.410  16.476   5.275  0.00  0.00     0.095 C 
HETATM   12  C   UNK N   1      36.595  12.551  10.449  0.00  0.00     0.015 A 
HETATM   13  C   UNK N   1      34.510  15.046   4.922  0.00  0.00     0.286 C 
HETATM   14  C   UNK N   1      34.705  14.220  10.785  0.00  0.00     0.195 C 
HETATM   15  C   UNK N   1      33.356  15.960   4.433  0.00  0.00     0.095 C 
HETATM   16  C   UNK N   1      33.937  15.522   8.787  0.00  0.00     0.097 C 
HETATM   17  C   UNK N   1      32.543  16.240   6.750  0.00  0.00     0.207 C 
HETATM   18  C   UNK N   1      36.656  12.986   8.975  0.00  0.00     0.092 C 
HETATM   19  C   UNK N   1      33.888  15.796   7.280  0.00  0.00     0.177 C 
HETATM   20 Cl   UNK N   1      38.776  10.764  10.110  0.00  0.00    -0.084 Cl
HETATM   21  O   UNK N   1      34.033  14.887  11.554  0.00  0.00    -0.287 OA
HETATM   22  O   UNK N   1      31.604  16.438   7.506  0.00  0.00    -0.288 OA
HETATM   23  O   UNK N   1      37.536  14.071   8.904  0.00  0.00    -0.385 OA
HETATM   24  O   UNK N   1      34.795  16.839   7.060  0.00  0.00    -0.374 OA
HETATM   25  H   UNK N   1      38.206  14.773   8.882  0.00  0.00     0.211 HD
HETATM   26  H   UNK N   1      35.537  17.463   7.016  0.00  0.00     0.211 HD
ENDROOT
BRANCH  16  27
HETATM   27  O   UNK N   1      33.390  16.439   9.611  0.00  0.00    -0.361 OA
HETATM   28  H   UNK N   1      32.478  16.449   9.825  0.00  0.00     0.217 HD
ENDBRANCH  16  27
BRANCH   8  29
HETATM   29  O   UNK N   1      34.881  13.536  13.573  0.00  0.00    -0.360 OA
HETATM   30  H   UNK N   1      35.230  13.961  14.332  0.00  0.00     0.217 HD
ENDBRANCH   8  29
BRANCH  13  31
HETATM   31  N   UNK N   1      34.690  13.863   4.026  0.00  0.00     0.091 N 
HETATM   32  C   UNK N   1      36.077  13.417   3.990  0.00  0.00     0.310 C 
HETATM   33  C   UNK N   1      33.990  12.686   4.527  0.00  0.00     0.310 C 
ENDBRANCH  13  31
BRANCH  15  34
HETATM   34  O   UNK N   1      33.310  16.281   3.122  0.00  0.00    -0.362 OA
HETATM   35  H   UNK N   1      33.905  15.889   2.514  0.00  0.00     0.217 HD
ENDBRANCH  15  34
BRANCH  11  36
HETATM   36  C   UNK N   1      31.277  17.317   4.747  0.00  0.00     0.150 C 
HETATM   37  N   UNK N   1      30.091  17.175   5.208  0.00  0.00    -0.379 N 
HETATM   38  H   UNK N   1      29.351  17.718   4.850  0.00  0.00     0.158 HD
ATOM     39  HN  UNK N   1      29.910  16.496   5.948  1.00  0.00     0.158 HD
BRANCH  36  40
HETATM   40  O   UNK N   1      31.490  18.248   3.794  0.00  0.00    -0.346 OA
HETATM   41  H   UNK N   1      30.801  18.833   3.547  0.00  0.00     0.219 HD
ENDBRANCH  36  40
ENDBRANCH  11  36
TORSDOF 6
ENDMDL
MODEL 9
REMARK VINA RESULT:      -7.2      3.427      5.149
REMARK  6 active torsions:
REMARK  status: ('A' for Active; 'I' for Inactive)
REMARK    1  A    between atoms: O_27  and  C_10 
REMARK    2  A    between atoms: C_20  and  C_13 
REMARK    3  A    between atoms: C_15  and  N_26 
REMARK    4  A    between atoms: O_29  and  C_17 
REMARK    5  A    between atoms: O_30  and  C_18 
REMARK    6  A    between atoms: O_32  and  C_20 
ROOT
HETATM    1  C   UNK N   1      33.294  12.796   7.599  0.00  0.00     0.052 C 
HETATM    2  C   UNK N   1      33.254  17.028   6.445  0.00  0.00     0.027 A 
HETATM    3  C   UNK N   1      33.968  17.947   7.195  0.00  0.00     0.039 A 
HETATM    4  C   UNK N   1      34.321  12.041  10.145  0.00  0.00     0.024 C 
HETATM    5  C   UNK N   1      34.720  13.382   9.516  0.00  0.00     0.065 C 
HETATM    6  C   UNK N   1      35.320  11.540  11.156  0.00  0.00     0.075 C 
HETATM    7  C   UNK N   1      33.117  15.710   6.867  0.00  0.00     0.044 A 
HETATM    8  C   UNK N   1      34.574  17.568   8.386  0.00  0.00     0.080 A 
HETATM    9  C   UNK N   1      35.134  14.396  10.562  0.00  0.00     0.033 C 
HETATM   10  C   UNK N   1      34.486  16.228   8.843  0.00  0.00     0.059 A 
HETATM   11  C   UNK N   1      36.577  10.663  13.595  0.00  0.00     0.095 C 
HETATM   12  C   UNK N   1      33.744  15.274   8.082  0.00  0.00     0.015 A 
HETATM   13  C   UNK N   1      34.921  10.122  11.713  0.00  0.00     0.286 C 
HETATM   14  C   UNK N   1      35.134  15.829  10.138  0.00  0.00     0.195 C 
HETATM   15  C   UNK N   1      35.776   9.758  12.955  0.00  0.00     0.095 C 
HETATM   16  C   UNK N   1      35.468  14.018  11.837  0.00  0.00     0.097 C 
HETATM   17  C   UNK N   1      36.557  12.095  13.149  0.00  0.00     0.207 C 
HETATM   18  C   UNK N   1      33.524  13.868   8.666  0.00  0.00     0.092 C 
HETATM   19  C   UNK N   1      35.396  12.559  12.301  0.00  0.00     0.177 C 
HETATM   20 Cl   UNK N   1      32.104  14.701   5.835  0.00  0.00    -0.084 Cl
HETATM   21  O   UNK N   1      35.629  16.680  10.859  0.00  0.00    -0.287 OA
HETATM   22  O   UNK N   1      37.434  12.873  13.494  0.00  0.00    -0.288 OA
HETATM   23  O   UNK N   1      32.386  13.935   9.477  0.00  0.00    -0.385 OA
HETATM   24  O   UNK N   1      34.238  12.472  13.083  0.00  0.00    -0.374 OA
HETATM   25  H   UNK N   1      31.554  14.002   9.973  0.00  0.00     0.211 HD
HETATM   26  H   UNK N   1      33.357  12.506  13.488  0.00  0.00     0.211 HD
ENDROOT
BRANCH  16  27
HETATM   27  O   UNK N   1      35.777  14.955  12.757  0.00  0.00    -0.361 OA
HETATM   28  H   UNK N   1      36.496  14.864  13.350  0.00  0.00     0.217 HD
ENDBRANCH  16  27
BRANCH   8  29
HETATM   29  O   UNK N   1      35.232  18.505   9.090  0.00  0.00    -0.360 OA
HETATM   30  H   UNK N   1      34.787  18.986   9.760  0.00  0.00     0.217 HD
ENDBRANCH   8  29
BRANCH  13  31
HETATM   31  N   UNK N   1      35.033   9.080  10.646  0.00  0.00     0.091 N 
HETATM   32  C   UNK N   1      36.386   8.548  10.551  0.00  0.00     0.310 C 
HETATM   33  C   UNK N   1      34.245   7.893  10.956  0.00  0.00     0.310 C 
ENDBRANCH  13  31
BRANCH  15  34
HETATM   34  O   UNK N   1      35.695   8.500  13.438  0.00  0.00    -0.362 OA
HETATM   35  H   UNK N   1      35.197   7.847  12.986  0.00  0.00     0.217 HD
ENDBRANCH  15  34
BRANCH  11  36
HETATM   36  C   UNK N   1      37.431  10.252  14.767  0.00  0.00     0.150 C 
HETATM   37  N   UNK N   1      36.891   9.867  15.862  0.00  0.00    -0.379 N 
HETATM   38  H   UNK N   1      37.454   9.612  16.629  0.00  0.00     0.158 HD
ATOM     39  HN  UNK N   1      35.875   9.826  15.942  1.00  0.00     0.158 HD
BRANCH  36  40
HETATM   40  O   UNK N   1      38.777  10.262  14.680  0.00  0.00    -0.346 OA
HETATM   41  H   UNK N   1      39.205  10.852  14.090  0.00  0.00     0.219 HD
ENDBRANCH  36  40
ENDBRANCH  11  36
TORSDOF 6
ENDMDL
