MODEL 1
REMARK VINA RESULT:      -6.1      0.000      0.000
REMARK  12 active torsions:
REMARK  status: ('A' for Active; 'I' for Inactive)
REMARK    1  A    between atoms: C_1  and  N_7 
REMARK    2  A    between atoms: C_4  and  C_8 
REMARK    3  A    between atoms: C_9  and  C_10 
REMARK    4  A    between atoms: C_13  and  O_16 
REMARK    5  A    between atoms: O_16  and  C_17 
REMARK    6  A    between atoms: C_17  and  C_18 
REMARK    7  A    between atoms: C_18  and  O_19 
REMARK    8  A    between atoms: O_19  and  C_20 
REMARK    9  A    between atoms: C_20  and  C_21 
REMARK   10  A    between atoms: C_21  and  O_22 
REMARK   11  A    between atoms: O_22  and  C_23 
REMARK   12  A    between atoms: C_23  and  C_24 
ROOT
HETATM    1  C   UNK N   1      26.178  18.915   4.321  0.00  0.00    -0.036 A 
HETATM    2  C   UNK N   1      26.374  20.048   3.528  0.00  0.00     0.014 A 
HETATM    3  C   UNK N   1      25.295  20.701   2.958  0.00  0.00     0.037 A 
HETATM    4  C   UNK N   1      23.991  20.260   3.192  0.00  0.00     0.068 A 
HETATM    5  C   UNK N   1      23.791  19.083   3.929  0.00  0.00     0.037 A 
HETATM    6  C   UNK N   1      24.885  18.405   4.490  0.00  0.00     0.014 A 
ENDROOT
BRANCH   1   7
HETATM    7  C   UNK N   1      27.334  18.300   4.988  0.00  0.00     0.012 C 
HETATM    8  C   UNK N   1      27.584  18.637   6.260  0.00  0.00     0.012 C 
BRANCH   8   9
HETATM    9  C   UNK N   1      28.787  18.276   7.005  0.00  0.00    -0.036 A 
HETATM   10  C   UNK N   1      29.701  17.407   6.405  0.00  0.00     0.013 A 
HETATM   11  C   UNK N   1      30.802  16.940   7.122  0.00  0.00     0.030 A 
HETATM   12  C   UNK N   1      30.987  17.326   8.452  0.00  0.00     0.027 A 
HETATM   13  C   UNK N   1      30.077  18.212   9.051  0.00  0.00     0.030 A 
HETATM   14  C   UNK N   1      28.979  18.688   8.329  0.00  0.00     0.013 A 
BRANCH  12  15
HETATM   15  N   UNK N   1      32.074  16.787   9.183  0.00  0.00    -0.394 N 
HETATM   16  C   UNK N   1      33.127  16.039   8.546  0.00  0.00     0.146 C 
HETATM   17  H   UNK N   1      32.110  16.929  10.156  0.00  0.00     0.159 HD
ENDBRANCH  12  15
ENDBRANCH   8   9
ENDBRANCH   1   7
BRANCH   4  18
HETATM   18  O   UNK N   1      22.914  20.970   2.761  0.00  0.00    -0.349 OA
BRANCH  18  19
HETATM   19  C   UNK N   1      21.707  20.487   2.253  0.00  0.00     0.201 C 
BRANCH  19  20
HETATM   20  C   UNK N   1      20.504  20.432   3.215  0.00  0.00     0.194 C 
BRANCH  20  21
HETATM   21  O   UNK N   1      19.639  19.369   2.916  0.00  0.00    -0.387 OA
BRANCH  21  22
HETATM   22  C   UNK N   1      20.434  18.421   2.256  0.00  0.00     0.193 C 
BRANCH  22  23
HETATM   23  C   UNK N   1      20.138  17.014   2.761  0.00  0.00     0.193 C 
BRANCH  23  24
HETATM   24  O   UNK N   1      19.601  17.073   4.050  0.00  0.00    -0.387 OA
BRANCH  24  25
HETATM   25  C   UNK N   1      20.350  16.164   4.803  0.00  0.00     0.199 C 
BRANCH  25  26
HETATM   26  C   UNK N   1      21.371  16.915   5.638  0.00  0.00     0.248 C 
HETATM   27  F   UNK N   1      21.013  18.248   5.731  0.00  0.00    -0.253 F 
ENDBRANCH  25  26
ENDBRANCH  24  25
ENDBRANCH  23  24
ENDBRANCH  22  23
ENDBRANCH  21  22
ENDBRANCH  20  21
ENDBRANCH  19  20
ENDBRANCH  18  19
ENDBRANCH   4  18
TORSDOF 12
ENDMDL
MODEL 2
REMARK VINA RESULT:      -6.0      6.835     11.753
REMARK  12 active torsions:
REMARK  status: ('A' for Active; 'I' for Inactive)
REMARK    1  A    between atoms: C_1  and  N_7 
REMARK    2  A    between atoms: C_4  and  C_8 
REMARK    3  A    between atoms: C_9  and  C_10 
REMARK    4  A    between atoms: C_13  and  O_16 
REMARK    5  A    between atoms: O_16  and  C_17 
REMARK    6  A    between atoms: C_17  and  C_18 
REMARK    7  A    between atoms: C_18  and  O_19 
REMARK    8  A    between atoms: O_19  and  C_20 
REMARK    9  A    between atoms: C_20  and  C_21 
REMARK   10  A    between atoms: C_21  and  O_22 
REMARK   11  A    between atoms: O_22  and  C_23 
REMARK   12  A    between atoms: C_23  and  C_24 
ROOT
HETATM    1  C   UNK N   1      30.385  17.457   5.358  0.00  0.00    -0.036 A 
HETATM    2  C   UNK N   1      30.598  17.273   6.726  0.00  0.00     0.014 A 
HETATM    3  C   UNK N   1      31.883  17.240   7.239  0.00  0.00     0.037 A 
HETATM    4  C   UNK N   1      32.987  17.422   6.404  0.00  0.00     0.068 A 
HETATM    5  C   UNK N   1      32.785  17.537   5.020  0.00  0.00     0.037 A 
HETATM    6  C   UNK N   1      31.483  17.549   4.494  0.00  0.00     0.014 A 
ENDROOT
BRANCH   1   7
HETATM    7  C   UNK N   1      29.009  17.582   4.859  0.00  0.00     0.012 C 
HETATM    8  C   UNK N   1      28.506  18.812   4.689  0.00  0.00     0.012 C 
BRANCH   8   9
HETATM    9  C   UNK N   1      27.109  19.116   4.391  0.00  0.00    -0.036 A 
HETATM   10  C   UNK N   1      26.125  18.258   4.886  0.00  0.00     0.013 A 
HETATM   11  C   UNK N   1      24.789  18.439   4.528  0.00  0.00     0.030 A 
HETATM   12  C   UNK N   1      24.431  19.470   3.657  0.00  0.00     0.027 A 
HETATM   13  C   UNK N   1      25.418  20.344   3.170  0.00  0.00     0.030 A 
HETATM   14  C   UNK N   1      26.755  20.168   3.537  0.00  0.00     0.013 A 
BRANCH  12  15
HETATM   15  N   UNK N   1      23.079  19.595   3.253  0.00  0.00    -0.394 N 
HETATM   16  C   UNK N   1      22.002  18.983   3.987  0.00  0.00     0.146 C 
HETATM   17  H   UNK N   1      22.870  20.115   2.444  0.00  0.00     0.159 HD
ENDBRANCH  12  15
ENDBRANCH   8   9
ENDBRANCH   1   7
BRANCH   4  18
HETATM   18  O   UNK N   1      34.246  17.536   6.906  0.00  0.00    -0.349 OA
BRANCH  18  19
HETATM   19  C   UNK N   1      34.643  18.084   8.127  0.00  0.00     0.201 C 
BRANCH  19  20
HETATM   20  C   UNK N   1      34.542  17.185   9.375  0.00  0.00     0.194 C 
BRANCH  20  21
HETATM   21  O   UNK N   1      35.680  17.283  10.189  0.00  0.00    -0.387 OA
BRANCH  21  22
HETATM   22  C   UNK N   1      35.877  15.994  10.705  0.00  0.00     0.193 C 
BRANCH  22  23
HETATM   23  C   UNK N   1      34.558  15.384  11.165  0.00  0.00     0.193 C 
BRANCH  23  24
HETATM   24  O   UNK N   1      34.804  14.262  11.961  0.00  0.00    -0.387 OA
BRANCH  24  25
HETATM   25  C   UNK N   1      35.955  14.572  12.691  0.00  0.00     0.199 C 
BRANCH  25  26
HETATM   26  C   UNK N   1      35.890  13.904  14.052  0.00  0.00     0.248 C 
HETATM   27  F   UNK N   1      35.015  12.834  14.009  0.00  0.00    -0.253 F 
ENDBRANCH  25  26
ENDBRANCH  24  25
ENDBRANCH  23  24
ENDBRANCH  22  23
ENDBRANCH  21  22
ENDBRANCH  20  21
ENDBRANCH  19  20
ENDBRANCH  18  19
ENDBRANCH   4  18
TORSDOF 12
ENDMDL
MODEL 3
REMARK VINA RESULT:      -5.9      1.972      2.287
REMARK  12 active torsions:
REMARK  status: ('A' for Active; 'I' for Inactive)
REMARK    1  A    between atoms: C_1  and  N_7 
REMARK    2  A    between atoms: C_4  and  C_8 
REMARK    3  A    between atoms: C_9  and  C_10 
REMARK    4  A    between atoms: C_13  and  O_16 
REMARK    5  A    between atoms: O_16  and  C_17 
REMARK    6  A    between atoms: C_17  and  C_18 
REMARK    7  A    between atoms: C_18  and  O_19 
REMARK    8  A    between atoms: O_19  and  C_20 
REMARK    9  A    between atoms: C_20  and  C_21 
REMARK   10  A    between atoms: C_21  and  O_22 
REMARK   11  A    between atoms: O_22  and  C_23 
REMARK   12  A    between atoms: C_23  and  C_24 
ROOT
HETATM    1  C   UNK N   1      26.254  19.320   4.125  0.00  0.00    -0.036 A 
HETATM    2  C   UNK N   1      26.265  20.386   3.223  0.00  0.00     0.014 A 
HETATM    3  C   UNK N   1      25.081  20.891   2.717  0.00  0.00     0.037 A 
HETATM    4  C   UNK N   1      23.852  20.367   3.124  0.00  0.00     0.068 A 
HETATM    5  C   UNK N   1      23.835  19.251   3.975  0.00  0.00     0.037 A 
HETATM    6  C   UNK N   1      25.036  18.722   4.472  0.00  0.00     0.014 A 
ENDROOT
BRANCH   1   7
HETATM    7  C   UNK N   1      27.522  18.869   4.716  0.00  0.00     0.012 C 
HETATM    8  C   UNK N   1      27.514  18.450   5.988  0.00  0.00     0.012 C 
BRANCH   8   9
HETATM    9  C   UNK N   1      28.703  18.156   6.783  0.00  0.00    -0.036 A 
HETATM   10  C   UNK N   1      29.664  17.297   6.245  0.00  0.00     0.013 A 
HETATM   11  C   UNK N   1      30.755  16.892   7.013  0.00  0.00     0.030 A 
HETATM   12  C   UNK N   1      30.883  17.329   8.334  0.00  0.00     0.027 A 
HETATM   13  C   UNK N   1      29.925  18.206   8.871  0.00  0.00     0.030 A 
HETATM   14  C   UNK N   1      28.838  18.619   8.098  0.00  0.00     0.013 A 
BRANCH  12  15
HETATM   15  N   UNK N   1      31.962  16.853   9.118  0.00  0.00    -0.394 N 
HETATM   16  C   UNK N   1      33.020  16.053   8.557  0.00  0.00     0.146 C 
HETATM   17  H   UNK N   1      31.988  17.075  10.076  0.00  0.00     0.159 HD
ENDBRANCH  12  15
ENDBRANCH   8   9
ENDBRANCH   1   7
BRANCH   4  18
HETATM   18  O   UNK N   1      22.677  20.941   2.752  0.00  0.00    -0.349 OA
BRANCH  18  19
HETATM   19  C   UNK N   1      21.575  20.339   2.141  0.00  0.00     0.201 C 
BRANCH  19  20
HETATM   20  C   UNK N   1      20.361  20.012   3.033  0.00  0.00     0.194 C 
BRANCH  20  21
HETATM   21  O   UNK N   1      20.198  18.631   3.215  0.00  0.00    -0.387 OA
BRANCH  21  22
HETATM   22  C   UNK N   1      20.268  18.079   1.928  0.00  0.00     0.193 C 
BRANCH  22  23
HETATM   23  C   UNK N   1      20.383  16.560   1.992  0.00  0.00     0.193 C 
BRANCH  23  24
HETATM   24  O   UNK N   1      20.569  16.042   0.708  0.00  0.00    -0.387 OA
BRANCH  24  25
HETATM   25  C   UNK N   1      19.328  15.513   0.340  0.00  0.00     0.199 C 
BRANCH  25  26
HETATM   26  C   UNK N   1      19.184  14.113   0.906  0.00  0.00     0.248 C 
HETATM   27  F   UNK N   1      19.367  13.180  -0.098  0.00  0.00    -0.253 F 
ENDBRANCH  25  26
ENDBRANCH  24  25
ENDBRANCH  23  24
ENDBRANCH  22  23
ENDBRANCH  21  22
ENDBRANCH  20  21
ENDBRANCH  19  20
ENDBRANCH  18  19
ENDBRANCH   4  18
TORSDOF 12
ENDMDL
MODEL 4
REMARK VINA RESULT:      -5.9      8.370     13.151
REMARK  12 active torsions:
REMARK  status: ('A' for Active; 'I' for Inactive)
REMARK    1  A    between atoms: C_1  and  N_7 
REMARK    2  A    between atoms: C_4  and  C_8 
REMARK    3  A    between atoms: C_9  and  C_10 
REMARK    4  A    between atoms: C_13  and  O_16 
REMARK    5  A    between atoms: O_16  and  C_17 
REMARK    6  A    between atoms: C_17  and  C_18 
REMARK    7  A    between atoms: C_18  and  O_19 
REMARK    8  A    between atoms: O_19  and  C_20 
REMARK    9  A    between atoms: C_20  and  C_21 
REMARK   10  A    between atoms: C_21  and  O_22 
REMARK   11  A    between atoms: O_22  and  C_23 
REMARK   12  A    between atoms: C_23  and  C_24 
ROOT
HETATM    1  C   UNK N   1      35.689  13.954  13.053  0.00  0.00    -0.036 A 
HETATM    2  C   UNK N   1      35.978  15.277  12.711  0.00  0.00     0.014 A 
HETATM    3  C   UNK N   1      35.541  15.804  11.509  0.00  0.00     0.037 A 
HETATM    4  C   UNK N   1      34.775  15.033  10.631  0.00  0.00     0.068 A 
HETATM    5  C   UNK N   1      34.540  13.684  10.935  0.00  0.00     0.037 A 
HETATM    6  C   UNK N   1      35.002  13.140  12.144  0.00  0.00     0.014 A 
ENDROOT
BRANCH   1   7
HETATM    7  C   UNK N   1      36.086  13.454  14.376  0.00  0.00     0.012 C 
HETATM    8  C   UNK N   1      35.130  12.991  15.191  0.00  0.00     0.012 C 
BRANCH   8   9
HETATM    9  C   UNK N   1      35.318  12.641  16.597  0.00  0.00    -0.036 A 
HETATM   10  C   UNK N   1      35.599  11.311  16.917  0.00  0.00     0.013 A 
HETATM   11  C   UNK N   1      35.668  10.908  18.250  0.00  0.00     0.030 A 
HETATM   12  C   UNK N   1      35.438  11.829  19.273  0.00  0.00     0.027 A 
HETATM   13  C   UNK N   1      35.171  13.171  18.953  0.00  0.00     0.030 A 
HETATM   14  C   UNK N   1      35.112  13.577  17.618  0.00  0.00     0.013 A 
BRANCH  12  15
HETATM   15  N   UNK N   1      35.447  11.385  20.618  0.00  0.00    -0.394 N 
HETATM   16  C   UNK N   1      35.121  10.029  20.977  0.00  0.00     0.146 C 
HETATM   17  H   UNK N   1      35.682  12.023  21.329  0.00  0.00     0.159 HD
ENDBRANCH  12  15
ENDBRANCH   8   9
ENDBRANCH   1   7
BRANCH   4  18
HETATM   18  O   UNK N   1      34.216  15.574   9.516  0.00  0.00    -0.349 OA
BRANCH  18  19
HETATM   19  C   UNK N   1      34.838  16.309   8.505  0.00  0.00     0.201 C 
BRANCH  19  20
HETATM   20  C   UNK N   1      34.433  17.789   8.353  0.00  0.00     0.194 C 
BRANCH  20  21
HETATM   21  O   UNK N   1      33.048  17.971   8.477  0.00  0.00    -0.387 OA
BRANCH  21  22
HETATM   22  C   UNK N   1      32.506  17.514   7.267  0.00  0.00     0.193 C 
BRANCH  22  23
HETATM   23  C   UNK N   1      31.017  17.221   7.412  0.00  0.00     0.193 C 
BRANCH  23  24
HETATM   24  O   UNK N   1      30.696  17.038   8.760  0.00  0.00    -0.387 OA
BRANCH  24  25
HETATM   25  C   UNK N   1      29.309  17.190   8.833  0.00  0.00     0.199 C 
BRANCH  25  26
HETATM   26  C   UNK N   1      28.974  18.598   9.290  0.00  0.00     0.248 C 
HETATM   27  F   UNK N   1      29.947  19.053  10.160  0.00  0.00    -0.253 F 
ENDBRANCH  25  26
ENDBRANCH  24  25
ENDBRANCH  23  24
ENDBRANCH  22  23
ENDBRANCH  21  22
ENDBRANCH  20  21
ENDBRANCH  19  20
ENDBRANCH  18  19
ENDBRANCH   4  18
TORSDOF 12
ENDMDL
MODEL 5
REMARK VINA RESULT:      -5.8      9.631     14.804
REMARK  12 active torsions:
REMARK  status: ('A' for Active; 'I' for Inactive)
REMARK    1  A    between atoms: C_1  and  N_7 
REMARK    2  A    between atoms: C_4  and  C_8 
REMARK    3  A    between atoms: C_9  and  C_10 
REMARK    4  A    between atoms: C_13  and  O_16 
REMARK    5  A    between atoms: O_16  and  C_17 
REMARK    6  A    between atoms: C_17  and  C_18 
REMARK    7  A    between atoms: C_18  and  O_19 
REMARK    8  A    between atoms: O_19  and  C_20 
REMARK    9  A    between atoms: C_20  and  C_21 
REMARK   10  A    between atoms: C_21  and  O_22 
REMARK   11  A    between atoms: O_22  and  C_23 
REMARK   12  A    between atoms: C_23  and  C_24 
ROOT
HETATM    1  C   UNK N   1      36.617  12.806  13.978  0.00  0.00    -0.036 A 
HETATM    2  C   UNK N   1      36.085  14.093  13.870  0.00  0.00     0.014 A 
HETATM    3  C   UNK N   1      36.042  14.735  12.645  0.00  0.00     0.037 A 
HETATM    4  C   UNK N   1      36.498  14.096  11.490  0.00  0.00     0.068 A 
HETATM    5  C   UNK N   1      37.096  12.832  11.601  0.00  0.00     0.037 A 
HETATM    6  C   UNK N   1      37.162  12.187  12.846  0.00  0.00     0.014 A 
ENDROOT
BRANCH   1   7
HETATM    7  C   UNK N   1      36.562  12.115  15.274  0.00  0.00     0.012 C 
HETATM    8  C   UNK N   1      35.568  12.427  16.115  0.00  0.00     0.012 C 
BRANCH   8   9
HETATM    9  C   UNK N   1      35.473  11.987  17.505  0.00  0.00    -0.036 A 
HETATM   10  C   UNK N   1      35.441  10.615  17.763  0.00  0.00     0.013 A 
HETATM   11  C   UNK N   1      35.230  10.148  19.060  0.00  0.00     0.030 A 
HETATM   12  C   UNK N   1      35.031  11.052  20.106  0.00  0.00     0.027 A 
HETATM   13  C   UNK N   1      35.078  12.433  19.850  0.00  0.00     0.030 A 
HETATM   14  C   UNK N   1      35.299  12.900  18.552  0.00  0.00     0.013 A 
BRANCH  12  15
HETATM   15  N   UNK N   1      34.752  10.557  21.404  0.00  0.00    -0.394 N 
HETATM   16  C   UNK N   1      35.456   9.431  21.960  0.00  0.00     0.146 C 
HETATM   17  H   UNK N   1      34.055  10.997  21.941  0.00  0.00     0.159 HD
ENDBRANCH  12  15
ENDBRANCH   8   9
ENDBRANCH   1   7
BRANCH   4  18
HETATM   18  O   UNK N   1      36.332  14.652  10.260  0.00  0.00    -0.349 OA
BRANCH  18  19
HETATM   19  C   UNK N   1      35.205  15.296   9.746  0.00  0.00     0.201 C 
BRANCH  19  20
HETATM   20  C   UNK N   1      35.068  16.808  10.018  0.00  0.00     0.194 C 
BRANCH  20  21
HETATM   21  O   UNK N   1      34.810  17.532   8.846  0.00  0.00    -0.387 OA
BRANCH  21  22
HETATM   22  C   UNK N   1      33.424  17.439   8.651  0.00  0.00     0.193 C 
BRANCH  22  23
HETATM   23  C   UNK N   1      33.042  17.866   7.239  0.00  0.00     0.193 C 
BRANCH  23  24
HETATM   24  O   UNK N   1      34.156  17.790   6.399  0.00  0.00    -0.387 OA
BRANCH  24  25
HETATM   25  C   UNK N   1      33.801  16.886   5.395  0.00  0.00     0.199 C 
BRANCH  25  26
HETATM   26  C   UNK N   1      32.901  17.574   4.386  0.00  0.00     0.248 C 
HETATM   27  F   UNK N   1      33.216  17.148   3.108  0.00  0.00    -0.253 F 
ENDBRANCH  25  26
ENDBRANCH  24  25
ENDBRANCH  23  24
ENDBRANCH  22  23
ENDBRANCH  21  22
ENDBRANCH  20  21
ENDBRANCH  19  20
ENDBRANCH  18  19
ENDBRANCH   4  18
TORSDOF 12
ENDMDL
MODEL 6
REMARK VINA RESULT:      -5.7     10.090     15.161
REMARK  12 active torsions:
REMARK  status: ('A' for Active; 'I' for Inactive)
REMARK    1  A    between atoms: C_1  and  N_7 
REMARK    2  A    between atoms: C_4  and  C_8 
REMARK    3  A    between atoms: C_9  and  C_10 
REMARK    4  A    between atoms: C_13  and  O_16 
REMARK    5  A    between atoms: O_16  and  C_17 
REMARK    6  A    between atoms: C_17  and  C_18 
REMARK    7  A    between atoms: C_18  and  O_19 
REMARK    8  A    between atoms: O_19  and  C_20 
REMARK    9  A    between atoms: C_20  and  C_21 
REMARK   10  A    between atoms: C_21  and  O_22 
REMARK   11  A    between atoms: O_22  and  C_23 
REMARK   12  A    between atoms: C_23  and  C_24 
ROOT
HETATM    1  C   UNK N   1      35.315  12.939  15.079  0.00  0.00    -0.036 A 
HETATM    2  C   UNK N   1      36.174  14.026  14.899  0.00  0.00     0.014 A 
HETATM    3  C   UNK N   1      36.438  14.511  13.631  0.00  0.00     0.037 A 
HETATM    4  C   UNK N   1      35.825  13.944  12.511  0.00  0.00     0.068 A 
HETATM    5  C   UNK N   1      35.016  12.809  12.677  0.00  0.00     0.037 A 
HETATM    6  C   UNK N   1      34.765  12.302  13.961  0.00  0.00     0.014 A 
ENDROOT
BRANCH   1   7
HETATM    7  C   UNK N   1      34.981  12.510  16.444  0.00  0.00     0.012 C 
HETATM    8  C   UNK N   1      35.514  11.367  16.896  0.00  0.00     0.012 C 
BRANCH   8   9
HETATM    9  C   UNK N   1      35.141  10.699  18.140  0.00  0.00    -0.036 A 
HETATM   10  C   UNK N   1      34.403   9.516  18.061  0.00  0.00     0.013 A 
HETATM   11  C   UNK N   1      33.921   8.908  19.220  0.00  0.00     0.030 A 
HETATM   12  C   UNK N   1      34.160   9.491  20.467  0.00  0.00     0.027 A 
HETATM   13  C   UNK N   1      34.915  10.672  20.549  0.00  0.00     0.030 A 
HETATM   14  C   UNK N   1      35.406  11.275  19.389  0.00  0.00     0.013 A 
BRANCH  12  15
HETATM   15  N   UNK N   1      33.605   8.894  21.626  0.00  0.00    -0.394 N 
HETATM   16  C   UNK N   1      33.867   9.402  22.948  0.00  0.00     0.146 C 
HETATM   17  H   UNK N   1      33.023   8.107  21.524  0.00  0.00     0.159 HD
ENDBRANCH  12  15
ENDBRANCH   8   9
ENDBRANCH   1   7
BRANCH   4  18
HETATM   18  O   UNK N   1      35.958  14.495  11.275  0.00  0.00    -0.349 OA
BRANCH  18  19
HETATM   19  C   UNK N   1      36.055  15.845  10.935  0.00  0.00     0.201 C 
BRANCH  19  20
HETATM   20  C   UNK N   1      35.109  16.369   9.836  0.00  0.00     0.194 C 
BRANCH  20  21
HETATM   21  O   UNK N   1      35.319  17.728   9.564  0.00  0.00    -0.387 OA
BRANCH  21  22
HETATM   22  C   UNK N   1      34.430  18.039   8.525  0.00  0.00     0.193 C 
BRANCH  22  23
HETATM   23  C   UNK N   1      33.288  17.033   8.465  0.00  0.00     0.193 C 
BRANCH  23  24
HETATM   24  O   UNK N   1      32.577  17.189   7.272  0.00  0.00    -0.387 OA
BRANCH  24  25
HETATM   25  C   UNK N   1      33.519  17.622   6.335  0.00  0.00     0.199 C 
BRANCH  25  26
HETATM   26  C   UNK N   1      33.182  17.045   4.972  0.00  0.00     0.248 C 
HETATM   27  F   UNK N   1      32.960  18.070   4.071  0.00  0.00    -0.253 F 
ENDBRANCH  25  26
ENDBRANCH  24  25
ENDBRANCH  23  24
ENDBRANCH  22  23
ENDBRANCH  21  22
ENDBRANCH  20  21
ENDBRANCH  19  20
ENDBRANCH  18  19
ENDBRANCH   4  18
TORSDOF 12
ENDMDL
MODEL 7
REMARK VINA RESULT:      -5.5      8.944     13.794
REMARK  12 active torsions:
REMARK  status: ('A' for Active; 'I' for Inactive)
REMARK    1  A    between atoms: C_1  and  N_7 
REMARK    2  A    between atoms: C_4  and  C_8 
REMARK    3  A    between atoms: C_9  and  C_10 
REMARK    4  A    between atoms: C_13  and  O_16 
REMARK    5  A    between atoms: O_16  and  C_17 
REMARK    6  A    between atoms: C_17  and  C_18 
REMARK    7  A    between atoms: C_18  and  O_19 
REMARK    8  A    between atoms: O_19  and  C_20 
REMARK    9  A    between atoms: C_20  and  C_21 
REMARK   10  A    between atoms: C_21  and  O_22 
REMARK   11  A    between atoms: O_22  and  C_23 
REMARK   12  A    between atoms: C_23  and  C_24 
ROOT
HETATM    1  C   UNK N   1      35.543  13.262  13.401  0.00  0.00    -0.036 A 
HETATM    2  C   UNK N   1      34.967  12.702  12.258  0.00  0.00     0.014 A 
HETATM    3  C   UNK N   1      34.956  13.399  11.063  0.00  0.00     0.037 A 
HETATM    4  C   UNK N   1      35.549  14.660  10.969  0.00  0.00     0.068 A 
HETATM    5  C   UNK N   1      36.066  15.258  12.128  0.00  0.00     0.037 A 
HETATM    6  C   UNK N   1      36.059  14.563  13.347  0.00  0.00     0.014 A 
ENDROOT
BRANCH   1   7
HETATM    7  C   UNK N   1      35.623  12.459  14.628  0.00  0.00     0.012 C 
HETATM    8  C   UNK N   1      35.053  12.942  15.740  0.00  0.00     0.012 C 
BRANCH   8   9
HETATM    9  C   UNK N   1      35.203  12.375  17.077  0.00  0.00    -0.036 A 
HETATM   10  C   UNK N   1      35.075  13.228  18.176  0.00  0.00     0.013 A 
HETATM   11  C   UNK N   1      35.329  12.758  19.464  0.00  0.00     0.030 A 
HETATM   12  C   UNK N   1      35.730  11.435  19.661  0.00  0.00     0.027 A 
HETATM   13  C   UNK N   1      35.843  10.572  18.558  0.00  0.00     0.030 A 
HETATM   14  C   UNK N   1      35.579  11.040  17.269  0.00  0.00     0.013 A 
BRANCH  12  15
HETATM   15  N   UNK N   1      36.047  10.996  20.969  0.00  0.00    -0.394 N 
HETATM   16  C   UNK N   1      37.327  10.420  21.293  0.00  0.00     0.146 C 
HETATM   17  H   UNK N   1      35.372  11.088  21.679  0.00  0.00     0.159 HD
ENDBRANCH  12  15
ENDBRANCH   8   9
ENDBRANCH   1   7
BRANCH   4  18
HETATM   18  O   UNK N   1      35.675  15.297   9.774  0.00  0.00    -0.349 OA
BRANCH  18  19
HETATM   19  C   UNK N   1      34.735  16.089   9.112  0.00  0.00     0.201 C 
BRANCH  19  20
HETATM   20  C   UNK N   1      33.649  15.363   8.293  0.00  0.00     0.194 C 
BRANCH  20  21
HETATM   21  O   UNK N   1      32.421  15.320   8.968  0.00  0.00    -0.387 OA
BRANCH  21  22
HETATM   22  C   UNK N   1      31.689  16.410   8.474  0.00  0.00     0.193 C 
BRANCH  22  23
HETATM   23  C   UNK N   1      31.278  16.178   7.025  0.00  0.00     0.193 C 
BRANCH  23  24
HETATM   24  O   UNK N   1      31.434  17.356   6.290  0.00  0.00    -0.387 OA
BRANCH  24  25
HETATM   25  C   UNK N   1      31.296  16.977   4.952  0.00  0.00     0.199 C 
BRANCH  25  26
HETATM   26  C   UNK N   1      32.440  17.554   4.139  0.00  0.00     0.248 C 
HETATM   27  F   UNK N   1      33.460  17.954   4.981  0.00  0.00    -0.253 F 
ENDBRANCH  25  26
ENDBRANCH  24  25
ENDBRANCH  23  24
ENDBRANCH  22  23
ENDBRANCH  21  22
ENDBRANCH  20  21
ENDBRANCH  19  20
ENDBRANCH  18  19
ENDBRANCH   4  18
TORSDOF 12
ENDMDL
MODEL 8
REMARK VINA RESULT:      -5.4      1.674      2.161
REMARK  12 active torsions:
REMARK  status: ('A' for Active; 'I' for Inactive)
REMARK    1  A    between atoms: C_1  and  N_7 
REMARK    2  A    between atoms: C_4  and  C_8 
REMARK    3  A    between atoms: C_9  and  C_10 
REMARK    4  A    between atoms: C_13  and  O_16 
REMARK    5  A    between atoms: O_16  and  C_17 
REMARK    6  A    between atoms: C_17  and  C_18 
REMARK    7  A    between atoms: C_18  and  O_19 
REMARK    8  A    between atoms: O_19  and  C_20 
REMARK    9  A    between atoms: C_20  and  C_21 
REMARK   10  A    between atoms: C_21  and  O_22 
REMARK   11  A    between atoms: O_22  and  C_23 
REMARK   12  A    between atoms: C_23  and  C_24 
ROOT
HETATM    1  C   UNK N   1      26.206  18.613   4.102  0.00  0.00    -0.036 A 
HETATM    2  C   UNK N   1      24.908  18.208   4.421  0.00  0.00     0.014 A 
HETATM    3  C   UNK N   1      23.820  18.971   4.039  0.00  0.00     0.037 A 
HETATM    4  C   UNK N   1      23.996  20.142   3.300  0.00  0.00     0.068 A 
HETATM    5  C   UNK N   1      25.298  20.592   3.035  0.00  0.00     0.037 A 
HETATM    6  C   UNK N   1      26.406  19.832   3.441  0.00  0.00     0.014 A 
ENDROOT
BRANCH   1   7
HETATM    7  C   UNK N   1      27.334  17.733   4.439  0.00  0.00     0.012 C 
HETATM    8  C   UNK N   1      28.321  18.231   5.195  0.00  0.00     0.012 C 
BRANCH   8   9
HETATM    9  C   UNK N   1      29.594  17.566   5.460  0.00  0.00    -0.036 A 
HETATM   10  C   UNK N   1      30.591  17.633   4.484  0.00  0.00     0.013 A 
HETATM   11  C   UNK N   1      31.777  16.915   4.639  0.00  0.00     0.030 A 
HETATM   12  C   UNK N   1      31.966  16.110   5.765  0.00  0.00     0.027 A 
HETATM   13  C   UNK N   1      30.970  16.055   6.755  0.00  0.00     0.030 A 
HETATM   14  C   UNK N   1      29.787  16.782   6.604  0.00  0.00     0.013 A 
BRANCH  12  15
HETATM   15  N   UNK N   1      33.148  15.337   5.871  0.00  0.00    -0.394 N 
HETATM   16  C   UNK N   1      33.722  14.989   7.145  0.00  0.00     0.146 C 
HETATM   17  H   UNK N   1      33.590  15.029   5.048  0.00  0.00     0.159 HD
ENDBRANCH  12  15
ENDBRANCH   8   9
ENDBRANCH   1   7
BRANCH   4  18
HETATM   18  O   UNK N   1      22.936  20.828   2.793  0.00  0.00    -0.349 OA
BRANCH  18  19
HETATM   19  C   UNK N   1      21.722  20.322   2.326  0.00  0.00     0.201 C 
BRANCH  19  20
HETATM   20  C   UNK N   1      20.518  20.366   3.289  0.00  0.00     0.194 C 
BRANCH  20  21
HETATM   21  O   UNK N   1      19.462  19.555   2.848  0.00  0.00    -0.387 OA
BRANCH  21  22
HETATM   22  C   UNK N   1      20.059  18.341   2.478  0.00  0.00     0.193 C 
BRANCH  22  23
HETATM   23  C   UNK N   1      19.845  17.279   3.550  0.00  0.00     0.193 C 
BRANCH  23  24
HETATM   24  O   UNK N   1      21.069  16.704   3.902  0.00  0.00    -0.387 OA
BRANCH  24  25
HETATM   25  C   UNK N   1      21.525  16.069   2.744  0.00  0.00     0.199 C 
BRANCH  25  26
HETATM   26  C   UNK N   1      22.869  15.419   3.015  0.00  0.00     0.248 C 
HETATM   27  F   UNK N   1      23.102  15.372   4.377  0.00  0.00    -0.253 F 
ENDBRANCH  25  26
ENDBRANCH  24  25
ENDBRANCH  23  24
ENDBRANCH  22  23
ENDBRANCH  21  22
ENDBRANCH  20  21
ENDBRANCH  19  20
ENDBRANCH  18  19
ENDBRANCH   4  18
TORSDOF 12
ENDMDL
MODEL 9
REMARK VINA RESULT:      -5.4      7.810     13.021
REMARK  12 active torsions:
REMARK  status: ('A' for Active; 'I' for Inactive)
REMARK    1  A    between atoms: C_1  and  N_7 
REMARK    2  A    between atoms: C_4  and  C_8 
REMARK    3  A    between atoms: C_9  and  C_10 
REMARK    4  A    between atoms: C_13  and  O_16 
REMARK    5  A    between atoms: O_16  and  C_17 
REMARK    6  A    between atoms: C_17  and  C_18 
REMARK    7  A    between atoms: C_18  and  O_19 
REMARK    8  A    between atoms: O_19  and  C_20 
REMARK    9  A    between atoms: C_20  and  C_21 
REMARK   10  A    between atoms: C_21  and  O_22 
REMARK   11  A    between atoms: O_22  and  C_23 
REMARK   12  A    between atoms: C_23  and  C_24 
ROOT
HETATM    1  C   UNK N   1      32.175  16.620   8.524  0.00  0.00    -0.036 A 
HETATM    2  C   UNK N   1      33.186  17.573   8.379  0.00  0.00     0.014 A 
HETATM    3  C   UNK N   1      34.456  17.332   8.873  0.00  0.00     0.037 A 
HETATM    4  C   UNK N   1      34.758  16.119   9.496  0.00  0.00     0.068 A 
HETATM    5  C   UNK N   1      33.732  15.187   9.708  0.00  0.00     0.037 A 
HETATM    6  C   UNK N   1      32.437  15.438   9.228  0.00  0.00     0.014 A 
ENDROOT
BRANCH   1   7
HETATM    7  C   UNK N   1      30.865  16.867   7.906  0.00  0.00     0.012 C 
HETATM    8  C   UNK N   1      30.817  17.066   6.583  0.00  0.00     0.012 C 
BRANCH   8   9
HETATM    9  C   UNK N   1      29.641  17.512   5.841  0.00  0.00    -0.036 A 
HETATM   10  C   UNK N   1      28.619  18.154   6.545  0.00  0.00     0.013 A 
HETATM   11  C   UNK N   1      27.427  18.490   5.904  0.00  0.00     0.030 A 
HETATM   12  C   UNK N   1      27.241  18.169   4.558  0.00  0.00     0.027 A 
HETATM   13  C   UNK N   1      28.274  17.537   3.845  0.00  0.00     0.030 A 
HETATM   14  C   UNK N   1      29.472  17.210   4.485  0.00  0.00     0.013 A 
BRANCH  12  15
HETATM   15  N   UNK N   1      25.998  18.458   3.944  0.00  0.00    -0.394 N 
HETATM   16  C   UNK N   1      25.076  19.416   4.497  0.00  0.00     0.146 C 
HETATM   17  H   UNK N   1      25.757  17.988   3.114  0.00  0.00     0.159 HD
ENDBRANCH  12  15
ENDBRANCH   8   9
ENDBRANCH   1   7
BRANCH   4  18
HETATM   18  O   UNK N   1      36.031  15.806   9.858  0.00  0.00    -0.349 OA
BRANCH  18  19
HETATM   19  C   UNK N   1      36.692  14.583   9.728  0.00  0.00     0.201 C 
BRANCH  19  20
HETATM   20  C   UNK N   1      37.106  13.859  11.025  0.00  0.00     0.194 C 
BRANCH  20  21
HETATM   21  O   UNK N   1      35.997  13.510  11.810  0.00  0.00    -0.387 OA
BRANCH  21  22
HETATM   22  C   UNK N   1      36.084  14.319  12.952  0.00  0.00     0.193 C 
BRANCH  22  23
HETATM   23  C   UNK N   1      35.930  13.489  14.221  0.00  0.00     0.193 C 
BRANCH  23  24
HETATM   24  O   UNK N   1      34.575  13.296  14.503  0.00  0.00    -0.387 OA
BRANCH  24  25
HETATM   25  C   UNK N   1      34.529  12.188  15.353  0.00  0.00     0.199 C 
BRANCH  25  26
HETATM   26  C   UNK N   1      35.200  12.529  16.670  0.00  0.00     0.248 C 
HETATM   27  F   UNK N   1      34.520  13.561  17.291  0.00  0.00    -0.253 F 
ENDBRANCH  25  26
ENDBRANCH  24  25
ENDBRANCH  23  24
ENDBRANCH  22  23
ENDBRANCH  21  22
ENDBRANCH  20  21
ENDBRANCH  19  20
ENDBRANCH  18  19
ENDBRANCH   4  18
TORSDOF 12
ENDMDL
