MODEL 1
REMARK VINA RESULT:      -1.8      0.000      0.000
REMARK  3 active torsions:
REMARK  status: ('A' for Active; 'I' for Inactive)
REMARK    1  A    between atoms: P_8  and  C_1 
REMARK    2  A    between atoms: P_9  and  C_1 
REMARK    3  A    between atoms: Tc_12  and  Tc_12 
ROOT
HETATM    1  O   UNK N   1      35.458  22.121  12.850  0.00  0.00    -0.411 OA
HETATM    2  H   UNK N   1      35.896  22.409  13.667  0.00  0.00     0.205 HD
HETATM    3  H   UNK N   1      34.491  22.051  12.818  0.00  0.00     0.205 HD
ENDROOT
TORSDOF 3
ENDMDL
MODEL 2
REMARK VINA RESULT:      -1.5     19.772     19.772
REMARK  3 active torsions:
REMARK  status: ('A' for Active; 'I' for Inactive)
REMARK    1  A    between atoms: P_8  and  C_1 
REMARK    2  A    between atoms: P_9  and  C_1 
REMARK    3  A    between atoms: Tc_12  and  Tc_12 
ROOT
HETATM    1  O   UNK N   1      20.609  20.611  -0.117  0.00  0.00    -0.411 OA
HETATM    2  H   UNK N   1      21.167  19.932   0.295  0.00  0.00     0.205 HD
HETATM    3  H   UNK N   1      20.981  21.202  -0.790  0.00  0.00     0.205 HD
ENDROOT
TORSDOF 3
ENDMDL
MODEL 3
REMARK VINA RESULT:      -1.4     10.371     10.371
REMARK  3 active torsions:
REMARK  status: ('A' for Active; 'I' for Inactive)
REMARK    1  A    between atoms: P_8  and  C_1 
REMARK    2  A    between atoms: P_9  and  C_1 
REMARK    3  A    between atoms: Tc_12  and  Tc_12 
ROOT
HETATM    1  O   UNK N   1      41.252  21.761  21.445  0.00  0.00    -0.411 OA
HETATM    2  H   UNK N   1      40.398  21.975  21.851  0.00  0.00     0.205 HD
HETATM    3  H   UNK N   1      41.283  21.258  20.616  0.00  0.00     0.205 HD
ENDROOT
TORSDOF 3
ENDMDL
MODEL 4
REMARK VINA RESULT:      -1.3     14.742     14.742
REMARK  3 active torsions:
REMARK  status: ('A' for Active; 'I' for Inactive)
REMARK    1  A    between atoms: P_8  and  C_1 
REMARK    2  A    between atoms: P_9  and  C_1 
REMARK    3  A    between atoms: Tc_12  and  Tc_12 
ROOT
HETATM    1  O   UNK N   1      47.532  19.043  20.730  0.00  0.00    -0.411 OA
HETATM    2  H   UNK N   1      48.089  18.365  21.141  0.00  0.00     0.205 HD
HETATM    3  H   UNK N   1      47.903  19.634  20.056  0.00  0.00     0.205 HD
ENDROOT
TORSDOF 3
ENDMDL
MODEL 5
REMARK VINA RESULT:      -1.3      5.089      5.089
REMARK  3 active torsions:
REMARK  status: ('A' for Active; 'I' for Inactive)
REMARK    1  A    between atoms: P_8  and  C_1 
REMARK    2  A    between atoms: P_9  and  C_1 
REMARK    3  A    between atoms: Tc_12  and  Tc_12 
ROOT
HETATM    1  O   UNK N   1      35.400  19.346   8.585  0.00  0.00    -0.411 OA
HETATM    2  H   UNK N   1      34.865  18.837   7.957  0.00  0.00     0.205 HD
HETATM    3  H   UNK N   1      35.299  19.200   9.539  0.00  0.00     0.205 HD
ENDROOT
TORSDOF 3
ENDMDL
MODEL 6
REMARK VINA RESULT:      -1.3     18.829     18.829
REMARK  3 active torsions:
REMARK  status: ('A' for Active; 'I' for Inactive)
REMARK    1  A    between atoms: P_8  and  C_1 
REMARK    2  A    between atoms: P_9  and  C_1 
REMARK    3  A    between atoms: Tc_12  and  Tc_12 
ROOT
HETATM    1  O   UNK N   1      17.989  26.179   7.114  0.00  0.00    -0.411 OA
HETATM    2  H   UNK N   1      17.332  25.574   6.737  0.00  0.00     0.205 HD
HETATM    3  H   UNK N   1      17.925  26.445   8.045  0.00  0.00     0.205 HD
ENDROOT
TORSDOF 3
ENDMDL
MODEL 7
REMARK VINA RESULT:      -1.3     19.931     19.931
REMARK  3 active torsions:
REMARK  status: ('A' for Active; 'I' for Inactive)
REMARK    1  A    between atoms: P_8  and  C_1 
REMARK    2  A    between atoms: P_9  and  C_1 
REMARK    3  A    between atoms: Tc_12  and  Tc_12 
ROOT
HETATM    1  O   UNK N   1      20.344  24.379   0.055  0.00  0.00    -0.411 OA
HETATM    2  H   UNK N   1      19.553  24.487  -0.497  0.00  0.00     0.205 HD
HETATM    3  H   UNK N   1      20.468  23.566   0.570  0.00  0.00     0.205 HD
ENDROOT
TORSDOF 3
ENDMDL
MODEL 8
REMARK VINA RESULT:      -1.3     16.556     16.556
REMARK  3 active torsions:
REMARK  status: ('A' for Active; 'I' for Inactive)
REMARK    1  A    between atoms: P_8  and  C_1 
REMARK    2  A    between atoms: P_9  and  C_1 
REMARK    3  A    between atoms: Tc_12  and  Tc_12 
ROOT
HETATM    1  O   UNK N   1      19.138  19.834  11.257  0.00  0.00    -0.411 OA
HETATM    2  H   UNK N   1      19.576  20.122  12.074  0.00  0.00     0.205 HD
HETATM    3  H   UNK N   1      18.171  19.764  11.225  0.00  0.00     0.205 HD
ENDROOT
TORSDOF 3
ENDMDL
MODEL 9
REMARK VINA RESULT:      -1.2     15.064     15.064
REMARK  3 active torsions:
REMARK  status: ('A' for Active; 'I' for Inactive)
REMARK    1  A    between atoms: P_8  and  C_1 
REMARK    2  A    between atoms: P_9  and  C_1 
REMARK    3  A    between atoms: Tc_12  and  Tc_12 
ROOT
HETATM    1  O   UNK N   1      32.865  21.100  -1.954  0.00  0.00    -0.411 OA
HETATM    2  H   UNK N   1      32.011  21.314  -1.547  0.00  0.00     0.205 HD
HETATM    3  H   UNK N   1      32.895  20.597  -2.782  0.00  0.00     0.205 HD
ENDROOT
TORSDOF 3
ENDMDL
