REMARK  4 active torsions:
REMARK  status: ('A' for Active; 'I' for Inactive)
REMARK    1  A    between atoms: C_1  and  O_2 
REMARK    2  A    between atoms: C_3  and  C_1 
REMARK    3  A    between atoms: C_20  and  C_3 
REMARK    4  A    between atoms: C_15  and  O_22 
ROOT
HETATM    1  C   UNK N   1      29.888 -19.875  -0.842  0.00  0.00     0.052 C 
HETATM    2  C   UNK N   1      29.806 -21.195  -0.201  0.00  0.00     0.172 C 
HETATM    3  C   UNK N   1      31.052 -21.864   0.210  0.00  0.00     0.061 C 
HETATM    4  C   UNK N   1      31.041 -19.193  -0.794  0.00  0.00    -0.006 C 
HETATM    5  C   UNK N   1      32.199 -19.650   0.079  0.00  0.00     0.039 C 
HETATM    6  C   UNK N   1      32.215 -21.183   0.223  0.00  0.00    -0.027 C 
HETATM    7  C   UNK N   1      33.466 -21.922   0.669  0.00  0.00     0.201 C 
HETATM    8  C   UNK N   1      34.783 -21.205   0.337  0.00  0.00     0.050 C 
HETATM    9  C   UNK N   1      33.577 -19.142  -0.449  0.00  0.00     0.147 C 
HETATM   10  C   UNK N   1      34.686 -19.695   0.508  0.00  0.00     0.037 C 
HETATM   11  C   UNK N   1      34.430 -16.935   0.585  0.00  0.00     0.045 C 
HETATM   12  C   UNK N   1      33.725 -17.601  -0.585  0.00  0.00     0.160 C 
HETATM   13  C   UNK N   1      35.892 -17.429   0.610  0.00  0.00    -0.027 C 
HETATM   14  C   UNK N   1      36.035 -18.965   0.349  0.00  0.00     0.002 C 
HETATM   15  C   UNK N   1      36.672 -19.094  -1.038  0.00  0.00     0.011 C 
HETATM   16  C   UNK N   1      37.552 -17.860  -1.177  0.00  0.00    -0.006 C 
HETATM   17  C   UNK N   1      36.638 -16.808  -0.575  0.00  0.00     0.070 C 
HETATM   18  C   UNK N   1      36.504 -17.053   1.955  0.00  0.00     0.016 C 
HETATM   19  C   UNK N   1      31.913 -19.063   1.464  0.00  0.00     0.028 C 
HETATM   20  C   UNK N   1      38.837 -18.032  -0.372  0.00  0.00     0.011 C 
HETATM   21  F   UNK N   1      33.767 -19.651  -1.727  0.00  0.00    -0.238 F 
HETATM   22  F   UNK N   1      33.517 -23.165   0.060  0.00  0.00    -0.245 F 
HETATM   23  O   UNK N   1      28.734 -21.775  -0.113  0.00  0.00    -0.289 OA
ENDROOT
BRANCH  17  24
HETATM   24  C   UNK N   1      37.116 -15.383  -0.485  0.00  0.00     0.155 C 
HETATM   25  O   UNK N   1      38.129 -15.106   0.136  0.00  0.00    -0.295 OA
BRANCH  24  26
HETATM   26  C   UNK N   1      36.345 -14.299  -1.160  0.00  0.00     0.242 C 
BRANCH  26  27
HETATM   27  O   UNK N   1      35.082 -14.181  -0.576  0.00  0.00    -0.394 OA
HETATM   28  H   UNK N   1      34.714 -13.380  -0.171  0.00  0.00     0.209 HD
ENDBRANCH  26  27
ENDBRANCH  24  26
ENDBRANCH  17  24
BRANCH  12  29
HETATM   29  O   UNK N   1      32.580 -16.922  -1.001  0.00  0.00    -0.392 OA
HETATM   30  H   UNK N   1      32.590 -15.996  -1.290  0.00  0.00     0.210 HD
ENDBRANCH  12  29
TORSDOF 4
