REMARK  4 active torsions:
REMARK  status: ('A' for Active; 'I' for Inactive)
REMARK    1  A    between atoms: C_24  and  C_37 
REMARK    2  A    between atoms: C_28  and  N_41 
REMARK    3  A    between atoms: C_30  and  C_35 
REMARK    4  A    between atoms: C_34  and  O_38 
ROOT
HETATM    1  C   UNK N   1      15.484   1.730   0.000  0.00  0.00     0.201 A 
HETATM    2  O   UNK N   1      16.198   1.317   0.000  0.00  0.00    -0.394 OA
HETATM    3  C   UNK N   1      16.913   1.730   0.000  0.00  0.00     0.193 A 
HETATM    4  C   UNK N   1      17.627   1.317   0.000  0.00  0.00     0.193 A 
HETATM    5  O   UNK N   1      18.342   1.730   0.000  0.00  0.00    -0.387 OA
HETATM    6  C   UNK N   1      19.056   1.317   0.000  0.00  0.00     0.193 A 
HETATM    7  C   UNK N   1      19.771   1.730   0.000  0.00  0.00     0.193 A 
HETATM    8  O   UNK N   1      20.485   1.317   0.000  0.00  0.00    -0.387 OA
HETATM    9  C   UNK N   1      21.200   1.730   0.000  0.00  0.00     0.193 A 
HETATM   10  C   UNK N   1      21.914   1.317   0.000  0.00  0.00     0.193 A 
HETATM   11  O   UNK N   1      22.629   1.730   0.000  0.00  0.00    -0.387 OA
HETATM   12  C   UNK N   1      23.343   1.317   0.000  0.00  0.00     0.193 A 
HETATM   13  C   UNK N   1      24.058   1.730   0.000  0.00  0.00     0.193 A 
HETATM   14  O   UNK N   1      24.772   1.317   0.000  0.00  0.00    -0.387 OA
HETATM   15  C   UNK N   1      25.487   1.730   0.000  0.00  0.00     0.193 A 
HETATM   16  C   UNK N   1      26.201   1.317   0.000  0.00  0.00     0.193 A 
HETATM   17  O   UNK N   1      26.916   1.730   0.000  0.00  0.00    -0.387 OA
HETATM   18  C   UNK N   1      27.630   1.317   0.000  0.00  0.00     0.193 A 
HETATM   19  C   UNK N   1      28.345   1.730   0.000  0.00  0.00     0.193 A 
HETATM   20  O   UNK N   1      29.059   1.317   0.000  0.00  0.00    -0.387 OA
HETATM   21  C   UNK N   1      29.773   1.730   0.000  0.00  0.00     0.193 A 
HETATM   22  C   UNK N   1      30.488   1.317   0.000  0.00  0.00     0.194 A 
HETATM   23  O   UNK N   1      31.202   1.730   0.000  0.00  0.00    -0.381 OA
HETATM   24  C   UNK N   1      31.917   1.317   0.000  0.00  0.00     0.152 A 
HETATM   25  C   UNK N   1      32.620   1.739   0.000  0.00  0.00     0.037 A 
HETATM   26  C   UNK N   1      33.280   1.280   0.000  0.00  0.00     0.044 A 
HETATM   27  C   UNK N   1      33.222   0.296   0.000  0.00  0.00     0.093 A 
HETATM   28  C   UNK N   1      33.868  -0.444   0.000  0.00  0.00     0.119 A 
HETATM   29  C   UNK N   1      33.688  -1.242   0.000  0.00  0.00     0.067 A 
HETATM   30  C   UNK N   1      32.893  -1.379   0.000  0.00  0.00    -0.046 A 
HETATM   31  C   UNK N   1      32.638  -2.168   0.000  0.00  0.00     0.011 A 
HETATM   32  C   UNK N   1      31.825  -2.314   0.000  0.00  0.00     0.040 A 
HETATM   33  C   UNK N   1      31.291  -1.670   0.000  0.00  0.00     0.099 A 
HETATM   34  C   UNK N   1      31.559  -0.859   0.000  0.00  0.00     0.110 A 
HETATM   35  C   UNK N   1      32.370  -0.734   0.000  0.00  0.00    -0.001 A 
HETATM   36  C   UNK N   1      32.672   0.093   0.000  0.00  0.00     0.054 A 
HETATM   37  C   UNK N   1      31.902   0.476   0.000  0.00  0.00     0.174 A 
HETATM   38  O   UNK N   1      31.273  -0.071   0.000  0.00  0.00    -0.339 OA
HETATM   39  C   UNK N   1      33.433   0.796   0.000  0.00  0.00     0.040 A 
HETATM   40  C   UNK N   1      34.330   0.751   0.000  0.00  0.00     0.119 A 
HETATM   41  N   UNK N   1      34.556  -0.034   0.000  0.00  0.00    -0.402 N 
HETATM   42  C   UNK N   1      35.323  -0.338   0.000  0.00  0.00     0.144 A 
HETATM   43  C   UNK N   1      35.970   0.175   0.000  0.00  0.00    -0.018 A 
HETATM   44  C   UNK N   1      35.849   0.991   0.000  0.00  0.00     0.008 A 
HETATM   45  O   UNK N   1      30.480  -1.822   0.000  0.00  0.00    -0.358 OA
HETATM   46  O   UNK N   1      34.003   0.563   0.000  0.00  0.00    -0.386 OA
HETATM   47  H   UNK N   1      29.869  -1.112   0.000  0.00  0.00     0.217 HD
HETATM   48  H   UNK N   1      34.733  -0.075   0.000  0.00  0.00     0.210 HD
ENDROOT
TORSDOF 4
