MODEL 1
REMARK VINA RESULT:      -6.6      0.000      0.000
REMARK  4 active torsions:
REMARK  status: ('A' for Active; 'I' for Inactive)
REMARK    1  A    between atoms: C_16  and  C_14 
REMARK    2  A    between atoms: C_21  and  C_14 
REMARK    3  A    between atoms: C_16  and  C_15 
REMARK    4  A    between atoms: N_22  and  C_15 
ROOT
HETATM    1  C   UNK N   1      35.380   8.547  12.795  0.00  0.00     0.001 A 
HETATM    2  C   UNK N   1      35.243  13.687  18.702  0.00  0.00     0.001 A 
HETATM    3  C   UNK N   1      36.028   7.808  13.782  0.00  0.00     0.001 A 
HETATM    4  C   UNK N   1      35.310  12.549  19.497  0.00  0.00     0.001 A 
HETATM    5  C   UNK N   1      34.652   9.685  13.144  0.00  0.00     0.007 A 
HETATM    6  C   UNK N   1      35.121  13.561  17.321  0.00  0.00     0.007 A 
HETATM    7  C   UNK N   1      35.932   8.197  15.118  0.00  0.00     0.008 A 
HETATM    8  C   UNK N   1      35.261  11.284  18.910  0.00  0.00     0.008 A 
HETATM    9  C   UNK N   1      33.838  11.335  14.794  0.00  0.00     0.043 C 
HETATM   10  C   UNK N   1      34.924  12.288  15.234  0.00  0.00     0.043 C 
HETATM   11  C   UNK N   1      34.552  10.078  14.482  0.00  0.00    -0.051 A 
HETATM   12  C   UNK N   1      35.074  12.299  16.713  0.00  0.00    -0.051 A 
HETATM   13  C   UNK N   1      35.191   9.334  15.497  0.00  0.00    -0.043 A 
HETATM   14  C   UNK N   1      35.158  11.122  17.516  0.00  0.00    -0.043 A 
HETATM   15  C   UNK N   1      35.054   9.683  16.979  0.00  0.00     0.053 C 
ENDROOT
BRANCH  15  16
HETATM   16  C   UNK N   1      35.719   8.640  17.906  0.00  0.00     0.020 C 
BRANCH  16  17
HETATM   17  C   UNK N   1      34.727   7.708  18.612  0.00  0.00     0.011 C 
HETATM   18  C   UNK N   1      34.850   6.289  18.096  0.00  0.00     0.011 C 
BRANCH  17  19
HETATM   19  C   UNK N   1      34.856   7.719  20.135  0.00  0.00     0.275 C 
BRANCH  19  20
HETATM   20  N   UNK N   1      33.606   8.110  20.771  0.00  0.00     0.080 N 
HETATM   21  C   UNK N   1      32.722   8.569  19.715  0.00  0.00     0.309 C 
HETATM   22  C   UNK N   1      33.875   9.261  21.616  0.00  0.00     0.309 C 
ENDBRANCH  19  20
ENDBRANCH  17  19
ENDBRANCH  16  17
ENDBRANCH  15  16
TORSDOF 4
ENDMDL
MODEL 2
REMARK VINA RESULT:      -6.5     25.031     27.908
REMARK  4 active torsions:
REMARK  status: ('A' for Active; 'I' for Inactive)
REMARK    1  A    between atoms: C_16  and  C_14 
REMARK    2  A    between atoms: C_21  and  C_14 
REMARK    3  A    between atoms: C_16  and  C_15 
REMARK    4  A    between atoms: N_22  and  C_15 
ROOT
HETATM    1  C   UNK N   1      25.711  21.056  -8.601  0.00  0.00     0.001 A 
HETATM    2  C   UNK N   1      31.261  22.898  -3.392  0.00  0.00     0.001 A 
HETATM    3  C   UNK N   1      24.945  21.721  -7.646  0.00  0.00     0.001 A 
HETATM    4  C   UNK N   1      30.396  23.934  -3.060  0.00  0.00     0.001 A 
HETATM    5  C   UNK N   1      27.100  21.183  -8.589  0.00  0.00     0.007 A 
HETATM    6  C   UNK N   1      30.961  22.062  -4.464  0.00  0.00     0.007 A 
HETATM    7  C   UNK N   1      25.567  22.527  -6.693  0.00  0.00     0.008 A 
HETATM    8  C   UNK N   1      29.227  24.130  -3.796  0.00  0.00     0.008 A 
HETATM    9  C   UNK N   1      29.207  22.029  -7.611  0.00  0.00     0.043 C 
HETATM   10  C   UNK N   1      29.584  21.299  -6.344  0.00  0.00     0.043 C 
HETATM   11  C   UNK N   1      27.728  21.990  -7.635  0.00  0.00    -0.051 A 
HETATM   12  C   UNK N   1      29.790  22.240  -5.212  0.00  0.00    -0.051 A 
HETATM   13  C   UNK N   1      26.968  22.682  -6.669  0.00  0.00    -0.043 A 
HETATM   14  C   UNK N   1      28.884  23.290  -4.873  0.00  0.00    -0.043 A 
HETATM   15  C   UNK N   1      27.601  23.631  -5.652  0.00  0.00     0.053 C 
ENDROOT
BRANCH  15  16
HETATM   16  C   UNK N   1      26.556  24.384  -4.799  0.00  0.00     0.020 C 
BRANCH  16  17
HETATM   17  C   UNK N   1      26.448  25.880  -5.117  0.00  0.00     0.011 C 
HETATM   18  C   UNK N   1      25.159  26.191  -5.849  0.00  0.00     0.011 C 
BRANCH  17  19
HETATM   19  C   UNK N   1      26.575  26.777  -3.886  0.00  0.00     0.275 C 
BRANCH  19  20
HETATM   20  N   UNK N   1      27.111  28.085  -4.235  0.00  0.00     0.080 N 
HETATM   21  C   UNK N   1      28.406  28.195  -3.589  0.00  0.00     0.309 C 
HETATM   22  C   UNK N   1      26.258  29.094  -3.628  0.00  0.00     0.309 C 
ENDBRANCH  19  20
ENDBRANCH  17  19
ENDBRANCH  16  17
ENDBRANCH  15  16
TORSDOF 4
ENDMDL
MODEL 3
REMARK VINA RESULT:      -6.5      2.871      5.601
REMARK  4 active torsions:
REMARK  status: ('A' for Active; 'I' for Inactive)
REMARK    1  A    between atoms: C_16  and  C_14 
REMARK    2  A    between atoms: C_21  and  C_14 
REMARK    3  A    between atoms: C_16  and  C_15 
REMARK    4  A    between atoms: N_22  and  C_15 
ROOT
HETATM    1  C   UNK N   1      35.598   8.093  13.434  0.00  0.00     0.001 A 
HETATM    2  C   UNK N   1      35.110  12.275  20.038  0.00  0.00     0.001 A 
HETATM    3  C   UNK N   1      34.913   9.214  12.969  0.00  0.00     0.001 A 
HETATM    4  C   UNK N   1      35.034  13.358  19.170  0.00  0.00     0.001 A 
HETATM    5  C   UNK N   1      36.253   8.141  14.665  0.00  0.00     0.007 A 
HETATM    6  C   UNK N   1      35.334  10.997  19.532  0.00  0.00     0.007 A 
HETATM    7  C   UNK N   1      34.899  10.384  13.726  0.00  0.00     0.008 A 
HETATM    8  C   UNK N   1      35.176  13.162  17.795  0.00  0.00     0.008 A 
HETATM    9  C   UNK N   1      36.880   9.290  16.761  0.00  0.00     0.043 C 
HETATM   10  C   UNK N   1      35.728   9.378  17.734  0.00  0.00     0.043 C 
HETATM   11  C   UNK N   1      36.242   9.313  15.427  0.00  0.00    -0.051 A 
HETATM   12  C   UNK N   1      35.475  10.780  18.155  0.00  0.00    -0.051 A 
HETATM   13  C   UNK N   1      35.564  10.462  14.966  0.00  0.00    -0.043 A 
HETATM   14  C   UNK N   1      35.383  11.881  17.251  0.00  0.00    -0.043 A 
HETATM   15  C   UNK N   1      35.583  11.787  15.728  0.00  0.00     0.053 C 
ENDROOT
BRANCH  15  16
HETATM   16  C   UNK N   1      34.898  12.936  14.954  0.00  0.00     0.020 C 
BRANCH  16  17
HETATM   17  C   UNK N   1      35.875  13.942  14.333  0.00  0.00     0.011 C 
HETATM   18  C   UNK N   1      37.186  13.968  15.092  0.00  0.00     0.011 C 
BRANCH  17  19
HETATM   19  C   UNK N   1      36.140  13.700  12.848  0.00  0.00     0.275 C 
BRANCH  19  20
HETATM   20  N   UNK N   1      34.920  13.824  12.064  0.00  0.00     0.080 N 
HETATM   21  C   UNK N   1      35.005  12.846  10.995  0.00  0.00     0.309 C 
HETATM   22  C   UNK N   1      34.927  15.132  11.430  0.00  0.00     0.309 C 
ENDBRANCH  19  20
ENDBRANCH  17  19
ENDBRANCH  16  17
ENDBRANCH  15  16
TORSDOF 4
ENDMDL
MODEL 4
REMARK VINA RESULT:      -6.4      3.407      6.119
REMARK  4 active torsions:
REMARK  status: ('A' for Active; 'I' for Inactive)
REMARK    1  A    between atoms: C_16  and  C_14 
REMARK    2  A    between atoms: C_21  and  C_14 
REMARK    3  A    between atoms: C_16  and  C_15 
REMARK    4  A    between atoms: N_22  and  C_15 
ROOT
HETATM    1  C   UNK N   1      35.344   7.846  13.048  0.00  0.00     0.001 A 
HETATM    2  C   UNK N   1      35.245  12.659  19.224  0.00  0.00     0.001 A 
HETATM    3  C   UNK N   1      34.676   8.939  12.500  0.00  0.00     0.001 A 
HETATM    4  C   UNK N   1      35.168  13.656  18.257  0.00  0.00     0.001 A 
HETATM    5  C   UNK N   1      36.048   7.990  14.244  0.00  0.00     0.007 A 
HETATM    6  C   UNK N   1      35.409  11.332  18.838  0.00  0.00     0.007 A 
HETATM    7  C   UNK N   1      34.728  10.177  13.139  0.00  0.00     0.008 A 
HETATM    8  C   UNK N   1      35.250  13.324  16.905  0.00  0.00     0.008 A 
HETATM    9  C   UNK N   1      36.793   9.314  16.193  0.00  0.00     0.043 C 
HETATM   10  C   UNK N   1      35.683   9.534  17.194  0.00  0.00     0.043 C 
HETATM   11  C   UNK N   1      36.103   9.229  14.887  0.00  0.00    -0.051 A 
HETATM   12  C   UNK N   1      35.489  10.979  17.485  0.00  0.00    -0.051 A 
HETATM   13  C   UNK N   1      35.444  10.351  14.340  0.00  0.00    -0.043 A 
HETATM   14  C   UNK N   1      35.396  11.990  16.481  0.00  0.00    -0.043 A 
HETATM   15  C   UNK N   1      35.533  11.742  14.968  0.00  0.00     0.053 C 
ENDROOT
BRANCH  15  16
HETATM   16  C   UNK N   1      34.854  12.833  14.111  0.00  0.00     0.020 C 
BRANCH  16  17
HETATM   17  C   UNK N   1      35.831  13.679  13.285  0.00  0.00     0.011 C 
HETATM   18  C   UNK N   1      37.127  12.933  13.042  0.00  0.00     0.011 C 
BRANCH  17  19
HETATM   19  C   UNK N   1      35.251  14.158  11.955  0.00  0.00     0.275 C 
BRANCH  19  20
HETATM   20  N   UNK N   1      36.118  15.140  11.320  0.00  0.00     0.080 N 
HETATM   21  C   UNK N   1      35.333  16.349  11.151  0.00  0.00     0.309 C 
HETATM   22  C   UNK N   1      36.433  14.661   9.984  0.00  0.00     0.309 C 
ENDBRANCH  19  20
ENDBRANCH  17  19
ENDBRANCH  16  17
ENDBRANCH  15  16
TORSDOF 4
ENDMDL
MODEL 5
REMARK VINA RESULT:      -6.4     10.818     13.312
REMARK  4 active torsions:
REMARK  status: ('A' for Active; 'I' for Inactive)
REMARK    1  A    between atoms: C_16  and  C_14 
REMARK    2  A    between atoms: C_21  and  C_14 
REMARK    3  A    between atoms: C_16  and  C_15 
REMARK    4  A    between atoms: N_22  and  C_15 
ROOT
HETATM    1  C   UNK N   1      32.050  16.389   2.681  0.00  0.00     0.001 A 
HETATM    2  C   UNK N   1      28.344  18.306   9.308  0.00  0.00     0.001 A 
HETATM    3  C   UNK N   1      33.049  17.119   3.322  0.00  0.00     0.001 A 
HETATM    4  C   UNK N   1      29.630  18.375   9.832  0.00  0.00     0.001 A 
HETATM    5  C   UNK N   1      30.950  15.931   3.407  0.00  0.00     0.007 A 
HETATM    6  C   UNK N   1      28.152  17.869   8.001  0.00  0.00     0.007 A 
HETATM    7  C   UNK N   1      32.955  17.376   4.689  0.00  0.00     0.008 A 
HETATM    8  C   UNK N   1      30.724  18.012   9.045  0.00  0.00     0.008 A 
HETATM    9  C   UNK N   1      29.629  15.751   5.488  0.00  0.00     0.043 C 
HETATM   10  C   UNK N   1      28.909  17.036   5.823  0.00  0.00     0.043 C 
HETATM   11  C   UNK N   1      30.852  16.185   4.778  0.00  0.00    -0.051 A 
HETATM   12  C   UNK N   1      29.238  17.504   7.195  0.00  0.00    -0.051 A 
HETATM   13  C   UNK N   1      31.860  16.912   5.446  0.00  0.00    -0.043 A 
HETATM   14  C   UNK N   1      30.565  17.585   7.714  0.00  0.00    -0.043 A 
HETATM   15  C   UNK N   1      31.834  17.154   6.955  0.00  0.00     0.053 C 
ENDROOT
BRANCH  15  16
HETATM   16  C   UNK N   1      33.115  17.842   7.477  0.00  0.00     0.020 C 
BRANCH  16  17
HETATM   17  C   UNK N   1      34.183  16.869   7.993  0.00  0.00     0.011 C 
HETATM   18  C   UNK N   1      34.586  17.206   9.414  0.00  0.00     0.011 C 
BRANCH  17  19
HETATM   19  C   UNK N   1      33.765  15.402   7.907  0.00  0.00     0.275 C 
BRANCH  19  20
HETATM   20  N   UNK N   1      34.484  14.707   6.849  0.00  0.00     0.080 N 
HETATM   21  C   UNK N   1      33.567  13.730   6.289  0.00  0.00     0.309 C 
HETATM   22  C   UNK N   1      35.566  13.955   7.463  0.00  0.00     0.309 C 
ENDBRANCH  19  20
ENDBRANCH  17  19
ENDBRANCH  16  17
ENDBRANCH  15  16
TORSDOF 4
ENDMDL
MODEL 6
REMARK VINA RESULT:      -6.3     12.806     15.789
REMARK  4 active torsions:
REMARK  status: ('A' for Active; 'I' for Inactive)
REMARK    1  A    between atoms: C_16  and  C_14 
REMARK    2  A    between atoms: C_21  and  C_14 
REMARK    3  A    between atoms: C_16  and  C_15 
REMARK    4  A    between atoms: N_22  and  C_15 
ROOT
HETATM    1  C   UNK N   1      26.831  21.317   6.245  0.00  0.00     0.001 A 
HETATM    2  C   UNK N   1      31.972  15.691   8.044  0.00  0.00     0.001 A 
HETATM    3  C   UNK N   1      27.220  20.919   4.968  0.00  0.00     0.001 A 
HETATM    4  C   UNK N   1      31.638  15.191   6.791  0.00  0.00     0.001 A 
HETATM    5  C   UNK N   1      27.116  20.506   7.343  0.00  0.00     0.007 A 
HETATM    6  C   UNK N   1      31.299  16.799   8.550  0.00  0.00     0.007 A 
HETATM    7  C   UNK N   1      27.877  19.702   4.789  0.00  0.00     0.008 A 
HETATM    8  C   UNK N   1      30.633  15.804   6.040  0.00  0.00     0.008 A 
HETATM    9  C   UNK N   1      28.126  18.497   8.370  0.00  0.00     0.043 C 
HETATM   10  C   UNK N   1      29.631  18.594   8.458  0.00  0.00     0.043 C 
HETATM   11  C   UNK N   1      27.773  19.285   7.169  0.00  0.00    -0.051 A 
HETATM   12  C   UNK N   1      30.291  17.431   7.809  0.00  0.00    -0.051 A 
HETATM   13  C   UNK N   1      28.163  18.858   5.881  0.00  0.00    -0.043 A 
HETATM   14  C   UNK N   1      29.948  16.939   6.514  0.00  0.00    -0.043 A 
HETATM   15  C   UNK N   1      28.820  17.501   5.630  0.00  0.00     0.053 C 
ENDROOT
BRANCH  15  16
HETATM   16  C   UNK N   1      29.018  17.197   4.128  0.00  0.00     0.020 C 
BRANCH  16  17
HETATM   17  C   UNK N   1      27.903  16.344   3.510  0.00  0.00     0.011 C 
HETATM   18  C   UNK N   1      28.470  15.322   2.546  0.00  0.00     0.011 C 
BRANCH  17  19
HETATM   19  C   UNK N   1      27.021  15.648   4.545  0.00  0.00     0.275 C 
BRANCH  19  20
HETATM   20  N   UNK N   1      25.612  15.742   4.191  0.00  0.00     0.080 N 
HETATM   21  C   UNK N   1      25.384  17.099   3.727  0.00  0.00     0.309 C 
HETATM   22  C   UNK N   1      24.833  15.585   5.408  0.00  0.00     0.309 C 
ENDBRANCH  19  20
ENDBRANCH  17  19
ENDBRANCH  16  17
ENDBRANCH  15  16
TORSDOF 4
ENDMDL
MODEL 7
REMARK VINA RESULT:      -6.1     12.575     15.696
REMARK  4 active torsions:
REMARK  status: ('A' for Active; 'I' for Inactive)
REMARK    1  A    between atoms: C_16  and  C_14 
REMARK    2  A    between atoms: C_21  and  C_14 
REMARK    3  A    between atoms: C_16  and  C_15 
REMARK    4  A    between atoms: N_22  and  C_15 
ROOT
HETATM    1  C   UNK N   1      26.830  21.326   6.240  0.00  0.00     0.001 A 
HETATM    2  C   UNK N   1      32.002  15.745   8.094  0.00  0.00     0.001 A 
HETATM    3  C   UNK N   1      27.206  20.903   4.967  0.00  0.00     0.001 A 
HETATM    4  C   UNK N   1      31.655  15.220   6.854  0.00  0.00     0.001 A 
HETATM    5  C   UNK N   1      27.129  20.536   7.351  0.00  0.00     0.007 A 
HETATM    6  C   UNK N   1      31.332  16.862   8.585  0.00  0.00     0.007 A 
HETATM    7  C   UNK N   1      27.863  19.683   4.805  0.00  0.00     0.008 A 
HETATM    8  C   UNK N   1      30.641  15.817   6.103  0.00  0.00     0.008 A 
HETATM    9  C   UNK N   1      28.154  18.551   8.407  0.00  0.00     0.043 C 
HETATM   10  C   UNK N   1      29.660  18.652   8.476  0.00  0.00     0.043 C 
HETATM   11  C   UNK N   1      27.787  19.313   7.193  0.00  0.00    -0.051 A 
HETATM   12  C   UNK N   1      30.315  17.477   7.843  0.00  0.00    -0.051 A 
HETATM   13  C   UNK N   1      28.163  18.862   5.911  0.00  0.00    -0.043 A 
HETATM   14  C   UNK N   1      29.959  16.959   6.562  0.00  0.00    -0.043 A 
HETATM   15  C   UNK N   1      28.821  17.501   5.679  0.00  0.00     0.053 C 
ENDROOT
BRANCH  15  16
HETATM   16  C   UNK N   1      29.003  17.168   4.182  0.00  0.00     0.020 C 
BRANCH  16  17
HETATM   17  C   UNK N   1      28.074  16.060   3.669  0.00  0.00     0.011 C 
HETATM   18  C   UNK N   1      26.719  16.618   3.287  0.00  0.00     0.011 C 
BRANCH  17  19
HETATM   19  C   UNK N   1      28.657  15.266   2.500  0.00  0.00     0.275 C 
BRANCH  19  20
HETATM   20  N   UNK N   1      28.747  13.848   2.815  0.00  0.00     0.080 N 
HETATM   21  C   UNK N   1      28.353  13.699   4.204  0.00  0.00     0.309 C 
HETATM   22  C   UNK N   1      30.145  13.460   2.736  0.00  0.00     0.309 C 
ENDBRANCH  19  20
ENDBRANCH  17  19
ENDBRANCH  16  17
ENDBRANCH  15  16
TORSDOF 4
ENDMDL
MODEL 8
REMARK VINA RESULT:      -6.1     25.310     28.067
REMARK  4 active torsions:
REMARK  status: ('A' for Active; 'I' for Inactive)
REMARK    1  A    between atoms: C_16  and  C_14 
REMARK    2  A    between atoms: C_21  and  C_14 
REMARK    3  A    between atoms: C_16  and  C_15 
REMARK    4  A    between atoms: N_22  and  C_15 
ROOT
HETATM    1  C   UNK N   1      30.823  23.426  -3.243  0.00  0.00     0.001 A 
HETATM    2  C   UNK N   1      27.441  30.487  -3.435  0.00  0.00     0.001 A 
HETATM    3  C   UNK N   1      29.493  23.071  -3.023  0.00  0.00     0.001 A 
HETATM    4  C   UNK N   1      26.313  29.772  -3.818  0.00  0.00     0.001 A 
HETATM    5  C   UNK N   1      31.131  24.695  -3.736  0.00  0.00     0.007 A 
HETATM    6  C   UNK N   1      28.658  29.830  -3.279  0.00  0.00     0.007 A 
HETATM    7  C   UNK N   1      28.474  23.978  -3.313  0.00  0.00     0.008 A 
HETATM    8  C   UNK N   1      26.400  28.397  -4.039  0.00  0.00     0.008 A 
HETATM    9  C   UNK N   1      30.491  26.966  -4.471  0.00  0.00     0.043 C 
HETATM   10  C   UNK N   1      30.117  27.859  -3.312  0.00  0.00     0.043 C 
HETATM   11  C   UNK N   1      30.112  25.606  -4.029  0.00  0.00    -0.051 A 
HETATM   12  C   UNK N   1      28.765  28.449  -3.492  0.00  0.00    -0.051 A 
HETATM   13  C   UNK N   1      28.760  25.259  -3.825  0.00  0.00    -0.043 A 
HETATM   14  C   UNK N   1      27.611  27.699  -3.871  0.00  0.00    -0.043 A 
HETATM   15  C   UNK N   1      27.608  26.194  -4.195  0.00  0.00     0.053 C 
ENDROOT
BRANCH  15  16
HETATM   16  C   UNK N   1      26.220  25.538  -4.019  0.00  0.00     0.020 C 
BRANCH  16  17
HETATM   17  C   UNK N   1      25.597  25.031  -5.326  0.00  0.00     0.011 C 
HETATM   18  C   UNK N   1      26.020  25.888  -6.501  0.00  0.00     0.011 C 
BRANCH  17  19
HETATM   19  C   UNK N   1      25.902  23.562  -5.618  0.00  0.00     0.275 C 
BRANCH  19  20
HETATM   20  N   UNK N   1      26.507  23.397  -6.932  0.00  0.00     0.080 N 
HETATM   21  C   UNK N   1      25.703  22.421  -7.645  0.00  0.00     0.309 C 
HETATM   22  C   UNK N   1      27.818  22.799  -6.749  0.00  0.00     0.309 C 
ENDBRANCH  19  20
ENDBRANCH  17  19
ENDBRANCH  16  17
ENDBRANCH  15  16
TORSDOF 4
ENDMDL
MODEL 9
REMARK VINA RESULT:      -5.9      2.347      5.467
REMARK  4 active torsions:
REMARK  status: ('A' for Active; 'I' for Inactive)
REMARK    1  A    between atoms: C_16  and  C_14 
REMARK    2  A    between atoms: C_21  and  C_14 
REMARK    3  A    between atoms: C_16  and  C_15 
REMARK    4  A    between atoms: N_22  and  C_15 
ROOT
HETATM    1  C   UNK N   1      35.150  12.686  19.559  0.00  0.00     0.001 A 
HETATM    2  C   UNK N   1      34.246   9.606  12.416  0.00  0.00     0.001 A 
HETATM    3  C   UNK N   1      35.337  11.335  19.846  0.00  0.00     0.001 A 
HETATM    4  C   UNK N   1      35.048   8.587  12.917  0.00  0.00     0.001 A 
HETATM    5  C   UNK N   1      35.210  13.131  18.238  0.00  0.00     0.007 A 
HETATM    6  C   UNK N   1      33.996  10.735  13.191  0.00  0.00     0.007 A 
HETATM    7  C   UNK N   1      35.602  10.436  18.814  0.00  0.00     0.008 A 
HETATM    8  C   UNK N   1      35.596   8.695  14.196  0.00  0.00     0.008 A 
HETATM    9  C   UNK N   1      35.450  12.737  15.811  0.00  0.00     0.043 C 
HETATM   10  C   UNK N   1      34.213  12.115  15.206  0.00  0.00     0.043 C 
HETATM   11  C   UNK N   1      35.477  12.233  17.201  0.00  0.00    -0.051 A 
HETATM   12  C   UNK N   1      34.534  10.859  14.479  0.00  0.00    -0.051 A 
HETATM   13  C   UNK N   1      35.682  10.864  17.473  0.00  0.00    -0.043 A 
HETATM   14  C   UNK N   1      35.346   9.814  15.012  0.00  0.00    -0.043 A 
HETATM   15  C   UNK N   1      36.046   9.856  16.383  0.00  0.00     0.053 C 
ENDROOT
BRANCH  15  16
HETATM   16  C   UNK N   1      36.367   8.452  16.944  0.00  0.00     0.020 C 
BRANCH  16  17
HETATM   17  C   UNK N   1      37.863   8.189  17.153  0.00  0.00     0.011 C 
HETATM   18  C   UNK N   1      38.144   7.731  18.570  0.00  0.00     0.011 C 
BRANCH  17  19
HETATM   19  C   UNK N   1      38.452   7.188  16.159  0.00  0.00     0.275 C 
BRANCH  19  20
HETATM   20  N   UNK N   1      38.757   7.823  14.885  0.00  0.00     0.080 N 
HETATM   21  C   UNK N   1      39.236   6.778  13.998  0.00  0.00     0.309 C 
HETATM   22  C   UNK N   1      39.872   8.732  15.093  0.00  0.00     0.309 C 
ENDBRANCH  19  20
ENDBRANCH  17  19
ENDBRANCH  16  17
ENDBRANCH  15  16
TORSDOF 4
ENDMDL
