REMARK  4 active torsions:
REMARK  status: ('A' for Active; 'I' for Inactive)
REMARK    1  A    between atoms: C_5  and  C_10 
REMARK    2  A    between atoms: C_11  and  C_12 
REMARK    3  A    between atoms: C_12  and  C_13 
REMARK    4  A    between atoms: C_12  and  O_14 
ROOT
HETATM    1  C   UNK N   1      -2.930  -0.064   0.064  0.00  0.00     0.105 A 
HETATM    2  C   UNK N   1      -3.238  -1.365  -0.022  0.00  0.00     0.105 A 
HETATM    3  C   UNK N   1      -2.279  -2.350  -0.210  0.00  0.00     0.040 A 
HETATM    4  C   UNK N   1      -0.941  -1.937  -0.321  0.00  0.00     0.014 A 
HETATM    5  C   UNK N   1      -0.600  -0.569  -0.226  0.00  0.00    -0.034 A 
HETATM    6  C   UNK N   1      -1.613   0.397  -0.026  0.00  0.00     0.051 A 
HETATM    7  O   UNK N   1      -4.046   0.640   0.231  0.00  0.00    -0.323 OA
HETATM    8  C   UNK N   1      -5.130  -0.248   0.255  0.00  0.00     0.352 A 
HETATM    9  O   UNK N   1      -4.557  -1.512   0.093  0.00  0.00    -0.323 OA
ENDROOT
BRANCH   5  10
HETATM   10  C   UNK N   1       0.814  -0.211  -0.377  0.00  0.00     0.010 C 
HETATM   11  C   UNK N   1       1.352   0.971  -0.071  0.00  0.00     0.006 C 
BRANCH  11  12
HETATM   12  C   UNK N   1       2.812   1.204  -0.361  0.00  0.00     0.148 C 
BRANCH  12  13
HETATM   13  C   UNK N   1       3.877   0.193   0.164  0.00  0.00    -0.022 C 
HETATM   14  C   UNK N   1       4.647  -0.316  -1.037  0.00  0.00     0.017 C 
HETATM   15  C   UNK N   1       3.297  -1.016   0.883  0.00  0.00     0.017 C 
HETATM   16  C   UNK N   1       4.868   0.843   1.116  0.00  0.00     0.017 C 
ENDBRANCH  12  13
BRANCH  12  17
HETATM   17  O   UNK N   1       3.170   2.540  -0.157  0.00  0.00    -0.391 OA
HETATM   18  H   UNK N   1       4.097   2.789  -0.015  0.00  0.00     0.210 HD
ENDBRANCH  12  17
ENDBRANCH  11  12
ENDBRANCH   5  10
TORSDOF 4
