MODEL 1
REMARK VINA RESULT:      -6.6      0.000      0.000
REMARK  2 active torsions:
REMARK  status: ('A' for Active; 'I' for Inactive)
REMARK    1  A    between atoms: O_1  and  C_11 
REMARK    2  A    between atoms: N_5  and  N_7 
REMARK       I    between atoms: N_7  and  C_18 
REMARK       I    between atoms: N_8  and  C_18 
ROOT
HETATM    1  O   UNK N   1      34.389  13.549  11.815  0.00  0.00    -0.286 OA
HETATM    2  N   UNK N   1      32.981  16.304   8.172  0.00  0.00    -0.382 N 
HETATM    3  N   UNK N   1      36.370  15.505  12.452  0.00  0.00    -0.293 N 
ATOM      4  HN  UNK N   1      37.050  16.249  12.614  1.00  0.00     0.187 HD
HETATM    5  C   UNK N   1      34.728  16.913   9.592  0.00  0.00     0.001 A 
HETATM    6  C   UNK N   1      33.741  15.915   9.293  0.00  0.00     0.042 A 
HETATM    7  C   UNK N   1      34.558  17.979   8.587  0.00  0.00     0.171 A 
HETATM    8  C   UNK N   1      35.540  15.615  11.470  0.00  0.00     0.099 A 
HETATM    9  C   UNK N   1      35.599  16.820  10.605  0.00  0.00     0.047 A 
HETATM   10  C   UNK N   1      34.501  14.568  11.152  0.00  0.00     0.202 A 
HETATM   11  C   UNK N   1      33.594  14.789  10.002  0.00  0.00     0.087 A 
HETATM   12  C   UNK N   1      33.403  17.591   7.638  0.00  0.00     0.159 A 
HETATM   13  C   UNK N   1      31.907  15.527   7.609  0.00  0.00     0.150 C 
ENDROOT
BRANCH   3  14
HETATM   14  N   UNK N   1      36.362  14.412  13.284  0.00  0.00    -0.251 N 
HETATM   15  C   UNK N   1      36.757  14.500  14.572  0.00  0.00     0.332 C 
HETATM   16  O   UNK N   1      37.136  15.565  15.034  0.00  0.00    -0.246 OA
HETATM   17  N   UNK N   1      36.733  13.403  15.350  0.00  0.00    -0.351 N 
HETATM   18  H   UNK N   1      36.427  12.543  14.980  0.00  0.00     0.160 HD
HETATM   19  H   UNK N   1      37.019  13.460  16.290  0.00  0.00     0.160 HD
HETATM   20  H   UNK N   1      36.061  13.543  12.934  0.00  0.00     0.191 HD
ENDBRANCH   3  14
BRANCH   7  21
HETATM   21  O   UNK N   1      35.319  19.144   8.513  0.00  0.00    -0.389 OA
HETATM   22  H   UNK N   1      34.893  20.010   8.618  0.00  0.00     0.210 HD
ENDBRANCH   7  21
TORSDOF 2
ENDMDL
MODEL 2
REMARK VINA RESULT:      -6.3      1.878      5.935
REMARK  2 active torsions:
REMARK  status: ('A' for Active; 'I' for Inactive)
REMARK    1  A    between atoms: O_1  and  C_11 
REMARK    2  A    between atoms: N_5  and  N_7 
REMARK       I    between atoms: N_7  and  C_18 
REMARK       I    between atoms: N_8  and  C_18 
ROOT
HETATM    1  O   UNK N   1      33.864  14.503   9.266  0.00  0.00    -0.286 OA
HETATM    2  N   UNK N   1      35.700  12.302  13.091  0.00  0.00    -0.382 N 
HETATM    3  N   UNK N   1      34.869  16.977  10.281  0.00  0.00    -0.293 N 
ATOM      4  HN  UNK N   1      35.258  17.817  10.709  1.00  0.00     0.187 HD
HETATM    5  C   UNK N   1      35.899  14.603  12.762  0.00  0.00     0.001 A 
HETATM    6  C   UNK N   1      35.384  13.372  12.231  0.00  0.00     0.042 A 
HETATM    7  C   UNK N   1      36.572  14.258  14.029  0.00  0.00     0.171 A 
HETATM    8  C   UNK N   1      35.019  15.841  10.875  0.00  0.00     0.099 A 
HETATM    9  C   UNK N   1      35.755  15.792  12.164  0.00  0.00     0.047 A 
HETATM   10  C   UNK N   1      34.480  14.546  10.320  0.00  0.00     0.202 A 
HETATM   11  C   UNK N   1      34.706  13.295  11.079  0.00  0.00     0.087 A 
HETATM   12  C   UNK N   1      36.449  12.736  14.261  0.00  0.00     0.159 A 
HETATM   13  C   UNK N   1      35.329  10.931  12.852  0.00  0.00     0.150 C 
ENDROOT
BRANCH   3  14
HETATM   14  N   UNK N   1      34.197  17.083   9.087  0.00  0.00    -0.251 N 
HETATM   15  C   UNK N   1      34.412  18.114   8.244  0.00  0.00     0.332 C 
HETATM   16  O   UNK N   1      35.217  18.989   8.523  0.00  0.00    -0.246 OA
HETATM   17  N   UNK N   1      33.731  18.176   7.084  0.00  0.00    -0.351 N 
HETATM   18  H   UNK N   1      33.081  17.472   6.856  0.00  0.00     0.160 HD
HETATM   19  H   UNK N   1      33.882  18.926   6.465  0.00  0.00     0.160 HD
HETATM   20  H   UNK N   1      33.544  16.390   8.840  0.00  0.00     0.191 HD
ENDBRANCH   3  14
BRANCH   7  21
HETATM   21  O   UNK N   1      37.212  15.164  14.872  0.00  0.00    -0.389 OA
HETATM   22  H   UNK N   1      37.066  16.117  14.762  0.00  0.00     0.210 HD
ENDBRANCH   7  21
TORSDOF 2
ENDMDL
MODEL 3
REMARK VINA RESULT:      -6.0      3.117      5.068
REMARK  2 active torsions:
REMARK  status: ('A' for Active; 'I' for Inactive)
REMARK    1  A    between atoms: O_1  and  C_11 
REMARK    2  A    between atoms: N_5  and  N_7 
REMARK       I    between atoms: N_7  and  C_18 
REMARK       I    between atoms: N_8  and  C_18 
ROOT
HETATM    1  O   UNK N   1      35.049  17.002   7.247  0.00  0.00    -0.286 OA
HETATM    2  N   UNK N   1      31.367  17.061   4.200  0.00  0.00    -0.382 N 
HETATM    3  N   UNK N   1      33.185  17.049   9.410  0.00  0.00    -0.293 N 
ATOM      4  HN  UNK N   1      32.457  17.067  10.125  1.00  0.00     0.187 HD
HETATM    5  C   UNK N   1      31.071  17.078   6.515  0.00  0.00     0.001 A 
HETATM    6  C   UNK N   1      32.028  17.054   5.444  0.00  0.00     0.042 A 
HETATM    7  C   UNK N   1      29.740  17.102   5.879  0.00  0.00     0.171 A 
HETATM    8  C   UNK N   1      32.843  17.050   8.165  0.00  0.00     0.099 A 
HETATM    9  C   UNK N   1      31.402  17.078   7.811  0.00  0.00     0.047 A 
HETATM   10  C   UNK N   1      33.846  17.025   7.038  0.00  0.00     0.202 A 
HETATM   11  C   UNK N   1      33.352  17.028   5.642  0.00  0.00     0.087 A 
HETATM   12  C   UNK N   1      29.919  17.091   4.344  0.00  0.00     0.159 A 
HETATM   13  C   UNK N   1      32.035  17.042   2.925  0.00  0.00     0.150 C 
ENDROOT
BRANCH   3  14
HETATM   14  N   UNK N   1      34.503  17.025   9.796  0.00  0.00    -0.251 N 
HETATM   15  C   UNK N   1      34.981  16.068  10.619  0.00  0.00     0.332 C 
HETATM   16  O   UNK N   1      34.247  15.191  11.046  0.00  0.00    -0.246 OA
HETATM   17  N   UNK N   1      36.281  16.084  10.971  0.00  0.00    -0.351 N 
HETATM   18  H   UNK N   1      36.875  16.791  10.628  0.00  0.00     0.160 HD
HETATM   19  H   UNK N   1      36.636  15.390  11.571  0.00  0.00     0.160 HD
HETATM   20  H   UNK N   1      35.114  17.722   9.465  0.00  0.00     0.191 HD
ENDBRANCH   3  14
BRANCH   7  21
HETATM   21  O   UNK N   1      28.524  17.129   6.559  0.00  0.00    -0.389 OA
HETATM   22  H   UNK N   1      28.252  16.370   7.099  0.00  0.00     0.210 HD
ENDBRANCH   7  21
TORSDOF 2
ENDMDL
MODEL 4
REMARK VINA RESULT:      -5.9     10.894     14.915
REMARK  2 active torsions:
REMARK  status: ('A' for Active; 'I' for Inactive)
REMARK    1  A    between atoms: O_1  and  C_11 
REMARK    2  A    between atoms: N_5  and  N_7 
REMARK       I    between atoms: N_7  and  C_18 
REMARK       I    between atoms: N_8  and  C_18 
ROOT
HETATM    1  O   UNK N   1      23.821  21.251   2.482  0.00  0.00    -0.286 OA
HETATM    2  N   UNK N   1      26.995  18.586   4.865  0.00  0.00    -0.382 N 
HETATM    3  N   UNK N   1      21.776  19.423   3.280  0.00  0.00    -0.293 N 
ATOM      4  HN  UNK N   1      21.105  18.727   3.605  1.00  0.00     0.187 HD
HETATM    5  C   UNK N   1      24.728  18.042   4.774  0.00  0.00     0.001 A 
HETATM    6  C   UNK N   1      25.738  18.975   4.360  0.00  0.00     0.042 A 
HETATM    7  C   UNK N   1      25.416  17.018   5.584  0.00  0.00     0.171 A 
HETATM    8  C   UNK N   1      23.019  19.300   3.607  0.00  0.00     0.099 A 
HETATM    9  C   UNK N   1      23.434  18.149   4.447  0.00  0.00     0.047 A 
HETATM   10  C   UNK N   1      24.083  20.279   3.174  0.00  0.00     0.202 A 
HETATM   11  C   UNK N   1      25.481  20.049   3.603  0.00  0.00     0.087 A 
HETATM   12  C   UNK N   1      26.920  17.365   5.653  0.00  0.00     0.159 A 
HETATM   13  C   UNK N   1      28.220  19.306   4.634  0.00  0.00     0.150 C 
ENDROOT
BRANCH   3  14
HETATM   14  N   UNK N   1      21.334  20.468   2.505  0.00  0.00    -0.251 N 
HETATM   15  C   UNK N   1      20.823  20.268   1.272  0.00  0.00     0.332 C 
HETATM   16  O   UNK N   1      20.739  19.141   0.809  0.00  0.00    -0.246 OA
HETATM   17  N   UNK N   1      20.402  21.322   0.549  0.00  0.00    -0.351 N 
HETATM   18  H   UNK N   1      20.469  22.232   0.919  0.00  0.00     0.160 HD
HETATM   19  H   UNK N   1      20.029  21.184  -0.351  0.00  0.00     0.160 HD
HETATM   20  H   UNK N   1      21.392  21.385   2.857  0.00  0.00     0.191 HD
ENDBRANCH   3  14
BRANCH   7  21
HETATM   21  O   UNK N   1      24.803  15.921   6.184  0.00  0.00    -0.389 OA
HETATM   22  H   UNK N   1      25.135  15.582   7.030  0.00  0.00     0.210 HD
ENDBRANCH   7  21
TORSDOF 2
ENDMDL
MODEL 5
REMARK VINA RESULT:      -5.9      3.503      5.569
REMARK  2 active torsions:
REMARK  status: ('A' for Active; 'I' for Inactive)
REMARK    1  A    between atoms: O_1  and  C_11 
REMARK    2  A    between atoms: N_5  and  N_7 
REMARK       I    between atoms: N_7  and  C_18 
REMARK       I    between atoms: N_8  and  C_18 
ROOT
HETATM    1  O   UNK N   1      31.883  17.540   8.802  0.00  0.00    -0.286 OA
HETATM    2  N   UNK N   1      29.847  16.774   4.545  0.00  0.00    -0.382 N 
HETATM    3  N   UNK N   1      34.430  17.575   7.512  0.00  0.00    -0.293 N 
ATOM      4  HN  UNK N   1      35.300  17.574   6.979  1.00  0.00     0.187 HD
HETATM    5  C   UNK N   1      32.155  17.005   4.800  0.00  0.00     0.001 A 
HETATM    6  C   UNK N   1      30.886  16.991   5.472  0.00  0.00     0.042 A 
HETATM    7  C   UNK N   1      31.869  16.781   3.370  0.00  0.00     0.171 A 
HETATM    8  C   UNK N   1      33.313  17.394   6.892  0.00  0.00     0.099 A 
HETATM    9  C   UNK N   1      33.326  17.190   5.422  0.00  0.00     0.047 A 
HETATM   10  C   UNK N   1      31.977  17.379   7.595  0.00  0.00     0.202 A 
HETATM   11  C   UNK N   1      30.751  17.164   6.793  0.00  0.00     0.087 A 
HETATM   12  C   UNK N   1      30.343  16.626   3.185  0.00  0.00     0.159 A 
HETATM   13  C   UNK N   1      28.451  16.705   4.891  0.00  0.00     0.150 C 
ENDROOT
BRANCH   3  14
HETATM   14  N   UNK N   1      34.479  17.768   8.871  0.00  0.00    -0.251 N 
HETATM   15  C   UNK N   1      34.985  16.833   9.702  0.00  0.00     0.332 C 
HETATM   16  O   UNK N   1      35.417  15.779   9.261  0.00  0.00    -0.246 OA
HETATM   17  N   UNK N   1      35.012  17.067  11.027  0.00  0.00    -0.351 N 
HETATM   18  H   UNK N   1      34.663  17.916  11.385  0.00  0.00     0.160 HD
HETATM   19  H   UNK N   1      35.379  16.389  11.638  0.00  0.00     0.160 HD
HETATM   20  H   UNK N   1      34.136  18.610   9.249  0.00  0.00     0.191 HD
ENDBRANCH   3  14
BRANCH   7  21
HETATM   21  O   UNK N   1      32.825  16.721   2.359  0.00  0.00    -0.389 OA
HETATM   22  H   UNK N   1      32.853  17.409   1.675  0.00  0.00     0.210 HD
ENDBRANCH   7  21
TORSDOF 2
ENDMDL
MODEL 6
REMARK VINA RESULT:      -5.8      3.729      5.602
REMARK  2 active torsions:
REMARK  status: ('A' for Active; 'I' for Inactive)
REMARK    1  A    between atoms: O_1  and  C_11 
REMARK    2  A    between atoms: N_5  and  N_7 
REMARK       I    between atoms: N_7  and  C_18 
REMARK       I    between atoms: N_8  and  C_18 
ROOT
HETATM    1  O   UNK N   1      32.859  15.501   6.742  0.00  0.00    -0.286 OA
HETATM    2  N   UNK N   1      28.747  17.629   5.556  0.00  0.00    -0.382 N 
HETATM    3  N   UNK N   1      32.415  16.283   9.452  0.00  0.00    -0.293 N 
ATOM      4  HN  UNK N   1      32.184  16.598  10.395  1.00  0.00     0.187 HD
HETATM    5  C   UNK N   1      29.547  17.596   7.747  0.00  0.00     0.001 A 
HETATM    6  C   UNK N   1      29.793  17.191   6.391  0.00  0.00     0.042 A 
HETATM    7  C   UNK N   1      28.266  18.328   7.734  0.00  0.00     0.171 A 
HETATM    8  C   UNK N   1      31.608  16.557   8.483  0.00  0.00     0.099 A 
HETATM    9  C   UNK N   1      30.369  17.323   8.768  0.00  0.00     0.047 A 
HETATM   10  C   UNK N   1      31.863  16.134   7.057  0.00  0.00     0.202 A 
HETATM   11  C   UNK N   1      30.875  16.498   6.016  0.00  0.00     0.087 A 
HETATM   12  C   UNK N   1      27.723  18.359   6.289  0.00  0.00     0.159 A 
HETATM   13  C   UNK N   1      28.686  17.388   4.137  0.00  0.00     0.150 C 
ENDROOT
BRANCH   3  14
HETATM   14  N   UNK N   1      33.575  15.578   9.247  0.00  0.00    -0.251 N 
HETATM   15  C   UNK N   1      34.768  16.035   9.682  0.00  0.00     0.332 C 
HETATM   16  O   UNK N   1      34.846  17.100  10.275  0.00  0.00    -0.246 OA
HETATM   17  N   UNK N   1      35.879  15.310   9.459  0.00  0.00    -0.351 N 
HETATM   18  H   UNK N   1      35.819  14.450   8.981  0.00  0.00     0.160 HD
HETATM   19  H   UNK N   1      36.752  15.637   9.773  0.00  0.00     0.160 HD
HETATM   20  H   UNK N   1      33.537  14.717   8.772  0.00  0.00     0.191 HD
ENDBRANCH   3  14
BRANCH   7  21
HETATM   21  O   UNK N   1      27.653  18.897   8.849  0.00  0.00    -0.389 OA
HETATM   22  H   UNK N   1      26.685  18.935   8.905  0.00  0.00     0.210 HD
ENDBRANCH   7  21
TORSDOF 2
ENDMDL
MODEL 7
REMARK VINA RESULT:      -5.7     10.826     13.954
REMARK  2 active torsions:
REMARK  status: ('A' for Active; 'I' for Inactive)
REMARK    1  A    between atoms: O_1  and  C_11 
REMARK    2  A    between atoms: N_5  and  N_7 
REMARK       I    between atoms: N_7  and  C_18 
REMARK       I    between atoms: N_8  and  C_18 
ROOT
HETATM    1  O   UNK N   1      25.031  17.219   4.499  0.00  0.00    -0.286 OA
HETATM    2  N   UNK N   1      20.533  18.418   3.412  0.00  0.00    -0.382 N 
HETATM    3  N   UNK N   1      25.881  19.771   3.540  0.00  0.00    -0.293 N 
ATOM      4  HN  UNK N   1      26.104  20.700   3.180  1.00  0.00     0.187 HD
HETATM    5  C   UNK N   1      22.331  19.858   3.042  0.00  0.00     0.001 A 
HETATM    6  C   UNK N   1      21.929  18.568   3.530  0.00  0.00     0.042 A 
HETATM    7  C   UNK N   1      21.099  20.535   2.598  0.00  0.00     0.171 A 
HETATM    8  C   UNK N   1      24.652  19.378   3.545  0.00  0.00     0.099 A 
HETATM    9  C   UNK N   1      23.599  20.287   3.027  0.00  0.00     0.047 A 
HETATM   10  C   UNK N   1      24.225  18.023   4.057  0.00  0.00     0.202 A 
HETATM   11  C   UNK N   1      22.789  17.666   4.020  0.00  0.00     0.087 A 
HETATM   12  C   UNK N   1      19.897  19.593   2.836  0.00  0.00     0.159 A 
HETATM   13  C   UNK N   1      19.807  17.240   3.811  0.00  0.00     0.150 C 
ENDROOT
BRANCH   3  14
HETATM   14  N   UNK N   1      26.897  18.973   4.007  0.00  0.00    -0.251 N 
HETATM   15  C   UNK N   1      27.807  19.430   4.892  0.00  0.00     0.332 C 
HETATM   16  O   UNK N   1      27.750  20.577   5.305  0.00  0.00    -0.246 OA
HETATM   17  N   UNK N   1      28.785  18.610   5.321  0.00  0.00    -0.351 N 
HETATM   18  H   UNK N   1      28.833  17.684   4.990  0.00  0.00     0.160 HD
HETATM   19  H   UNK N   1      29.451  18.937   5.967  0.00  0.00     0.160 HD
HETATM   20  H   UNK N   1      26.962  18.044   3.687  0.00  0.00     0.191 HD
ENDBRANCH   3  14
BRANCH   7  21
HETATM   21  O   UNK N   1      21.036  21.816   2.053  0.00  0.00    -0.389 OA
HETATM   22  H   UNK N   1      20.254  22.093   1.550  0.00  0.00     0.210 HD
ENDBRANCH   7  21
TORSDOF 2
ENDMDL
MODEL 8
REMARK VINA RESULT:      -5.7      3.597      7.547
REMARK  2 active torsions:
REMARK  status: ('A' for Active; 'I' for Inactive)
REMARK    1  A    between atoms: O_1  and  C_11 
REMARK    2  A    between atoms: N_5  and  N_7 
REMARK       I    between atoms: N_7  and  C_18 
REMARK       I    between atoms: N_8  and  C_18 
ROOT
HETATM    1  O   UNK N   1      36.596  11.457  13.097  0.00  0.00    -0.286 OA
HETATM    2  N   UNK N   1      35.294  11.368  17.696  0.00  0.00    -0.382 N 
HETATM    3  N   UNK N   1      36.797  14.300  13.269  0.00  0.00    -0.293 N 
ATOM      4  HN  UNK N   1      36.846  15.309  13.411  1.00  0.00     0.187 HD
HETATM    5  C   UNK N   1      35.784  13.356  16.577  0.00  0.00     0.001 A 
HETATM    6  C   UNK N   1      35.690  11.927  16.464  0.00  0.00     0.042 A 
HETATM    7  C   UNK N   1      35.421  13.687  17.968  0.00  0.00     0.171 A 
HETATM    8  C   UNK N   1      36.453  13.542  14.256  0.00  0.00     0.099 A 
HETATM    9  C   UNK N   1      36.138  14.161  15.568  0.00  0.00     0.047 A 
HETATM   10  C   UNK N   1      36.353  12.041  14.142  0.00  0.00     0.202 A 
HETATM   11  C   UNK N   1      35.949  11.260  15.333  0.00  0.00     0.087 A 
HETATM   12  C   UNK N   1      35.094  12.380  18.723  0.00  0.00     0.159 A 
HETATM   13  C   UNK N   1      35.106   9.959  17.924  0.00  0.00     0.150 C 
ENDROOT
BRANCH   3  14
HETATM   14  N   UNK N   1      37.099  13.783  12.033  0.00  0.00    -0.251 N 
HETATM   15  C   UNK N   1      36.767  14.428  10.896  0.00  0.00     0.332 C 
HETATM   16  O   UNK N   1      36.184  15.500  10.936  0.00  0.00    -0.246 OA
HETATM   17  N   UNK N   1      37.084  13.883   9.706  0.00  0.00    -0.351 N 
HETATM   18  H   UNK N   1      37.555  13.018   9.671  0.00  0.00     0.160 HD
HETATM   19  H   UNK N   1      36.845  14.348   8.873  0.00  0.00     0.160 HD
HETATM   20  H   UNK N   1      37.570  12.920  11.975  0.00  0.00     0.191 HD
ENDBRANCH   3  14
BRANCH   7  21
HETATM   21  O   UNK N   1      35.383  14.972  18.505  0.00  0.00    -0.389 OA
HETATM   22  H   UNK N   1      36.209  15.453  18.673  0.00  0.00     0.210 HD
ENDBRANCH   7  21
TORSDOF 2
ENDMDL
MODEL 9
REMARK VINA RESULT:      -5.6      2.057      5.996
REMARK  2 active torsions:
REMARK  status: ('A' for Active; 'I' for Inactive)
REMARK    1  A    between atoms: O_1  and  C_11 
REMARK    2  A    between atoms: N_5  and  N_7 
REMARK       I    between atoms: N_7  and  C_18 
REMARK       I    between atoms: N_8  and  C_18 
ROOT
HETATM    1  O   UNK N   1      33.296  14.220   8.201  0.00  0.00    -0.286 OA
HETATM    2  N   UNK N   1      35.657  12.220  11.844  0.00  0.00    -0.382 N 
HETATM    3  N   UNK N   1      33.816  16.783   9.348  0.00  0.00    -0.293 N 
ATOM      4  HN  UNK N   1      34.042  17.659   9.820  1.00  0.00     0.187 HD
HETATM    5  C   UNK N   1      35.380  14.529  11.655  0.00  0.00     0.001 A 
HETATM    6  C   UNK N   1      35.106  13.251  11.059  0.00  0.00     0.042 A 
HETATM    7  C   UNK N   1      36.149  14.255  12.884  0.00  0.00     0.171 A 
HETATM    8  C   UNK N   1      34.210  15.670   9.867  0.00  0.00     0.099 A 
HETATM    9  C   UNK N   1      34.981  15.696  11.135  0.00  0.00     0.047 A 
HETATM   10  C   UNK N   1      33.924  14.325   9.243  0.00  0.00     0.202 A 
HETATM   11  C   UNK N   1      34.421  13.105   9.918  0.00  0.00     0.087 A 
HETATM   12  C   UNK N   1      36.341  12.728  13.024  0.00  0.00     0.159 A 
HETATM   13  C   UNK N   1      35.562  10.818  11.526  0.00  0.00     0.150 C 
ENDROOT
BRANCH   3  14
HETATM   14  N   UNK N   1      33.099  16.820   8.177  0.00  0.00    -0.251 N 
HETATM   15  C   UNK N   1      33.537  17.505   7.100  0.00  0.00     0.332 C 
HETATM   16  O   UNK N   1      34.592  18.117   7.140  0.00  0.00    -0.246 OA
HETATM   17  N   UNK N   1      32.800  17.513   5.973  0.00  0.00    -0.351 N 
HETATM   18  H   UNK N   1      31.948  17.020   5.938  0.00  0.00     0.160 HD
HETATM   19  H   UNK N   1      33.114  18.011   5.185  0.00  0.00     0.160 HD
HETATM   20  H   UNK N   1      32.245  16.334   8.121  0.00  0.00     0.191 HD
ENDBRANCH   3  14
BRANCH   7  21
HETATM   21  O   UNK N   1      36.621  15.221  13.770  0.00  0.00    -0.389 OA
HETATM   22  H   UNK N   1      36.908  14.965  14.661  0.00  0.00     0.210 HD
ENDBRANCH   7  21
TORSDOF 2
ENDMDL
