REMARK  10 active torsions:
REMARK  status: ('A' for Active; 'I' for Inactive)
REMARK    1  A    between atoms: C_2  and  C_3 
REMARK    2  A    between atoms: C_3  and  N_4 
REMARK    3  A    between atoms: C_5  and  C_6 
REMARK    4  A    between atoms: N_8  and  C_5 
REMARK    5  A    between atoms: C_6  and  O_7 
REMARK    6  A    between atoms: N_9  and  C_10 
REMARK    7  A    between atoms: C_10  and  C_11 
REMARK    8  A    between atoms: C_14  and  C_15 
REMARK    9  A    between atoms: C_15  and  N_16 
REMARK   10  A    between atoms: Gd_29  and  Gd_29 
ROOT
HETATM    1 Gd   UNK N   1      -0.013   0.413  -2.473  0.00  0.00     0.000 Gd
ENDROOT
TORSDOF 10
