MODEL 1
REMARK VINA RESULT:      -6.2      0.000      0.000
REMARK  4 active torsions:
REMARK  status: ('A' for Active; 'I' for Inactive)
REMARK    1  A    between atoms: C_10  and  C_9 
REMARK    2  A    between atoms: N_18  and  C_9 
REMARK    3  A    between atoms: N_18  and  C_12 
REMARK    4  A    between atoms: N_17  and  C_14 
ROOT
HETATM    1  C   UNK N   1      31.214  17.016   5.391  0.00  0.00     0.030 A 
HETATM    2  C   UNK N   1      33.548  17.045   5.998  0.00  0.00     0.040 A 
HETATM    3  C   UNK N   1      30.836  17.276   6.714  0.00  0.00    -0.001 A 
HETATM    4  C   UNK N   1      32.556  16.907   5.032  0.00  0.00     0.013 A 
HETATM    5  C   UNK N   1      33.204  17.309   7.325  0.00  0.00     0.039 A 
HETATM    6  C   UNK N   1      31.852  17.438   7.696  0.00  0.00     0.051 A 
HETATM    7 Br   UNK N   1      33.027  16.565   3.219  0.00  0.00    -0.051 Br
HETATM    8 Br   UNK N   1      34.607  17.478   8.616  0.00  0.00    -0.049 Br
ENDROOT
BRANCH   3   9
HETATM    9  C   UNK N   1      29.341  17.344   6.957  0.00  0.00     0.313 C 
BRANCH   9  10
HETATM   10  N   UNK N   1      28.775  18.627   7.380  0.00  0.00     0.093 N 
HETATM   11  C   UNK N   1      28.034  18.367   8.611  0.00  0.00     0.310 C 
BRANCH  10  12
HETATM   12  C   UNK N   1      27.765  19.034   6.389  0.00  0.00     0.223 C 
HETATM   13  C   UNK N   1      27.487  20.540   6.461  0.00  0.00     0.036 C 
HETATM   14  C   UNK N   1      26.325  20.895   5.534  0.00  0.00     0.002 C 
HETATM   15  C   UNK N   1      26.641  20.487   4.096  0.00  0.00     0.000 C 
HETATM   16  C   UNK N   1      26.980  18.999   4.020  0.00  0.00     0.002 C 
HETATM   17  C   UNK N   1      28.151  18.681   4.945  0.00  0.00     0.036 C 
ENDBRANCH  10  12
ENDBRANCH   9  10
ENDBRANCH   3   9
BRANCH   6  18
HETATM   18  N   UNK N   1      31.537  17.726   9.042  0.00  0.00    -0.398 N 
HETATM   19  H   UNK N   1      30.599  17.749   9.342  0.00  0.00     0.156 HD
HETATM   20  H   UNK N   1      32.260  17.905   9.686  0.00  0.00     0.156 HD
ENDBRANCH   6  18
TORSDOF 4
ENDMDL
MODEL 2
REMARK VINA RESULT:      -6.0     11.630     13.045
REMARK  4 active torsions:
REMARK  status: ('A' for Active; 'I' for Inactive)
REMARK    1  A    between atoms: C_10  and  C_9 
REMARK    2  A    between atoms: N_18  and  C_9 
REMARK    3  A    between atoms: N_18  and  C_12 
REMARK    4  A    between atoms: N_17  and  C_14 
ROOT
HETATM    1  C   UNK N   1      28.900  21.951  -6.546  0.00  0.00     0.030 A 
HETATM    2  C   UNK N   1      30.729  20.845  -5.427  0.00  0.00     0.040 A 
HETATM    3  C   UNK N   1      28.868  22.952  -5.569  0.00  0.00    -0.001 A 
HETATM    4  C   UNK N   1      29.823  20.909  -6.482  0.00  0.00     0.013 A 
HETATM    5  C   UNK N   1      30.727  21.831  -4.440  0.00  0.00     0.039 A 
HETATM    6  C   UNK N   1      29.809  22.897  -4.503  0.00  0.00     0.051 A 
HETATM    7 Br   UNK N   1      29.840  19.573  -7.840  0.00  0.00    -0.051 Br
HETATM    8 Br   UNK N   1      31.985  21.689  -3.005  0.00  0.00    -0.049 Br
ENDROOT
BRANCH   3   9
HETATM    9  C   UNK N   1      27.794  24.006  -5.757  0.00  0.00     0.313 C 
BRANCH   9  10
HETATM   10  N   UNK N   1      26.473  23.745  -5.181  0.00  0.00     0.093 N 
HETATM   11  C   UNK N   1      25.656  23.187  -6.254  0.00  0.00     0.310 C 
BRANCH  10  12
HETATM   12  C   UNK N   1      25.855  25.038  -4.844  0.00  0.00     0.223 C 
HETATM   13  C   UNK N   1      26.752  25.859  -3.909  0.00  0.00     0.036 C 
HETATM   14  C   UNK N   1      26.012  27.116  -3.455  0.00  0.00     0.002 C 
HETATM   15  C   UNK N   1      25.596  27.959  -4.659  0.00  0.00     0.000 C 
HETATM   16  C   UNK N   1      24.751  27.135  -5.630  0.00  0.00     0.002 C 
HETATM   17  C   UNK N   1      25.524  25.896  -6.074  0.00  0.00     0.036 C 
ENDBRANCH  10  12
ENDBRANCH   9  10
ENDBRANCH   3   9
BRANCH   6  18
HETATM   18  N   UNK N   1      29.845  23.891  -3.499  0.00  0.00    -0.398 N 
HETATM   19  H   UNK N   1      30.105  23.660  -2.578  0.00  0.00     0.156 HD
HETATM   20  H   UNK N   1      29.610  24.820  -3.723  0.00  0.00     0.156 HD
ENDBRANCH   6  18
TORSDOF 4
ENDMDL
MODEL 3
REMARK VINA RESULT:      -6.0      1.133      2.547
REMARK  4 active torsions:
REMARK  status: ('A' for Active; 'I' for Inactive)
REMARK    1  A    between atoms: C_10  and  C_9 
REMARK    2  A    between atoms: N_18  and  C_9 
REMARK    3  A    between atoms: N_18  and  C_12 
REMARK    4  A    between atoms: N_17  and  C_14 
ROOT
HETATM    1  C   UNK N   1      31.844  17.524   7.279  0.00  0.00     0.030 A 
HETATM    2  C   UNK N   1      33.605  17.078   5.692  0.00  0.00     0.040 A 
HETATM    3  C   UNK N   1      30.880  17.026   6.395  0.00  0.00    -0.001 A 
HETATM    4  C   UNK N   1      33.194  17.546   6.937  0.00  0.00     0.013 A 
HETATM    5  C   UNK N   1      32.668  16.571   4.790  0.00  0.00     0.039 A 
HETATM    6  C   UNK N   1      31.303  16.528   5.132  0.00  0.00     0.051 A 
HETATM    7 Br   UNK N   1      34.475  18.221   8.175  0.00  0.00    -0.051 Br
HETATM    8 Br   UNK N   1      33.284  15.951   3.087  0.00  0.00    -0.049 Br
ENDROOT
BRANCH   3   9
HETATM    9  C   UNK N   1      29.450  17.089   6.896  0.00  0.00     0.313 C 
BRANCH   9  10
HETATM   10  N   UNK N   1      28.950  18.379   7.377  0.00  0.00     0.093 N 
HETATM   11  C   UNK N   1      28.237  18.110   8.622  0.00  0.00     0.310 C 
BRANCH  10  12
HETATM   12  C   UNK N   1      27.928  18.857   6.431  0.00  0.00     0.223 C 
HETATM   13  C   UNK N   1      27.429  20.257   6.809  0.00  0.00     0.036 C 
HETATM   14  C   UNK N   1      26.261  20.650   5.905  0.00  0.00     0.002 C 
HETATM   15  C   UNK N   1      26.684  20.621   4.437  0.00  0.00     0.000 C 
HETATM   16  C   UNK N   1      27.241  19.248   4.063  0.00  0.00     0.002 C 
HETATM   17  C   UNK N   1      28.413  18.893   4.974  0.00  0.00     0.036 C 
ENDBRANCH  10  12
ENDBRANCH   9  10
ENDBRANCH   3   9
BRANCH   6  18
HETATM   18  N   UNK N   1      30.383  15.990   4.205  0.00  0.00    -0.398 N 
HETATM   19  H   UNK N   1      29.539  15.588   4.516  0.00  0.00     0.156 HD
HETATM   20  H   UNK N   1      30.586  16.018   3.243  0.00  0.00     0.156 HD
ENDBRANCH   6  18
TORSDOF 4
ENDMDL
MODEL 4
REMARK VINA RESULT:      -5.9     11.971     13.549
REMARK  4 active torsions:
REMARK  status: ('A' for Active; 'I' for Inactive)
REMARK    1  A    between atoms: C_10  and  C_9 
REMARK    2  A    between atoms: N_18  and  C_9 
REMARK    3  A    between atoms: N_18  and  C_12 
REMARK    4  A    between atoms: N_17  and  C_14 
ROOT
HETATM    1  C   UNK N   1      29.545  22.748  -4.731  0.00  0.00     0.030 A 
HETATM    2  C   UNK N   1      30.740  20.815  -5.539  0.00  0.00     0.040 A 
HETATM    3  C   UNK N   1      28.728  22.756  -5.868  0.00  0.00    -0.001 A 
HETATM    4  C   UNK N   1      30.538  21.786  -4.562  0.00  0.00     0.013 A 
HETATM    5  C   UNK N   1      29.938  20.792  -6.681  0.00  0.00     0.039 A 
HETATM    6  C   UNK N   1      28.921  21.750  -6.855  0.00  0.00     0.051 A 
HETATM    7 Br   UNK N   1      31.620  21.805  -2.995  0.00  0.00    -0.051 Br
HETATM    8 Br   UNK N   1      30.265  19.443  -7.999  0.00  0.00    -0.049 Br
ENDROOT
BRANCH   3   9
HETATM    9  C   UNK N   1      27.709  23.877  -5.924  0.00  0.00     0.313 C 
BRANCH   9  10
HETATM   10  N   UNK N   1      26.412  23.655  -5.280  0.00  0.00     0.093 N 
HETATM   11  C   UNK N   1      25.525  23.119  -6.307  0.00  0.00     0.310 C 
BRANCH  10  12
HETATM   12  C   UNK N   1      25.850  24.966  -4.915  0.00  0.00     0.223 C 
HETATM   13  C   UNK N   1      26.806  25.752  -4.010  0.00  0.00     0.036 C 
HETATM   14  C   UNK N   1      26.124  27.030  -3.524  0.00  0.00     0.002 C 
HETATM   15  C   UNK N   1      25.693  27.893  -4.709  0.00  0.00     0.000 C 
HETATM   16  C   UNK N   1      24.788  27.102  -5.652  0.00  0.00     0.002 C 
HETATM   17  C   UNK N   1      25.504  25.841  -6.129  0.00  0.00     0.036 C 
ENDBRANCH  10  12
ENDBRANCH   9  10
ENDBRANCH   3   9
BRANCH   6  18
HETATM   18  N   UNK N   1      28.113  21.687  -8.012  0.00  0.00    -0.398 N 
HETATM   19  H   UNK N   1      28.356  22.200  -8.817  0.00  0.00     0.156 HD
HETATM   20  H   UNK N   1      27.303  21.128  -8.013  0.00  0.00     0.156 HD
ENDBRANCH   6  18
TORSDOF 4
ENDMDL
MODEL 5
REMARK VINA RESULT:      -5.8     13.817     16.133
REMARK  4 active torsions:
REMARK  status: ('A' for Active; 'I' for Inactive)
REMARK    1  A    between atoms: C_10  and  C_9 
REMARK    2  A    between atoms: N_18  and  C_9 
REMARK    3  A    between atoms: N_18  and  C_12 
REMARK    4  A    between atoms: N_17  and  C_14 
ROOT
HETATM    1  C   UNK N   1      34.903  10.319  17.433  0.00  0.00     0.030 A 
HETATM    2  C   UNK N   1      35.064  12.554  16.543  0.00  0.00     0.040 A 
HETATM    3  C   UNK N   1      35.123  10.788  18.733  0.00  0.00    -0.001 A 
HETATM    4  C   UNK N   1      34.867  11.191  16.347  0.00  0.00     0.013 A 
HETATM    5  C   UNK N   1      35.281  13.055  17.828  0.00  0.00     0.039 A 
HETATM    6  C   UNK N   1      35.302  12.185  18.935  0.00  0.00     0.051 A 
HETATM    7 Br   UNK N   1      34.552  10.511  14.596  0.00  0.00    -0.051 Br
HETATM    8 Br   UNK N   1      35.558  14.936  18.040  0.00  0.00    -0.049 Br
ENDROOT
BRANCH   3   9
HETATM    9  C   UNK N   1      35.159   9.719  19.809  0.00  0.00     0.313 C 
BRANCH   9  10
HETATM   10  N   UNK N   1      34.018   9.630  20.722  0.00  0.00     0.093 N 
HETATM   11  C   UNK N   1      34.505   8.974  21.932  0.00  0.00     0.310 C 
BRANCH  10  12
HETATM   12  C   UNK N   1      33.033   8.705  20.139  0.00  0.00     0.223 C 
HETATM   13  C   UNK N   1      33.540   7.259  20.168  0.00  0.00     0.036 C 
HETATM   14  C   UNK N   1      32.566   6.355  19.412  0.00  0.00     0.002 C 
HETATM   15  C   UNK N   1      31.170   6.436  20.027  0.00  0.00     0.000 C 
HETATM   16  C   UNK N   1      30.677   7.882  20.061  0.00  0.00     0.002 C 
HETATM   17  C   UNK N   1      31.664   8.753  20.833  0.00  0.00     0.036 C 
ENDBRANCH  10  12
ENDBRANCH   9  10
ENDBRANCH   3   9
BRANCH   6  18
HETATM   18  N   UNK N   1      35.504  12.724  20.224  0.00  0.00    -0.398 N 
HETATM   19  H   UNK N   1      35.868  12.164  20.948  0.00  0.00     0.156 HD
HETATM   20  H   UNK N   1      35.280  13.666  20.400  0.00  0.00     0.156 HD
ENDBRANCH   6  18
TORSDOF 4
ENDMDL
MODEL 6
REMARK VINA RESULT:      -5.7      2.940      6.521
REMARK  4 active torsions:
REMARK  status: ('A' for Active; 'I' for Inactive)
REMARK    1  A    between atoms: C_10  and  C_9 
REMARK    2  A    between atoms: N_18  and  C_9 
REMARK    3  A    between atoms: N_18  and  C_12 
REMARK    4  A    between atoms: N_17  and  C_14 
ROOT
HETATM    1  C   UNK N   1      30.132  16.967   7.266  0.00  0.00     0.030 A 
HETATM    2  C   UNK N   1      28.207  18.306   6.699  0.00  0.00     0.040 A 
HETATM    3  C   UNK N   1      30.475  16.835   5.915  0.00  0.00    -0.001 A 
HETATM    4  C   UNK N   1      29.013  17.699   7.657  0.00  0.00     0.013 A 
HETATM    5  C   UNK N   1      28.525  18.197   5.344  0.00  0.00     0.039 A 
HETATM    6  C   UNK N   1      29.663  17.474   4.938  0.00  0.00     0.051 A 
HETATM    7 Br   UNK N   1      28.588  17.864   9.507  0.00  0.00    -0.051 Br
HETATM    8 Br   UNK N   1      27.377  19.040   4.066  0.00  0.00    -0.049 Br
ENDROOT
BRANCH   3   9
HETATM    9  C   UNK N   1      31.704  15.990   5.640  0.00  0.00     0.313 C 
BRANCH   9  10
HETATM   10  N   UNK N   1      32.937  16.681   5.257  0.00  0.00     0.093 N 
HETATM   11  C   UNK N   1      33.617  15.815   4.299  0.00  0.00     0.310 C 
BRANCH  10  12
HETATM   12  C   UNK N   1      33.818  16.736   6.436  0.00  0.00     0.223 C 
HETATM   13  C   UNK N   1      33.592  18.021   7.241  0.00  0.00     0.036 C 
HETATM   14  C   UNK N   1      34.629  18.119   8.359  0.00  0.00     0.002 C 
HETATM   15  C   UNK N   1      34.547  16.901   9.277  0.00  0.00     0.000 C 
HETATM   16  C   UNK N   1      34.710  15.610   8.477  0.00  0.00     0.002 C 
HETATM   17  C   UNK N   1      33.651  15.537   7.380  0.00  0.00     0.036 C 
ENDBRANCH  10  12
ENDBRANCH   9  10
ENDBRANCH   3   9
BRANCH   6  18
HETATM   18  N   UNK N   1      29.970  17.399   3.561  0.00  0.00    -0.398 N 
HETATM   19  H   UNK N   1      30.340  18.181   3.089  0.00  0.00     0.156 HD
HETATM   20  H   UNK N   1      29.814  16.561   3.070  0.00  0.00     0.156 HD
ENDBRANCH   6  18
TORSDOF 4
ENDMDL
MODEL 7
REMARK VINA RESULT:      -5.6      2.961      6.611
REMARK  4 active torsions:
REMARK  status: ('A' for Active; 'I' for Inactive)
REMARK    1  A    between atoms: C_10  and  C_9 
REMARK    2  A    between atoms: N_18  and  C_9 
REMARK    3  A    between atoms: N_18  and  C_12 
REMARK    4  A    between atoms: N_17  and  C_14 
ROOT
HETATM    1  C   UNK N   1      29.691  17.506   6.993  0.00  0.00     0.030 A 
HETATM    2  C   UNK N   1      28.043  19.182   7.534  0.00  0.00     0.040 A 
HETATM    3  C   UNK N   1      29.466  17.683   5.623  0.00  0.00    -0.001 A 
HETATM    4  C   UNK N   1      28.993  18.250   7.942  0.00  0.00     0.013 A 
HETATM    5  C   UNK N   1      27.798  19.385   6.175  0.00  0.00     0.039 A 
HETATM    6  C   UNK N   1      28.510  18.651   5.207  0.00  0.00     0.051 A 
HETATM    7 Br   UNK N   1      29.341  17.986   9.796  0.00  0.00    -0.051 Br
HETATM    8 Br   UNK N   1      26.472  20.669   5.669  0.00  0.00    -0.049 Br
ENDROOT
BRANCH   3   9
HETATM    9  C   UNK N   1      30.281  16.786   4.712  0.00  0.00     0.313 C 
BRANCH   9  10
HETATM   10  N   UNK N   1      31.629  17.227   4.346  0.00  0.00     0.093 N 
HETATM   11  C   UNK N   1      31.816  16.872   2.943  0.00  0.00     0.310 C 
BRANCH  10  12
HETATM   12  C   UNK N   1      32.599  16.411   5.094  0.00  0.00     0.223 C 
HETATM   13  C   UNK N   1      33.442  15.542   4.152  0.00  0.00     0.036 C 
HETATM   14  C   UNK N   1      34.320  14.596   4.970  0.00  0.00     0.002 C 
HETATM   15  C   UNK N   1      35.228  15.384   5.912  0.00  0.00     0.000 C 
HETATM   16  C   UNK N   1      34.404  16.300   6.815  0.00  0.00     0.002 C 
HETATM   17  C   UNK N   1      33.551  17.241   5.968  0.00  0.00     0.036 C 
ENDBRANCH  10  12
ENDBRANCH   9  10
ENDBRANCH   3   9
BRANCH   6  18
HETATM   18  N   UNK N   1      28.253  18.894   3.840  0.00  0.00    -0.398 N 
HETATM   19  H   UNK N   1      27.393  19.280   3.554  0.00  0.00     0.156 HD
HETATM   20  H   UNK N   1      28.939  18.678   3.168  0.00  0.00     0.156 HD
ENDBRANCH   6  18
TORSDOF 4
ENDMDL
MODEL 8
REMARK VINA RESULT:      -5.6      8.990     12.100
REMARK  4 active torsions:
REMARK  status: ('A' for Active; 'I' for Inactive)
REMARK    1  A    between atoms: C_10  and  C_9 
REMARK    2  A    between atoms: N_18  and  C_9 
REMARK    3  A    between atoms: N_18  and  C_12 
REMARK    4  A    between atoms: N_17  and  C_14 
ROOT
HETATM    1  C   UNK N   1      35.478  14.491  12.209  0.00  0.00     0.030 A 
HETATM    2  C   UNK N   1      36.933  14.388  10.288  0.00  0.00     0.040 A 
HETATM    3  C   UNK N   1      36.048  13.329  12.741  0.00  0.00    -0.001 A 
HETATM    4  C   UNK N   1      35.917  15.021  10.998  0.00  0.00     0.013 A 
HETATM    5  C   UNK N   1      37.526  13.231  10.794  0.00  0.00     0.039 A 
HETATM    6  C   UNK N   1      37.102  12.695  12.026  0.00  0.00     0.051 A 
HETATM    7 Br   UNK N   1      35.121  16.612  10.315  0.00  0.00    -0.051 Br
HETATM    8 Br   UNK N   1      38.911  12.393   9.773  0.00  0.00    -0.049 Br
ENDROOT
BRANCH   3   9
HETATM    9  C   UNK N   1      35.452  12.859  14.053  0.00  0.00     0.313 C 
BRANCH   9  10
HETATM   10  N   UNK N   1      35.526  13.764  15.202  0.00  0.00     0.093 N 
HETATM   11  C   UNK N   1      36.934  14.111  15.366  0.00  0.00     0.310 C 
BRANCH  10  12
HETATM   12  C   UNK N   1      35.163  13.005  16.410  0.00  0.00     0.223 C 
HETATM   13  C   UNK N   1      35.832  11.625  16.425  0.00  0.00     0.036 C 
HETATM   14  C   UNK N   1      35.306  10.809  17.606  0.00  0.00     0.002 C 
HETATM   15  C   UNK N   1      35.572  11.537  18.922  0.00  0.00     0.000 C 
HETATM   16  C   UNK N   1      34.963  12.938  18.898  0.00  0.00     0.002 C 
HETATM   17  C   UNK N   1      35.518  13.729  17.717  0.00  0.00     0.036 C 
ENDBRANCH  10  12
ENDBRANCH   9  10
ENDBRANCH   3   9
BRANCH   6  18
HETATM   18  N   UNK N   1      37.736  11.535  12.521  0.00  0.00    -0.398 N 
HETATM   19  H   UNK N   1      38.662  11.322  12.261  0.00  0.00     0.156 HD
HETATM   20  H   UNK N   1      37.249  10.934  13.130  0.00  0.00     0.156 HD
ENDBRANCH   6  18
TORSDOF 4
ENDMDL
MODEL 9
REMARK VINA RESULT:      -5.5      8.102     11.020
REMARK  4 active torsions:
REMARK  status: ('A' for Active; 'I' for Inactive)
REMARK    1  A    between atoms: C_10  and  C_9 
REMARK    2  A    between atoms: N_18  and  C_9 
REMARK    3  A    between atoms: N_18  and  C_12 
REMARK    4  A    between atoms: N_17  and  C_14 
ROOT
HETATM    1  C   UNK N   1      35.207  13.994  11.176  0.00  0.00     0.030 A 
HETATM    2  C   UNK N   1      35.937  14.319   8.901  0.00  0.00     0.040 A 
HETATM    3  C   UNK N   1      36.480  13.553  11.554  0.00  0.00    -0.001 A 
HETATM    4  C   UNK N   1      34.936  14.380   9.865  0.00  0.00     0.013 A 
HETATM    5  C   UNK N   1      37.219  13.888   9.247  0.00  0.00     0.039 A 
HETATM    6  C   UNK N   1      37.508  13.512  10.572  0.00  0.00     0.051 A 
HETATM    7 Br   UNK N   1      33.192  14.987   9.397  0.00  0.00    -0.051 Br
HETATM    8 Br   UNK N   1      38.556  13.812   7.880  0.00  0.00    -0.049 Br
ENDROOT
BRANCH   3   9
HETATM    9  C   UNK N   1      36.618  13.144  13.008  0.00  0.00     0.313 C 
BRANCH   9  10
HETATM   10  N   UNK N   1      35.800  13.850  13.997  0.00  0.00     0.093 N 
HETATM   11  C   UNK N   1      36.729  14.538  14.888  0.00  0.00     0.310 C 
BRANCH  10  12
HETATM   12  C   UNK N   1      35.119  12.846  14.832  0.00  0.00     0.223 C 
HETATM   13  C   UNK N   1      34.514  11.727  13.976  0.00  0.00     0.036 C 
HETATM   14  C   UNK N   1      33.682  10.796  14.858  0.00  0.00     0.002 C 
HETATM   15  C   UNK N   1      34.543  10.200  15.972  0.00  0.00     0.000 C 
HETATM   16  C   UNK N   1      35.202  11.306  16.794  0.00  0.00     0.002 C 
HETATM   17  C   UNK N   1      36.034  12.208  15.887  0.00  0.00     0.036 C 
ENDBRANCH  10  12
ENDBRANCH   9  10
ENDBRANCH   3   9
BRANCH   6  18
HETATM   18  N   UNK N   1      38.820  13.099  10.895  0.00  0.00    -0.398 N 
HETATM   19  H   UNK N   1      39.081  12.153  10.808  0.00  0.00     0.156 HD
HETATM   20  H   UNK N   1      39.478  13.762  11.208  0.00  0.00     0.156 HD
ENDBRANCH   6  18
TORSDOF 4
ENDMDL
