MODEL 1
REMARK VINA RESULT:      -8.4      0.000      0.000
REMARK  13 active torsions:
REMARK  status: ('A' for Active; 'I' for Inactive)
REMARK    1  A    between atoms: O_3  and  C_39 
REMARK    2  A    between atoms: O_4  and  C_40 
REMARK       I    between atoms: N_7  and  C_21 
REMARK       I    between atoms: N_8  and  C_22 
REMARK    3  A    between atoms: N_15  and  C_23 
REMARK       I    between atoms: N_15  and  C_39 
REMARK    4  A    between atoms: N_16  and  C_24 
REMARK       I    between atoms: N_16  and  C_40 
REMARK    5  A    between atoms: C_17  and  C_20 
REMARK    6  A    between atoms: C_18  and  C_19 
REMARK    7  A    between atoms: C_21  and  C_23 
REMARK    8  A    between atoms: C_22  and  C_24 
REMARK    9  A    between atoms: C_23  and  C_33 
REMARK   10  A    between atoms: C_24  and  C_34 
REMARK   11  A    between atoms: C_29  and  C_37 
REMARK   12  A    between atoms: C_30  and  C_38 
REMARK   13  A    between atoms: C_41  and  C_42 
ROOT
HETATM    1  C   UNK N   1      23.534  14.613   2.506  0.00  0.00    -0.009 C 
HETATM    2  C   UNK N   1      25.623  12.918   2.716  0.00  0.00     0.064 C 
HETATM    3  C   UNK N   1      23.939  13.926   1.366  0.00  0.00     0.011 C 
HETATM    4  C   UNK N   1      23.958  14.217   3.763  0.00  0.00     0.011 C 
HETATM    5  C   UNK N   1      25.019  13.091   1.460  0.00  0.00    -0.012 C 
HETATM    6  C   UNK N   1      24.972  13.327   3.873  0.00  0.00    -0.012 C 
ENDROOT
BRANCH   2   7
HETATM    7  C   UNK N   1      26.986  13.360   2.767  0.00  0.00    -0.047 C 
HETATM    8  C   UNK N   1      27.361  14.504   2.057  0.00  0.00     0.005 C 
HETATM    9  C   UNK N   1      28.692  14.797   1.917  0.00  0.00    -0.011 C 
HETATM   10  C   UNK N   1      29.649  14.006   2.549  0.00  0.00     0.082 C 
HETATM   11  C   UNK N   1      29.297  12.716   2.932  0.00  0.00    -0.011 C 
HETATM   12  C   UNK N   1      27.969  12.414   3.099  0.00  0.00     0.005 C 
BRANCH  10  13
HETATM   13  C   UNK N   1      30.035  14.658   3.752  0.00  0.00     0.037 A 
HETATM   14  N   UNK N   1      30.438  15.914   3.845  0.00  0.00    -0.346 N 
HETATM   15  C   UNK N   1      30.963  15.974   5.073  0.00  0.00     0.104 A 
HETATM   16  H   UNK N   1      30.368  16.631   3.174  0.00  0.00     0.167 HD
HETATM   17  N   UNK N   1      30.944  14.802   5.738  0.00  0.00    -0.352 N 
HETATM   18  C   UNK N   1      30.369  13.951   4.900  0.00  0.00     0.115 A 
ATOM     19  HN  UNK N   1      31.295  14.612   6.678  1.00  0.00     0.166 HD
BRANCH  15  20
HETATM   20  C   UNK N   1      31.413  17.214   5.675  0.00  0.00     0.155 C 
HETATM   21  N   UNK N   1      30.774  17.363   6.955  0.00  0.00    -0.339 N 
HETATM   22  C   UNK N   1      29.413  17.361   7.185  0.00  0.00     0.243 C 
HETATM   23  C   UNK N   1      31.701  17.461   8.050  0.00  0.00     0.127 C 
HETATM   24  O   UNK N   1      29.022  17.486   8.338  0.00  0.00    -0.271 OA
HETATM   25  C   UNK N   1      33.089  17.394   7.436  0.00  0.00     0.022 C 
HETATM   26  C   UNK N   1      32.896  17.047   5.971  0.00  0.00     0.035 C 
BRANCH  22  27
HETATM   27  C   UNK N   1      28.343  17.182   6.087  0.00  0.00     0.182 C 
BRANCH  27  28
HETATM   28  N   UNK N   1      27.071  16.770   6.671  0.00  0.00    -0.323 N 
HETATM   29  C   UNK N   1      26.553  15.515   6.519  0.00  0.00     0.360 C 
HETATM   30  O   UNK N   1      27.196  14.641   5.952  0.00  0.00    -0.239 OA
HETATM   31  H   UNK N   1      26.563  17.428   7.199  0.00  0.00     0.165 HD
BRANCH  29  32
HETATM   32  O   UNK N   1      25.296  15.256   6.964  0.00  0.00    -0.309 OA
HETATM   33  C   UNK N   1      24.973  14.091   7.626  0.00  0.00     0.215 C 
ENDBRANCH  29  32
ENDBRANCH  27  28
BRANCH  27  34
HETATM   34  C   UNK N   1      28.168  18.562   5.390  0.00  0.00     0.009 C 
HETATM   35  C   UNK N   1      27.584  18.418   4.004  0.00  0.00     0.012 C 
HETATM   36  C   UNK N   1      27.456  19.677   6.149  0.00  0.00     0.012 C 
ENDBRANCH  27  34
ENDBRANCH  22  27
ENDBRANCH  15  20
ENDBRANCH  10  13
ENDBRANCH   2   7
BRANCH   1  37
HETATM   37  C   UNK N   1      22.303  15.207   2.516  0.00  0.00     0.059 A 
HETATM   38  N   UNK N   1      22.030  16.415   3.020  0.00  0.00    -0.342 N 
HETATM   39  C   UNK N   1      20.738  16.306   3.334  0.00  0.00     0.105 A 
HETATM   40  H   UNK N   1      22.629  17.188   3.130  0.00  0.00     0.167 HD
HETATM   41  N   UNK N   1      20.236  15.074   3.108  0.00  0.00    -0.352 N 
HETATM   42  C   UNK N   1      21.234  14.374   2.616  0.00  0.00     0.119 A 
ATOM     43  HN  UNK N   1      19.284  14.754   3.283  1.00  0.00     0.166 HD
BRANCH  39  44
HETATM   44  C   UNK N   1      19.864  17.424   3.672  0.00  0.00     0.155 C 
HETATM   45  N   UNK N   1      20.585  18.172   4.668  0.00  0.00    -0.339 N 
HETATM   46  C   UNK N   1      20.914  17.700   5.928  0.00  0.00     0.243 C 
HETATM   47  C   UNK N   1      21.103  19.429   4.191  0.00  0.00     0.127 C 
HETATM   48  O   UNK N   1      21.618  18.412   6.632  0.00  0.00    -0.271 OA
HETATM   49  C   UNK N   1      20.807  19.461   2.701  0.00  0.00     0.022 C 
HETATM   50  C   UNK N   1      19.803  18.342   2.453  0.00  0.00     0.035 C 
BRANCH  46  51
HETATM   51  C   UNK N   1      20.447  16.330   6.525  0.00  0.00     0.182 C 
BRANCH  51  52
HETATM   52  N   UNK N   1      21.428  15.259   6.381  0.00  0.00    -0.323 N 
HETATM   53  C   UNK N   1      21.117  13.951   6.174  0.00  0.00     0.360 C 
HETATM   54  O   UNK N   1      19.936  13.615   6.002  0.00  0.00    -0.239 OA
HETATM   55  H   UNK N   1      22.381  15.501   6.437  0.00  0.00     0.165 HD
BRANCH  53  56
HETATM   56  O   UNK N   1      22.080  13.003   6.196  0.00  0.00    -0.309 OA
HETATM   57  C   UNK N   1      21.948  11.805   6.864  0.00  0.00     0.215 C 
ENDBRANCH  53  56
ENDBRANCH  51  52
BRANCH  51  58
HETATM   58  C   UNK N   1      20.191  16.556   8.039  0.00  0.00     0.009 C 
HETATM   59  C   UNK N   1      18.721  16.802   8.294  0.00  0.00     0.012 C 
HETATM   60  C   UNK N   1      20.713  15.520   9.022  0.00  0.00     0.012 C 
ENDBRANCH  51  58
ENDBRANCH  46  51
ENDBRANCH  39  44
ENDBRANCH   1  37
TORSDOF 13
ENDMDL
MODEL 2
REMARK VINA RESULT:      -8.0      1.950      8.635
REMARK  13 active torsions:
REMARK  status: ('A' for Active; 'I' for Inactive)
REMARK    1  A    between atoms: O_3  and  C_39 
REMARK    2  A    between atoms: O_4  and  C_40 
REMARK       I    between atoms: N_7  and  C_21 
REMARK       I    between atoms: N_8  and  C_22 
REMARK    3  A    between atoms: N_15  and  C_23 
REMARK       I    between atoms: N_15  and  C_39 
REMARK    4  A    between atoms: N_16  and  C_24 
REMARK       I    between atoms: N_16  and  C_40 
REMARK    5  A    between atoms: C_17  and  C_20 
REMARK    6  A    between atoms: C_18  and  C_19 
REMARK    7  A    between atoms: C_21  and  C_23 
REMARK    8  A    between atoms: C_22  and  C_24 
REMARK    9  A    between atoms: C_23  and  C_33 
REMARK   10  A    between atoms: C_24  and  C_34 
REMARK   11  A    between atoms: C_29  and  C_37 
REMARK   12  A    between atoms: C_30  and  C_38 
REMARK   13  A    between atoms: C_41  and  C_42 
ROOT
HETATM    1  C   UNK N   1      27.274  15.332   2.844  0.00  0.00    -0.009 C 
HETATM    2  C   UNK N   1      25.510  13.490   1.967  0.00  0.00     0.064 C 
HETATM    3  C   UNK N   1      27.399  14.030   3.314  0.00  0.00     0.011 C 
HETATM    4  C   UNK N   1      26.496  15.618   1.735  0.00  0.00     0.011 C 
HETATM    5  C   UNK N   1      26.486  13.098   2.897  0.00  0.00    -0.012 C 
HETATM    6  C   UNK N   1      25.646  14.677   1.259  0.00  0.00    -0.012 C 
ENDROOT
BRANCH   2   7
HETATM    7  C   UNK N   1      24.168  13.393   2.462  0.00  0.00    -0.047 C 
HETATM    8  C   UNK N   1      23.845  12.382   3.372  0.00  0.00     0.005 C 
HETATM    9  C   UNK N   1      22.529  12.146   3.669  0.00  0.00    -0.011 C 
HETATM   10  C   UNK N   1      21.538  12.965   3.134  0.00  0.00     0.082 C 
HETATM   11  C   UNK N   1      21.831  13.704   1.992  0.00  0.00    -0.011 C 
HETATM   12  C   UNK N   1      23.143  13.968   1.695  0.00  0.00     0.005 C 
BRANCH  10  13
HETATM   13  C   UNK N   1      21.180  13.926   4.118  0.00  0.00     0.037 A 
HETATM   14  N   UNK N   1      21.959  14.336   5.105  0.00  0.00    -0.346 N 
HETATM   15  C   UNK N   1      21.112  14.982   5.912  0.00  0.00     0.104 A 
HETATM   16  H   UNK N   1      22.927  14.199   5.217  0.00  0.00     0.167 HD
HETATM   17  N   UNK N   1      19.829  14.961   5.496  0.00  0.00    -0.352 N 
HETATM   18  C   UNK N   1      19.858  14.277   4.361  0.00  0.00     0.115 A 
ATOM     19  HN  UNK N   1      19.018  15.378   5.953  1.00  0.00     0.166 HD
BRANCH  15  20
HETATM   20  C   UNK N   1      21.551  15.731   7.073  0.00  0.00     0.155 C 
HETATM   21  N   UNK N   1      21.090  17.088   6.947  0.00  0.00    -0.339 N 
HETATM   22  C   UNK N   1      21.351  17.937   5.891  0.00  0.00     0.243 C 
HETATM   23  C   UNK N   1      20.240  17.507   8.029  0.00  0.00     0.127 C 
HETATM   24  O   UNK N   1      20.874  19.063   5.923  0.00  0.00    -0.271 OA
HETATM   25  C   UNK N   1      20.147  16.323   8.976  0.00  0.00     0.022 C 
HETATM   26  C   UNK N   1      20.814  15.155   8.273  0.00  0.00     0.035 C 
BRANCH  22  27
HETATM   27  C   UNK N   1      22.184  17.552   4.648  0.00  0.00     0.182 C 
BRANCH  27  28
HETATM   28  N   UNK N   1      21.799  18.366   3.500  0.00  0.00    -0.323 N 
HETATM   29  C   UNK N   1      20.749  18.052   2.683  0.00  0.00     0.360 C 
HETATM   30  O   UNK N   1      20.019  17.105   2.946  0.00  0.00    -0.239 OA
HETATM   31  H   UNK N   1      22.319  19.179   3.306  0.00  0.00     0.165 HD
BRANCH  29  32
HETATM   32  O   UNK N   1      20.550  18.774   1.551  0.00  0.00    -0.309 OA
HETATM   33  C   UNK N   1      20.874  20.111   1.462  0.00  0.00     0.215 C 
ENDBRANCH  29  32
ENDBRANCH  27  28
BRANCH  27  34
HETATM   34  C   UNK N   1      23.676  17.825   4.997  0.00  0.00     0.009 C 
HETATM   35  C   UNK N   1      24.541  16.613   4.736  0.00  0.00     0.012 C 
HETATM   36  C   UNK N   1      24.339  19.077   4.433  0.00  0.00     0.012 C 
ENDBRANCH  27  34
ENDBRANCH  22  27
ENDBRANCH  15  20
ENDBRANCH  10  13
ENDBRANCH   2   7
BRANCH   1  37
HETATM   37  C   UNK N   1      28.325  16.193   2.999  0.00  0.00     0.059 A 
HETATM   38  N   UNK N   1      29.577  15.839   3.309  0.00  0.00    -0.342 N 
HETATM   39  C   UNK N   1      30.043  16.940   3.903  0.00  0.00     0.105 A 
HETATM   40  H   UNK N   1      30.037  14.986   3.141  0.00  0.00     0.167 HD
HETATM   41  N   UNK N   1      29.117  17.912   4.027  0.00  0.00    -0.352 N 
HETATM   42  C   UNK N   1      28.025  17.428   3.478  0.00  0.00     0.119 A 
ATOM     43  HN  UNK N   1      29.238  18.830   4.455  1.00  0.00     0.166 HD
BRANCH  39  44
HETATM   44  C   UNK N   1      31.449  17.197   4.197  0.00  0.00     0.155 C 
HETATM   45  N   UNK N   1      31.834  16.154   5.110  0.00  0.00    -0.339 N 
HETATM   46  C   UNK N   1      31.321  15.988   6.386  0.00  0.00     0.243 C 
HETATM   47  C   UNK N   1      32.701  15.161   4.528  0.00  0.00     0.127 C 
HETATM   48  O   UNK N   1      31.669  14.995   7.011  0.00  0.00    -0.271 OA
HETATM   49  C   UNK N   1      32.799  15.510   3.052  0.00  0.00     0.022 C 
HETATM   50  C   UNK N   1      32.241  16.922   2.922  0.00  0.00     0.035 C 
BRANCH  46  51
HETATM   51  C   UNK N   1      30.335  16.978   7.094  0.00  0.00     0.182 C 
BRANCH  51  52
HETATM   52  N   UNK N   1      29.041  16.388   7.420  0.00  0.00    -0.323 N 
HETATM   53  C   UNK N   1      27.844  17.014   7.255  0.00  0.00     0.360 C 
HETATM   54  O   UNK N   1      27.797  18.126   6.710  0.00  0.00    -0.239 OA
HETATM   55  H   UNK N   1      29.034  15.473   7.786  0.00  0.00     0.165 HD
BRANCH  53  56
HETATM   56  O   UNK N   1      26.704  16.452   7.716  0.00  0.00    -0.309 OA
HETATM   57  C   UNK N   1      26.258  15.211   7.319  0.00  0.00     0.215 C 
ENDBRANCH  53  56
ENDBRANCH  51  52
BRANCH  51  58
HETATM   58  C   UNK N   1      31.013  17.429   8.415  0.00  0.00     0.009 C 
HETATM   59  C   UNK N   1      32.413  17.930   8.145  0.00  0.00     0.012 C 
HETATM   60  C   UNK N   1      30.278  18.423   9.301  0.00  0.00     0.012 C 
ENDBRANCH  51  58
ENDBRANCH  46  51
ENDBRANCH  39  44
ENDBRANCH   1  37
TORSDOF 13
ENDMDL
MODEL 3
REMARK VINA RESULT:      -7.8      8.038     12.807
REMARK  13 active torsions:
REMARK  status: ('A' for Active; 'I' for Inactive)
REMARK    1  A    between atoms: O_3  and  C_39 
REMARK    2  A    between atoms: O_4  and  C_40 
REMARK       I    between atoms: N_7  and  C_21 
REMARK       I    between atoms: N_8  and  C_22 
REMARK    3  A    between atoms: N_15  and  C_23 
REMARK       I    between atoms: N_15  and  C_39 
REMARK    4  A    between atoms: N_16  and  C_24 
REMARK       I    between atoms: N_16  and  C_40 
REMARK    5  A    between atoms: C_17  and  C_20 
REMARK    6  A    between atoms: C_18  and  C_19 
REMARK    7  A    between atoms: C_21  and  C_23 
REMARK    8  A    between atoms: C_22  and  C_24 
REMARK    9  A    between atoms: C_23  and  C_33 
REMARK   10  A    between atoms: C_24  and  C_34 
REMARK   11  A    between atoms: C_29  and  C_37 
REMARK   12  A    between atoms: C_30  and  C_38 
REMARK   13  A    between atoms: C_41  and  C_42 
ROOT
HETATM    1  C   UNK N   1      34.429  15.116   9.755  0.00  0.00    -0.009 C 
HETATM    2  C   UNK N   1      32.844  16.781   8.344  0.00  0.00     0.064 C 
HETATM    3  C   UNK N   1      34.908  16.389   9.466  0.00  0.00     0.011 C 
HETATM    4  C   UNK N   1      33.086  14.812   9.617  0.00  0.00     0.011 C 
HETATM    5  C   UNK N   1      34.121  17.226   8.722  0.00  0.00    -0.012 C 
HETATM    6  C   UNK N   1      32.275  15.670   8.954  0.00  0.00    -0.012 C 
ENDROOT
BRANCH   2   7
HETATM    7  C   UNK N   1      32.666  16.676   6.925  0.00  0.00    -0.047 C 
HETATM    8  C   UNK N   1      33.437  17.475   6.077  0.00  0.00     0.005 C 
HETATM    9  C   UNK N   1      33.115  17.546   4.747  0.00  0.00    -0.011 C 
HETATM   10  C   UNK N   1      32.083  16.760   4.240  0.00  0.00     0.082 C 
HETATM   11  C   UNK N   1      31.128  16.266   5.123  0.00  0.00    -0.011 C 
HETATM   12  C   UNK N   1      31.445  16.168   6.454  0.00  0.00     0.005 C 
BRANCH  10  13
HETATM   13  C   UNK N   1      32.661  15.610   3.636  0.00  0.00     0.037 A 
HETATM   14  N   UNK N   1      33.945  15.454   3.362  0.00  0.00    -0.346 N 
HETATM   15  C   UNK N   1      33.956  14.389   2.553  0.00  0.00     0.104 A 
HETATM   16  H   UNK N   1      34.708  15.991   3.677  0.00  0.00     0.167 HD
HETATM   17  N   UNK N   1      32.732  13.896   2.275  0.00  0.00    -0.352 N 
HETATM   18  C   UNK N   1      31.897  14.675   2.948  0.00  0.00     0.115 A 
ATOM     19  HN  UNK N   1      32.501  13.100   1.680  1.00  0.00     0.166 HD
BRANCH  15  20
HETATM   20  C   UNK N   1      35.180  13.757   2.104  0.00  0.00     0.155 C 
HETATM   21  N   UNK N   1      35.168  12.381   2.523  0.00  0.00    -0.339 N 
HETATM   22  C   UNK N   1      35.023  11.931   3.819  0.00  0.00     0.243 C 
HETATM   23  C   UNK N   1      35.265  11.449   1.431  0.00  0.00     0.127 C 
HETATM   24  O   UNK N   1      35.020  10.723   4.015  0.00  0.00    -0.271 OA
HETATM   25  C   UNK N   1      35.375  12.286   0.169  0.00  0.00     0.022 C 
HETATM   26  C   UNK N   1      35.127  13.725   0.584  0.00  0.00     0.035 C 
BRANCH  22  27
HETATM   27  C   UNK N   1      34.833  12.850   5.046  0.00  0.00     0.182 C 
BRANCH  27  28
HETATM   28  N   UNK N   1      34.453  12.070   6.218  0.00  0.00    -0.323 N 
HETATM   29  C   UNK N   1      33.231  12.180   6.822  0.00  0.00     0.360 C 
HETATM   30  O   UNK N   1      32.358  12.885   6.333  0.00  0.00    -0.239 OA
HETATM   31  H   UNK N   1      35.106  11.435   6.591  0.00  0.00     0.165 HD
BRANCH  29  32
HETATM   32  O   UNK N   1      33.010  11.534   7.995  0.00  0.00    -0.309 OA
HETATM   33  C   UNK N   1      33.088  10.162   8.107  0.00  0.00     0.215 C 
ENDBRANCH  29  32
ENDBRANCH  27  28
BRANCH  27  34
HETATM   34  C   UNK N   1      36.200  13.546   5.310  0.00  0.00     0.009 C 
HETATM   35  C   UNK N   1      36.074  14.655   6.328  0.00  0.00     0.012 C 
HETATM   36  C   UNK N   1      37.412  12.676   5.626  0.00  0.00     0.012 C 
ENDBRANCH  27  34
ENDBRANCH  22  27
ENDBRANCH  15  20
ENDBRANCH  10  13
ENDBRANCH   2   7
BRANCH   1  37
HETATM   37  C   UNK N   1      35.048  14.383  10.729  0.00  0.00     0.059 A 
HETATM   38  N   UNK N   1      34.440  13.532  11.563  0.00  0.00    -0.342 N 
HETATM   39  C   UNK N   1      35.256  13.539  12.619  0.00  0.00     0.105 A 
HETATM   40  H   UNK N   1      33.604  13.029  11.431  0.00  0.00     0.167 HD
HETATM   41  N   UNK N   1      36.287  14.399  12.491  0.00  0.00    -0.352 N 
HETATM   42  C   UNK N   1      36.139  14.951  11.307  0.00  0.00     0.119 A 
ATOM     43  HN  UNK N   1      37.025  14.583  13.170  1.00  0.00     0.166 HD
BRANCH  39  44
HETATM   44  C   UNK N   1      35.210  12.576  13.714  0.00  0.00     0.155 C 
HETATM   45  N   UNK N   1      36.448  11.849  13.622  0.00  0.00    -0.339 N 
HETATM   46  C   UNK N   1      36.812  11.033  12.564  0.00  0.00     0.243 C 
HETATM   47  C   UNK N   1      37.390  12.169  14.666  0.00  0.00     0.127 C 
HETATM   48  O   UNK N   1      37.940  10.560  12.577  0.00  0.00    -0.271 OA
HETATM   49  C   UNK N   1      36.765  13.309  15.453  0.00  0.00     0.022 C 
HETATM   50  C   UNK N   1      35.305  13.361  15.019  0.00  0.00     0.035 C 
BRANCH  46  51
HETATM   51  C   UNK N   1      35.887  10.662  11.356  0.00  0.00     0.182 C 
BRANCH  51  52
HETATM   52  N   UNK N   1      36.608  10.145  10.198  0.00  0.00    -0.323 N 
HETATM   53  C   UNK N   1      36.669  10.764   8.988  0.00  0.00     0.360 C 
HETATM   54  O   UNK N   1      36.166  11.888   8.841  0.00  0.00    -0.239 OA
HETATM   55  H   UNK N   1      37.084   9.289  10.300  0.00  0.00     0.165 HD
BRANCH  53  56
HETATM   56  O   UNK N   1      37.238  10.148   7.927  0.00  0.00    -0.309 OA
HETATM   57  C   UNK N   1      36.575   9.231   7.141  0.00  0.00     0.215 C 
ENDBRANCH  53  56
ENDBRANCH  51  52
BRANCH  51  58
HETATM   58  C   UNK N   1      34.909   9.563  11.852  0.00  0.00     0.009 C 
HETATM   59  C   UNK N   1      33.477  10.014  11.676  0.00  0.00     0.012 C 
HETATM   60  C   UNK N   1      35.071   8.153  11.305  0.00  0.00     0.012 C 
ENDBRANCH  51  58
ENDBRANCH  46  51
ENDBRANCH  39  44
ENDBRANCH   1  37
TORSDOF 13
ENDMDL
MODEL 4
REMARK VINA RESULT:      -7.8      1.588      9.194
REMARK  13 active torsions:
REMARK  status: ('A' for Active; 'I' for Inactive)
REMARK    1  A    between atoms: O_3  and  C_39 
REMARK    2  A    between atoms: O_4  and  C_40 
REMARK       I    between atoms: N_7  and  C_21 
REMARK       I    between atoms: N_8  and  C_22 
REMARK    3  A    between atoms: N_15  and  C_23 
REMARK       I    between atoms: N_15  and  C_39 
REMARK    4  A    between atoms: N_16  and  C_24 
REMARK       I    between atoms: N_16  and  C_40 
REMARK    5  A    between atoms: C_17  and  C_20 
REMARK    6  A    between atoms: C_18  and  C_19 
REMARK    7  A    between atoms: C_21  and  C_23 
REMARK    8  A    between atoms: C_22  and  C_24 
REMARK    9  A    between atoms: C_23  and  C_33 
REMARK   10  A    between atoms: C_24  and  C_34 
REMARK   11  A    between atoms: C_29  and  C_37 
REMARK   12  A    between atoms: C_30  and  C_38 
REMARK   13  A    between atoms: C_41  and  C_42 
ROOT
HETATM    1  C   UNK N   1      27.710  14.678   3.093  0.00  0.00    -0.009 C 
HETATM    2  C   UNK N   1      25.391  13.513   3.828  0.00  0.00     0.064 C 
HETATM    3  C   UNK N   1      26.996  15.244   4.143  0.00  0.00     0.011 C 
HETATM    4  C   UNK N   1      27.428  13.398   2.649  0.00  0.00     0.011 C 
HETATM    5  C   UNK N   1      25.802  14.676   4.498  0.00  0.00    -0.012 C 
HETATM    6  C   UNK N   1      26.290  12.788   3.056  0.00  0.00    -0.012 C 
ENDROOT
BRANCH   2   7
HETATM    7  C   UNK N   1      24.169  13.672   3.094  0.00  0.00    -0.047 C 
HETATM    8  C   UNK N   1      23.215  12.652   3.126  0.00  0.00     0.005 C 
HETATM    9  C   UNK N   1      22.158  12.696   2.254  0.00  0.00    -0.011 C 
HETATM   10  C   UNK N   1      22.001  13.793   1.409  0.00  0.00     0.082 C 
HETATM   11  C   UNK N   1      23.108  14.590   1.141  0.00  0.00    -0.011 C 
HETATM   12  C   UNK N   1      24.163  14.574   2.018  0.00  0.00     0.005 C 
BRANCH  10  13
HETATM   13  C   UNK N   1      21.045  14.667   1.996  0.00  0.00     0.037 A 
HETATM   14  N   UNK N   1      21.246  15.945   2.270  0.00  0.00    -0.346 N 
HETATM   15  C   UNK N   1      20.213  16.252   3.061  0.00  0.00     0.104 A 
HETATM   16  H   UNK N   1      21.978  16.529   1.966  0.00  0.00     0.167 HD
HETATM   17  N   UNK N   1      19.395  15.213   3.327  0.00  0.00    -0.352 N 
HETATM   18  C   UNK N   1      19.925  14.193   2.666  0.00  0.00     0.115 A 
ATOM     19  HN  UNK N   1      18.556  15.212   3.908  1.00  0.00     0.166 HD
BRANCH  15  20
HETATM   20  C   UNK N   1      19.936  17.604   3.502  0.00  0.00     0.155 C 
HETATM   21  N   UNK N   1      21.107  18.125   4.154  0.00  0.00    -0.339 N 
HETATM   22  C   UNK N   1      21.755  17.554   5.232  0.00  0.00     0.243 C 
HETATM   23  C   UNK N   1      21.625  19.317   3.537  0.00  0.00     0.127 C 
HETATM   24  O   UNK N   1      22.752  18.113   5.669  0.00  0.00    -0.271 OA
HETATM   25  C   UNK N   1      20.695  19.631   2.379  0.00  0.00     0.022 C 
HETATM   26  C   UNK N   1      19.754  18.447   2.248  0.00  0.00     0.035 C 
BRANCH  22  27
HETATM   27  C   UNK N   1      21.322  16.236   5.911  0.00  0.00     0.182 C 
BRANCH  27  28
HETATM   28  N   UNK N   1      22.482  15.531   6.446  0.00  0.00    -0.323 N 
HETATM   29  C   UNK N   1      22.565  14.167   6.497  0.00  0.00     0.360 C 
HETATM   30  O   UNK N   1      21.691  13.471   5.998  0.00  0.00    -0.239 OA
HETATM   31  H   UNK N   1      23.238  16.061   6.786  0.00  0.00     0.165 HD
BRANCH  29  32
HETATM   32  O   UNK N   1      23.608  13.590   7.147  0.00  0.00    -0.309 OA
HETATM   33  C   UNK N   1      23.898  12.247   7.030  0.00  0.00     0.215 C 
ENDBRANCH  29  32
ENDBRANCH  27  28
BRANCH  27  34
HETATM   34  C   UNK N   1      20.365  16.616   7.078  0.00  0.00     0.009 C 
HETATM   35  C   UNK N   1      18.938  16.216   6.782  0.00  0.00     0.012 C 
HETATM   36  C   UNK N   1      20.745  16.203   8.496  0.00  0.00     0.012 C 
ENDBRANCH  27  34
ENDBRANCH  22  27
ENDBRANCH  15  20
ENDBRANCH  10  13
ENDBRANCH   2   7
BRANCH   1  37
HETATM   37  C   UNK N   1      29.019  15.032   2.918  0.00  0.00     0.059 A 
HETATM   38  N   UNK N   1      30.068  14.417   3.476  0.00  0.00    -0.342 N 
HETATM   39  C   UNK N   1      30.978  15.392   3.516  0.00  0.00     0.105 A 
HETATM   40  H   UNK N   1      30.148  13.484   3.779  0.00  0.00     0.167 HD
HETATM   41  N   UNK N   1      30.511  16.578   3.074  0.00  0.00    -0.352 N 
HETATM   42  C   UNK N   1      29.265  16.353   2.721  0.00  0.00     0.119 A 
ATOM     43  HN  UNK N   1      31.017  17.461   3.024  1.00  0.00     0.166 HD
BRANCH  39  44
HETATM   44  C   UNK N   1      32.399  15.196   3.784  0.00  0.00     0.155 C 
HETATM   45  N   UNK N   1      32.446  14.435   5.004  0.00  0.00    -0.339 N 
HETATM   46  C   UNK N   1      32.002  14.885   6.236  0.00  0.00     0.243 C 
HETATM   47  C   UNK N   1      32.849  13.063   4.820  0.00  0.00     0.127 C 
HETATM   48  O   UNK N   1      32.011  14.089   7.166  0.00  0.00    -0.271 OA
HETATM   49  C   UNK N   1      32.958  12.861   3.318  0.00  0.00     0.022 C 
HETATM   50  C   UNK N   1      32.943  14.258   2.709  0.00  0.00     0.035 C 
BRANCH  46  51
HETATM   51  C   UNK N   1      31.496  16.338   6.534  0.00  0.00     0.182 C 
BRANCH  51  52
HETATM   52  N   UNK N   1      30.206  16.385   7.213  0.00  0.00    -0.323 N 
HETATM   53  C   UNK N   1      29.146  17.134   6.804  0.00  0.00     0.360 C 
HETATM   54  O   UNK N   1      29.208  17.764   5.738  0.00  0.00    -0.239 OA
HETATM   55  H   UNK N   1      30.095  15.837   8.024  0.00  0.00     0.165 HD
BRANCH  53  56
HETATM   56  O   UNK N   1      28.036  17.232   7.570  0.00  0.00    -0.309 OA
HETATM   57  C   UNK N   1      28.073  17.465   8.927  0.00  0.00     0.215 C 
ENDBRANCH  53  56
ENDBRANCH  51  52
BRANCH  51  58
HETATM   58  C   UNK N   1      32.555  17.009   7.449  0.00  0.00     0.009 C 
HETATM   59  C   UNK N   1      33.670  17.602   6.619  0.00  0.00     0.012 C 
HETATM   60  C   UNK N   1      32.080  18.031   8.471  0.00  0.00     0.012 C 
ENDBRANCH  51  58
ENDBRANCH  46  51
ENDBRANCH  39  44
ENDBRANCH   1  37
TORSDOF 13
ENDMDL
MODEL 5
REMARK VINA RESULT:      -7.8      2.227      4.084
REMARK  13 active torsions:
REMARK  status: ('A' for Active; 'I' for Inactive)
REMARK    1  A    between atoms: O_3  and  C_39 
REMARK    2  A    between atoms: O_4  and  C_40 
REMARK       I    between atoms: N_7  and  C_21 
REMARK       I    between atoms: N_8  and  C_22 
REMARK    3  A    between atoms: N_15  and  C_23 
REMARK       I    between atoms: N_15  and  C_39 
REMARK    4  A    between atoms: N_16  and  C_24 
REMARK       I    between atoms: N_16  and  C_40 
REMARK    5  A    between atoms: C_17  and  C_20 
REMARK    6  A    between atoms: C_18  and  C_19 
REMARK    7  A    between atoms: C_21  and  C_23 
REMARK    8  A    between atoms: C_22  and  C_24 
REMARK    9  A    between atoms: C_23  and  C_33 
REMARK   10  A    between atoms: C_24  and  C_34 
REMARK   11  A    between atoms: C_29  and  C_37 
REMARK   12  A    between atoms: C_30  and  C_38 
REMARK   13  A    between atoms: C_41  and  C_42 
ROOT
HETATM    1  C   UNK N   1      25.586  15.883   3.758  0.00  0.00    -0.009 C 
HETATM    2  C   UNK N   1      27.868  15.451   5.130  0.00  0.00     0.064 C 
HETATM    3  C   UNK N   1      26.192  14.637   3.647  0.00  0.00     0.011 C 
HETATM    4  C   UNK N   1      25.942  16.760   4.768  0.00  0.00     0.011 C 
HETATM    5  C   UNK N   1      27.367  14.424   4.315  0.00  0.00    -0.012 C 
HETATM    6  C   UNK N   1      27.059  16.520   5.494  0.00  0.00    -0.012 C 
ENDROOT
BRANCH   2   7
HETATM    7  C   UNK N   1      29.142  15.955   4.707  0.00  0.00    -0.047 C 
HETATM    8  C   UNK N   1      29.489  17.276   5.003  0.00  0.00     0.005 C 
HETATM    9  C   UNK N   1      30.595  17.826   4.410  0.00  0.00    -0.011 C 
HETATM   10  C   UNK N   1      31.405  17.044   3.590  0.00  0.00     0.082 C 
HETATM   11  C   UNK N   1      30.870  15.887   3.035  0.00  0.00    -0.011 C 
HETATM   12  C   UNK N   1      29.777  15.311   3.633  0.00  0.00     0.005 C 
BRANCH  10  13
HETATM   13  C   UNK N   1      32.519  16.608   4.358  0.00  0.00     0.037 A 
HETATM   14  N   UNK N   1      32.830  15.347   4.606  0.00  0.00    -0.346 N 
HETATM   15  C   UNK N   1      33.739  15.445   5.582  0.00  0.00     0.104 A 
HETATM   16  H   UNK N   1      32.478  14.534   4.177  0.00  0.00     0.167 HD
HETATM   17  N   UNK N   1      33.982  16.709   5.984  0.00  0.00    -0.352 N 
HETATM   18  C   UNK N   1      33.199  17.458   5.221  0.00  0.00     0.115 A 
ATOM     19  HN  UNK N   1      34.626  17.019   6.713  1.00  0.00     0.166 HD
BRANCH  15  20
HETATM   20  C   UNK N   1      34.476  14.303   6.085  0.00  0.00     0.155 C 
HETATM   21  N   UNK N   1      33.615  13.544   6.952  0.00  0.00    -0.339 N 
HETATM   22  C   UNK N   1      32.959  14.027   8.066  0.00  0.00     0.243 C 
HETATM   23  C   UNK N   1      33.425  12.184   6.523  0.00  0.00     0.127 C 
HETATM   24  O   UNK N   1      32.247  13.257   8.697  0.00  0.00    -0.271 OA
HETATM   25  C   UNK N   1      34.258  12.017   5.265  0.00  0.00     0.022 C 
HETATM   26  C   UNK N   1      34.758  13.401   4.892  0.00  0.00     0.035 C 
BRANCH  22  27
HETATM   27  C   UNK N   1      33.037  15.489   8.558  0.00  0.00     0.182 C 
BRANCH  27  28
HETATM   28  N   UNK N   1      31.817  15.857   9.269  0.00  0.00    -0.323 N 
HETATM   29  C   UNK N   1      30.952  16.814   8.818  0.00  0.00     0.360 C 
HETATM   30  O   UNK N   1      31.124  17.344   7.728  0.00  0.00    -0.239 OA
HETATM   31  H   UNK N   1      31.608  15.394  10.112  0.00  0.00     0.165 HD
BRANCH  29  32
HETATM   32  O   UNK N   1      29.921  17.205   9.611  0.00  0.00    -0.309 OA
HETATM   33  C   UNK N   1      29.592  18.531   9.792  0.00  0.00     0.215 C 
ENDBRANCH  29  32
ENDBRANCH  27  28
BRANCH  27  34
HETATM   34  C   UNK N   1      34.248  15.580   9.530  0.00  0.00     0.009 C 
HETATM   35  C   UNK N   1      34.800  16.984   9.606  0.00  0.00     0.012 C 
HETATM   36  C   UNK N   1      34.104  14.994  10.931  0.00  0.00     0.012 C 
ENDBRANCH  27  34
ENDBRANCH  22  27
ENDBRANCH  15  20
ENDBRANCH  10  13
ENDBRANCH   2   7
BRANCH   1  37
HETATM   37  C   UNK N   1      24.287  16.024   3.357  0.00  0.00     0.059 A 
HETATM   38  N   UNK N   1      23.410  16.897   3.864  0.00  0.00    -0.342 N 
HETATM   39  C   UNK N   1      22.242  16.297   3.624  0.00  0.00     0.105 A 
HETATM   40  H   UNK N   1      23.581  17.761   4.302  0.00  0.00     0.167 HD
HETATM   41  N   UNK N   1      22.374  15.079   3.061  0.00  0.00    -0.352 N 
HETATM   42  C   UNK N   1      23.668  14.897   2.916  0.00  0.00     0.119 A 
ATOM     43  HN  UNK N   1      21.628  14.435   2.800  1.00  0.00     0.166 HD
BRANCH  39  44
HETATM   44  C   UNK N   1      20.937  16.940   3.731  0.00  0.00     0.155 C 
HETATM   45  N   UNK N   1      21.098  17.943   4.749  0.00  0.00    -0.339 N 
HETATM   46  C   UNK N   1      21.377  17.682   6.081  0.00  0.00     0.243 C 
HETATM   47  C   UNK N   1      21.115  19.292   4.242  0.00  0.00     0.127 C 
HETATM   48  O   UNK N   1      21.589  18.641   6.812  0.00  0.00    -0.271 OA
HETATM   49  C   UNK N   1      21.088  19.165   2.727  0.00  0.00     0.022 C 
HETATM   50  C   UNK N   1      20.703  17.719   2.439  0.00  0.00     0.035 C 
BRANCH  46  51
HETATM   51  C   UNK N   1      21.434  16.256   6.725  0.00  0.00     0.182 C 
BRANCH  51  52
HETATM   52  N   UNK N   1      22.786  15.805   7.040  0.00  0.00    -0.323 N 
HETATM   53  C   UNK N   1      23.290  14.586   6.705  0.00  0.00     0.360 C 
HETATM   54  O   UNK N   1      22.621  13.810   6.009  0.00  0.00    -0.239 OA
HETATM   55  H   UNK N   1      23.373  16.427   7.528  0.00  0.00     0.165 HD
BRANCH  53  56
HETATM   56  O   UNK N   1      24.501  14.194   7.161  0.00  0.00    -0.309 OA
HETATM   57  C   UNK N   1      25.090  12.999   6.811  0.00  0.00     0.215 C 
ENDBRANCH  53  56
ENDBRANCH  51  52
BRANCH  51  58
HETATM   58  C   UNK N   1      20.620  16.319   8.045  0.00  0.00     0.009 C 
HETATM   59  C   UNK N   1      19.145  16.454   7.749  0.00  0.00     0.012 C 
HETATM   60  C   UNK N   1      20.836  15.224   9.079  0.00  0.00     0.012 C 
ENDBRANCH  51  58
ENDBRANCH  46  51
ENDBRANCH  39  44
ENDBRANCH   1  37
TORSDOF 13
ENDMDL
MODEL 6
REMARK VINA RESULT:      -7.6      2.437      9.951
REMARK  13 active torsions:
REMARK  status: ('A' for Active; 'I' for Inactive)
REMARK    1  A    between atoms: O_3  and  C_39 
REMARK    2  A    between atoms: O_4  and  C_40 
REMARK       I    between atoms: N_7  and  C_21 
REMARK       I    between atoms: N_8  and  C_22 
REMARK    3  A    between atoms: N_15  and  C_23 
REMARK       I    between atoms: N_15  and  C_39 
REMARK    4  A    between atoms: N_16  and  C_24 
REMARK       I    between atoms: N_16  and  C_40 
REMARK    5  A    between atoms: C_17  and  C_20 
REMARK    6  A    between atoms: C_18  and  C_19 
REMARK    7  A    between atoms: C_21  and  C_23 
REMARK    8  A    between atoms: C_22  and  C_24 
REMARK    9  A    between atoms: C_23  and  C_33 
REMARK   10  A    between atoms: C_24  and  C_34 
REMARK   11  A    between atoms: C_29  and  C_37 
REMARK   12  A    between atoms: C_30  and  C_38 
REMARK   13  A    between atoms: C_41  and  C_42 
ROOT
HETATM    1  C   UNK N   1      25.624  16.665   3.908  0.00  0.00    -0.009 C 
HETATM    2  C   UNK N   1      23.464  16.990   5.491  0.00  0.00     0.064 C 
HETATM    3  C   UNK N   1      25.052  17.929   3.985  0.00  0.00     0.011 C 
HETATM    4  C   UNK N   1      25.316  15.686   4.837  0.00  0.00     0.011 C 
HETATM    5  C   UNK N   1      23.936  18.092   4.761  0.00  0.00    -0.012 C 
HETATM    6  C   UNK N   1      24.263  15.868   5.670  0.00  0.00    -0.012 C 
ENDROOT
BRANCH   2   7
HETATM    7  C   UNK N   1      22.147  16.569   5.113  0.00  0.00    -0.047 C 
HETATM    8  C   UNK N   1      21.446  17.297   4.148  0.00  0.00     0.005 C 
HETATM    9  C   UNK N   1      20.115  17.039   3.951  0.00  0.00    -0.011 C 
HETATM   10  C   UNK N   1      19.498  16.002   4.648  0.00  0.00     0.082 C 
HETATM   11  C   UNK N   1      20.090  15.545   5.821  0.00  0.00    -0.011 C 
HETATM   12  C   UNK N   1      21.427  15.776   6.020  0.00  0.00     0.005 C 
BRANCH  10  13
HETATM   13  C   UNK N   1      19.441  14.868   3.792  0.00  0.00     0.037 A 
HETATM   14  N   UNK N   1      19.572  14.896   2.477  0.00  0.00    -0.346 N 
HETATM   15  C   UNK N   1      19.155  13.681   2.105  0.00  0.00     0.104 A 
HETATM   16  H   UNK N   1      19.897  15.631   1.909  0.00  0.00     0.167 HD
HETATM   17  N   UNK N   1      18.730  12.908   3.125  0.00  0.00    -0.352 N 
HETATM   18  C   UNK N   1      18.894  13.660   4.204  0.00  0.00     0.115 A 
ATOM     19  HN  UNK N   1      18.365  11.957   3.076  1.00  0.00     0.166 HD
BRANCH  15  20
HETATM   20  C   UNK N   1      19.253  13.201   0.741  0.00  0.00     0.155 C 
HETATM   21  N   UNK N   1      19.910  11.922   0.749  0.00  0.00    -0.339 N 
HETATM   22  C   UNK N   1      21.155  11.654   1.281  0.00  0.00     0.243 C 
HETATM   23  C   UNK N   1      19.113  10.865   0.186  0.00  0.00     0.127 C 
HETATM   24  O   UNK N   1      21.574  10.506   1.222  0.00  0.00    -0.271 OA
HETATM   25  C   UNK N   1      17.812  11.509  -0.260  0.00  0.00     0.022 C 
HETATM   26  C   UNK N   1      17.833  12.932   0.266  0.00  0.00     0.035 C 
BRANCH  22  27
HETATM   27  C   UNK N   1      22.050  12.704   1.976  0.00  0.00     0.182 C 
BRANCH  27  28
HETATM   28  N   UNK N   1      23.093  12.051   2.759  0.00  0.00    -0.323 N 
HETATM   29  C   UNK N   1      23.143  12.103   4.125  0.00  0.00     0.360 C 
HETATM   30  O   UNK N   1      22.240  12.633   4.760  0.00  0.00    -0.239 OA
HETATM   31  H   UNK N   1      23.793  11.550   2.282  0.00  0.00     0.165 HD
BRANCH  29  32
HETATM   32  O   UNK N   1      24.226  11.600   4.769  0.00  0.00    -0.309 OA
HETATM   33  C   UNK N   1      24.654  12.089   5.985  0.00  0.00     0.215 C 
ENDBRANCH  29  32
ENDBRANCH  27  28
BRANCH  27  34
HETATM   34  C   UNK N   1      22.706  13.560   0.854  0.00  0.00     0.009 C 
HETATM   35  C   UNK N   1      23.404  14.776   1.416  0.00  0.00     0.012 C 
HETATM   36  C   UNK N   1      23.600  12.863  -0.165  0.00  0.00     0.012 C 
ENDBRANCH  27  34
ENDBRANCH  22  27
ENDBRANCH  15  20
ENDBRANCH  10  13
ENDBRANCH   2   7
BRANCH   1  37
HETATM   37  C   UNK N   1      26.885  16.540   3.395  0.00  0.00     0.059 A 
HETATM   38  N   UNK N   1      27.600  15.410   3.361  0.00  0.00    -0.342 N 
HETATM   39  C   UNK N   1      28.853  15.868   3.351  0.00  0.00     0.105 A 
HETATM   40  H   UNK N   1      27.282  14.479   3.346  0.00  0.00     0.167 HD
HETATM   41  N   UNK N   1      28.932  17.211   3.446  0.00  0.00    -0.352 N 
HETATM   42  C   UNK N   1      27.687  17.632   3.500  0.00  0.00     0.119 A 
ATOM     43  HN  UNK N   1      29.777  17.781   3.470  1.00  0.00     0.166 HD
BRANCH  39  44
HETATM   44  C   UNK N   1      30.032  15.065   3.044  0.00  0.00     0.155 C 
HETATM   45  N   UNK N   1      30.376  14.420   4.283  0.00  0.00    -0.339 N 
HETATM   46  C   UNK N   1      30.791  15.076   5.430  0.00  0.00     0.243 C 
HETATM   47  C   UNK N   1      30.090  13.007   4.302  0.00  0.00     0.127 C 
HETATM   48  O   UNK N   1      30.951  14.403   6.439  0.00  0.00    -0.271 OA
HETATM   49  C   UNK N   1      29.372  12.711   2.995  0.00  0.00     0.022 C 
HETATM   50  C   UNK N   1      29.589  13.937   2.116  0.00  0.00     0.035 C 
BRANCH  46  51
HETATM   51  C   UNK N   1      31.080  16.611   5.532  0.00  0.00     0.182 C 
BRANCH  51  52
HETATM   52  N   UNK N   1      30.826  17.173   6.854  0.00  0.00    -0.323 N 
HETATM   53  C   UNK N   1      29.601  17.554   7.308  0.00  0.00     0.360 C 
HETATM   54  O   UNK N   1      28.593  17.346   6.618  0.00  0.00    -0.239 OA
HETATM   55  H   UNK N   1      31.595  17.282   7.461  0.00  0.00     0.165 HD
BRANCH  53  56
HETATM   56  O   UNK N   1      29.475  18.197   8.491  0.00  0.00    -0.309 OA
HETATM   57  C   UNK N   1      28.364  18.086   9.297  0.00  0.00     0.215 C 
ENDBRANCH  53  56
ENDBRANCH  51  52
BRANCH  51  58
HETATM   58  C   UNK N   1      32.582  16.815   5.196  0.00  0.00     0.009 C 
HETATM   59  C   UNK N   1      32.735  17.496   3.855  0.00  0.00     0.012 C 
HETATM   60  C   UNK N   1      33.464  17.508   6.223  0.00  0.00     0.012 C 
ENDBRANCH  51  58
ENDBRANCH  46  51
ENDBRANCH  39  44
ENDBRANCH   1  37
TORSDOF 13
ENDMDL
MODEL 7
REMARK VINA RESULT:      -7.6      3.336     10.846
REMARK  13 active torsions:
REMARK  status: ('A' for Active; 'I' for Inactive)
REMARK    1  A    between atoms: O_3  and  C_39 
REMARK    2  A    between atoms: O_4  and  C_40 
REMARK       I    between atoms: N_7  and  C_21 
REMARK       I    between atoms: N_8  and  C_22 
REMARK    3  A    between atoms: N_15  and  C_23 
REMARK       I    between atoms: N_15  and  C_39 
REMARK    4  A    between atoms: N_16  and  C_24 
REMARK       I    between atoms: N_16  and  C_40 
REMARK    5  A    between atoms: C_17  and  C_20 
REMARK    6  A    between atoms: C_18  and  C_19 
REMARK    7  A    between atoms: C_21  and  C_23 
REMARK    8  A    between atoms: C_22  and  C_24 
REMARK    9  A    between atoms: C_23  and  C_33 
REMARK   10  A    between atoms: C_24  and  C_34 
REMARK   11  A    between atoms: C_29  and  C_37 
REMARK   12  A    between atoms: C_30  and  C_38 
REMARK   13  A    between atoms: C_41  and  C_42 
ROOT
HETATM    1  C   UNK N   1      30.934  17.492   8.181  0.00  0.00    -0.009 C 
HETATM    2  C   UNK N   1      28.376  18.348   8.167  0.00  0.00     0.064 C 
HETATM    3  C   UNK N   1      30.606  18.592   8.966  0.00  0.00     0.011 C 
HETATM    4  C   UNK N   1      29.950  16.666   7.667  0.00  0.00     0.011 C 
HETATM    5  C   UNK N   1      29.317  19.050   8.936  0.00  0.00    -0.012 C 
HETATM    6  C   UNK N   1      28.657  17.069   7.704  0.00  0.00    -0.012 C 
ENDROOT
BRANCH   2   7
HETATM    7  C   UNK N   1      27.815  19.118   7.096  0.00  0.00    -0.047 C 
HETATM    8  C   UNK N   1      28.519  19.232   5.893  0.00  0.00     0.005 C 
HETATM    9  C   UNK N   1      28.103  20.144   4.959  0.00  0.00    -0.011 C 
HETATM   10  C   UNK N   1      26.942  20.882   5.177  0.00  0.00     0.082 C 
HETATM   11  C   UNK N   1      26.475  21.018   6.480  0.00  0.00    -0.011 C 
HETATM   12  C   UNK N   1      26.865  20.099   7.421  0.00  0.00     0.005 C 
BRANCH  10  13
HETATM   13  C   UNK N   1      25.881  20.257   4.466  0.00  0.00     0.037 A 
HETATM   14  N   UNK N   1      25.001  19.419   4.986  0.00  0.00    -0.346 N 
HETATM   15  C   UNK N   1      24.419  18.882   3.909  0.00  0.00     0.104 A 
HETATM   16  H   UNK N   1      24.819  19.235   5.936  0.00  0.00     0.167 HD
HETATM   17  N   UNK N   1      24.923  19.317   2.736  0.00  0.00    -0.352 N 
HETATM   18  C   UNK N   1      25.867  20.183   3.079  0.00  0.00     0.115 A 
ATOM     19  HN  UNK N   1      24.641  19.041   1.795  1.00  0.00     0.166 HD
BRANCH  15  20
HETATM   20  C   UNK N   1      23.275  17.996   3.995  0.00  0.00     0.155 C 
HETATM   21  N   UNK N   1      23.546  16.989   4.985  0.00  0.00    -0.339 N 
HETATM   22  C   UNK N   1      24.627  16.131   4.993  0.00  0.00     0.243 C 
HETATM   23  C   UNK N   1      22.592  16.974   6.062  0.00  0.00     0.127 C 
HETATM   24  O   UNK N   1      24.725  15.334   5.916  0.00  0.00    -0.271 OA
HETATM   25  C   UNK N   1      21.577  18.058   5.743  0.00  0.00     0.022 C 
HETATM   26  C   UNK N   1      22.121  18.819   4.548  0.00  0.00     0.035 C 
BRANCH  22  27
HETATM   27  C   UNK N   1      25.744  16.126   3.927  0.00  0.00     0.182 C 
BRANCH  27  28
HETATM   28  N   UNK N   1      27.003  15.668   4.504  0.00  0.00    -0.323 N 
HETATM   29  C   UNK N   1      28.223  16.111   4.077  0.00  0.00     0.360 C 
HETATM   30  O   UNK N   1      28.303  16.999   3.238  0.00  0.00    -0.239 OA
HETATM   31  H   UNK N   1      26.971  15.010   5.235  0.00  0.00     0.165 HD
BRANCH  29  32
HETATM   32  O   UNK N   1      29.349  15.525   4.559  0.00  0.00    -0.309 OA
HETATM   33  C   UNK N   1      29.394  14.193   4.909  0.00  0.00     0.215 C 
ENDBRANCH  29  32
ENDBRANCH  27  28
BRANCH  27  34
HETATM   34  C   UNK N   1      25.301  15.140   2.806  0.00  0.00     0.009 C 
HETATM   35  C   UNK N   1      25.725  15.623   1.439  0.00  0.00     0.012 C 
HETATM   36  C   UNK N   1      25.629  13.659   2.968  0.00  0.00     0.012 C 
ENDBRANCH  27  34
ENDBRANCH  22  27
ENDBRANCH  15  20
ENDBRANCH  10  13
ENDBRANCH   2   7
BRANCH   1  37
HETATM   37  C   UNK N   1      32.113  16.841   8.417  0.00  0.00     0.059 A 
HETATM   38  N   UNK N   1      32.234  15.652   9.020  0.00  0.00    -0.342 N 
HETATM   39  C   UNK N   1      33.465  15.718   9.529  0.00  0.00     0.105 A 
HETATM   40  H   UNK N   1      31.582  14.917   9.073  0.00  0.00     0.167 HD
HETATM   41  N   UNK N   1      34.066  16.908   9.323  0.00  0.00    -0.352 N 
HETATM   42  C   UNK N   1      33.199  17.625   8.643  0.00  0.00     0.119 A 
ATOM     43  HN  UNK N   1      34.996  17.192   9.629  1.00  0.00     0.166 HD
BRANCH  39  44
HETATM   44  C   UNK N   1      34.211  14.581  10.057  0.00  0.00     0.155 C 
HETATM   45  N   UNK N   1      35.402  14.510   9.253  0.00  0.00    -0.339 N 
HETATM   46  C   UNK N   1      35.426  14.237   7.895  0.00  0.00     0.243 C 
HETATM   47  C   UNK N   1      36.597  14.919   9.946  0.00  0.00     0.127 C 
HETATM   48  O   UNK N   1      36.505  14.311   7.323  0.00  0.00    -0.271 OA
HETATM   49  C   UNK N   1      36.138  15.430  11.302  0.00  0.00     0.022 C 
HETATM   50  C   UNK N   1      34.696  14.959  11.454  0.00  0.00     0.035 C 
BRANCH  46  51
HETATM   51  C   UNK N   1      34.179  13.834   7.037  0.00  0.00     0.182 C 
BRANCH  51  52
HETATM   52  N   UNK N   1      34.381  13.980   5.599  0.00  0.00    -0.323 N 
HETATM   53  C   UNK N   1      34.024  15.077   4.878  0.00  0.00     0.360 C 
HETATM   54  O   UNK N   1      33.576  16.078   5.455  0.00  0.00    -0.239 OA
HETATM   55  H   UNK N   1      34.805  13.232   5.118  0.00  0.00     0.165 HD
BRANCH  53  56
HETATM   56  O   UNK N   1      34.115  15.073   3.529  0.00  0.00    -0.309 OA
HETATM   57  C   UNK N   1      33.582  14.078   2.739  0.00  0.00     0.215 C 
ENDBRANCH  53  56
ENDBRANCH  51  52
BRANCH  51  58
HETATM   58  C   UNK N   1      33.883  12.340   7.339  0.00  0.00     0.009 C 
HETATM   59  C   UNK N   1      33.046  11.736   6.236  0.00  0.00     0.012 C 
HETATM   60  C   UNK N   1      35.054  11.422   7.653  0.00  0.00     0.012 C 
ENDBRANCH  51  58
ENDBRANCH  46  51
ENDBRANCH  39  44
ENDBRANCH   1  37
TORSDOF 13
ENDMDL
MODEL 8
REMARK VINA RESULT:      -7.5      3.303      6.564
REMARK  13 active torsions:
REMARK  status: ('A' for Active; 'I' for Inactive)
REMARK    1  A    between atoms: O_3  and  C_39 
REMARK    2  A    between atoms: O_4  and  C_40 
REMARK       I    between atoms: N_7  and  C_21 
REMARK       I    between atoms: N_8  and  C_22 
REMARK    3  A    between atoms: N_15  and  C_23 
REMARK       I    between atoms: N_15  and  C_39 
REMARK    4  A    between atoms: N_16  and  C_24 
REMARK       I    between atoms: N_16  and  C_40 
REMARK    5  A    between atoms: C_17  and  C_20 
REMARK    6  A    between atoms: C_18  and  C_19 
REMARK    7  A    between atoms: C_21  and  C_23 
REMARK    8  A    between atoms: C_22  and  C_24 
REMARK    9  A    between atoms: C_23  and  C_33 
REMARK   10  A    between atoms: C_24  and  C_34 
REMARK   11  A    between atoms: C_29  and  C_37 
REMARK   12  A    between atoms: C_30  and  C_38 
REMARK   13  A    between atoms: C_41  and  C_42 
ROOT
HETATM    1  C   UNK N   1      27.197  17.858   5.369  0.00  0.00    -0.009 C 
HETATM    2  C   UNK N   1      29.711  16.886   5.273  0.00  0.00     0.064 C 
HETATM    3  C   UNK N   1      28.152  18.579   4.662  0.00  0.00     0.011 C 
HETATM    4  C   UNK N   1      27.426  16.543   5.737  0.00  0.00     0.011 C 
HETATM    5  C   UNK N   1      29.437  18.107   4.638  0.00  0.00    -0.012 C 
HETATM    6  C   UNK N   1      28.678  16.034   5.642  0.00  0.00    -0.012 C 
ENDROOT
BRANCH   2   7
HETATM    7  C   UNK N   1      30.635  16.997   6.364  0.00  0.00    -0.047 C 
HETATM    8  C   UNK N   1      30.167  17.393   7.620  0.00  0.00     0.005 C 
HETATM    9  C   UNK N   1      31.069  17.720   8.598  0.00  0.00    -0.011 C 
HETATM   10  C   UNK N   1      32.433  17.574   8.361  0.00  0.00     0.082 C 
HETATM   11  C   UNK N   1      32.879  17.531   7.044  0.00  0.00    -0.011 C 
HETATM   12  C   UNK N   1      31.992  17.183   6.057  0.00  0.00     0.005 C 
BRANCH  10  13
HETATM   13  C   UNK N   1      32.852  16.343   8.935  0.00  0.00     0.037 A 
HETATM   14  N   UNK N   1      34.102  15.916   9.002  0.00  0.00    -0.346 N 
HETATM   15  C   UNK N   1      33.965  14.627   9.332  0.00  0.00     0.104 A 
HETATM   16  H   UNK N   1      34.931  16.423   8.846  0.00  0.00     0.167 HD
HETATM   17  N   UNK N   1      32.685  14.218   9.436  0.00  0.00    -0.352 N 
HETATM   18  C   UNK N   1      31.966  15.299   9.170  0.00  0.00     0.115 A 
ATOM     19  HN  UNK N   1      32.346  13.284   9.668  1.00  0.00     0.166 HD
BRANCH  15  20
HETATM   20  C   UNK N   1      35.093  13.777   9.656  0.00  0.00     0.155 C 
HETATM   21  N   UNK N   1      35.941  13.675   8.499  0.00  0.00    -0.339 N 
HETATM   22  C   UNK N   1      35.554  13.242   7.247  0.00  0.00     0.243 C 
HETATM   23  C   UNK N   1      37.284  14.136   8.731  0.00  0.00     0.127 C 
HETATM   24  O   UNK N   1      36.393  13.224   6.357  0.00  0.00    -0.271 OA
HETATM   25  C   UNK N   1      37.339  14.563  10.187  0.00  0.00     0.022 C 
HETATM   26  C   UNK N   1      35.913  14.514  10.705  0.00  0.00     0.035 C 
BRANCH  22  27
HETATM   27  C   UNK N   1      34.119  12.804   6.882  0.00  0.00     0.182 C 
BRANCH  27  28
HETATM   28  N   UNK N   1      33.684  13.450   5.648  0.00  0.00    -0.323 N 
HETATM   29  C   UNK N   1      32.385  13.805   5.411  0.00  0.00     0.360 C 
HETATM   30  O   UNK N   1      31.536  13.676   6.284  0.00  0.00    -0.239 OA
HETATM   31  H   UNK N   1      34.357  13.639   4.955  0.00  0.00     0.165 HD
BRANCH  29  32
HETATM   32  O   UNK N   1      32.035  14.262   4.181  0.00  0.00    -0.309 OA
HETATM   33  C   UNK N   1      32.959  14.769   3.293  0.00  0.00     0.215 C 
ENDBRANCH  29  32
ENDBRANCH  27  28
BRANCH  27  34
HETATM   34  C   UNK N   1      34.152  11.262   6.673  0.00  0.00     0.009 C 
HETATM   35  C   UNK N   1      33.063  10.569   7.459  0.00  0.00     0.012 C 
HETATM   36  C   UNK N   1      34.199  10.721   5.248  0.00  0.00     0.012 C 
ENDBRANCH  27  34
ENDBRANCH  22  27
ENDBRANCH  15  20
ENDBRANCH  10  13
ENDBRANCH   2   7
BRANCH   1  37
HETATM   37  C   UNK N   1      25.874  18.135   5.163  0.00  0.00     0.059 A 
HETATM   38  N   UNK N   1      24.876  17.247   5.235  0.00  0.00    -0.342 N 
HETATM   39  C   UNK N   1      23.959  17.787   4.431  0.00  0.00     0.105 A 
HETATM   40  H   UNK N   1      24.830  16.410   5.751  0.00  0.00     0.167 HD
HETATM   41  N   UNK N   1      24.378  18.918   3.826  0.00  0.00    -0.352 N 
HETATM   42  C   UNK N   1      25.598  19.121   4.271  0.00  0.00     0.119 A 
ATOM     43  HN  UNK N   1      23.858  19.494   3.165  1.00  0.00     0.166 HD
BRANCH  39  44
HETATM   44  C   UNK N   1      22.564  17.367   4.357  0.00  0.00     0.155 C 
HETATM   45  N   UNK N   1      22.564  15.998   4.801  0.00  0.00    -0.339 N 
HETATM   46  C   UNK N   1      23.193  14.952   4.147  0.00  0.00     0.243 C 
HETATM   47  C   UNK N   1      21.983  15.810   6.107  0.00  0.00     0.127 C 
HETATM   48  O   UNK N   1      23.194  13.860   4.698  0.00  0.00    -0.271 OA
HETATM   49  C   UNK N   1      21.683  17.205   6.632  0.00  0.00     0.022 C 
HETATM   50  C   UNK N   1      21.796  18.134   5.429  0.00  0.00     0.035 C 
BRANCH  46  51
HETATM   51  C   UNK N   1      23.897  15.059   2.752  0.00  0.00     0.182 C 
BRANCH  51  52
HETATM   52  N   UNK N   1      25.258  14.532   2.737  0.00  0.00    -0.323 N 
HETATM   53  C   UNK N   1      26.369  15.273   2.471  0.00  0.00     0.360 C 
HETATM   54  O   UNK N   1      26.272  16.498   2.313  0.00  0.00    -0.239 OA
HETATM   55  H   UNK N   1      25.381  13.575   2.934  0.00  0.00     0.165 HD
BRANCH  53  56
HETATM   56  O   UNK N   1      27.576  14.678   2.336  0.00  0.00    -0.309 OA
HETATM   57  C   UNK N   1      27.865  13.431   2.843  0.00  0.00     0.215 C 
ENDBRANCH  53  56
ENDBRANCH  51  52
BRANCH  51  58
HETATM   58  C   UNK N   1      23.045  14.236   1.748  0.00  0.00     0.009 C 
HETATM   59  C   UNK N   1      21.737  14.940   1.468  0.00  0.00     0.012 C 
HETATM   60  C   UNK N   1      23.688  13.810   0.437  0.00  0.00     0.012 C 
ENDBRANCH  51  58
ENDBRANCH  46  51
ENDBRANCH  39  44
ENDBRANCH   1  37
TORSDOF 13
ENDMDL
MODEL 9
REMARK VINA RESULT:      -7.3      6.089     10.242
REMARK  13 active torsions:
REMARK  status: ('A' for Active; 'I' for Inactive)
REMARK    1  A    between atoms: O_3  and  C_39 
REMARK    2  A    between atoms: O_4  and  C_40 
REMARK       I    between atoms: N_7  and  C_21 
REMARK       I    between atoms: N_8  and  C_22 
REMARK    3  A    between atoms: N_15  and  C_23 
REMARK       I    between atoms: N_15  and  C_39 
REMARK    4  A    between atoms: N_16  and  C_24 
REMARK       I    between atoms: N_16  and  C_40 
REMARK    5  A    between atoms: C_17  and  C_20 
REMARK    6  A    between atoms: C_18  and  C_19 
REMARK    7  A    between atoms: C_21  and  C_23 
REMARK    8  A    between atoms: C_22  and  C_24 
REMARK    9  A    between atoms: C_23  and  C_33 
REMARK   10  A    between atoms: C_24  and  C_34 
REMARK   11  A    between atoms: C_29  and  C_37 
REMARK   12  A    between atoms: C_30  and  C_38 
REMARK   13  A    between atoms: C_41  and  C_42 
ROOT
HETATM    1  C   UNK N   1      32.489  16.355   6.185  0.00  0.00    -0.009 C 
HETATM    2  C   UNK N   1      34.192  14.632   7.371  0.00  0.00     0.064 C 
HETATM    3  C   UNK N   1      33.847  16.486   5.916  0.00  0.00     0.011 C 
HETATM    4  C   UNK N   1      31.987  15.205   6.769  0.00  0.00     0.011 C 
HETATM    5  C   UNK N   1      34.718  15.635   6.541  0.00  0.00    -0.012 C 
HETATM    6  C   UNK N   1      32.841  14.311   7.321  0.00  0.00    -0.012 C 
ENDROOT
BRANCH   2   7
HETATM    7  C   UNK N   1      34.593  14.748   8.742  0.00  0.00    -0.047 C 
HETATM    8  C   UNK N   1      33.671  15.204   9.689  0.00  0.00     0.005 C 
HETATM    9  C   UNK N   1      34.109  15.532  10.945  0.00  0.00    -0.011 C 
HETATM   10  C   UNK N   1      35.443  15.329  11.291  0.00  0.00     0.082 C 
HETATM   11  C   UNK N   1      36.385  15.224  10.273  0.00  0.00    -0.011 C 
HETATM   12  C   UNK N   1      35.965  14.873   9.016  0.00  0.00     0.005 C 
BRANCH  10  13
HETATM   13  C   UNK N   1      35.531  14.104  12.007  0.00  0.00     0.037 A 
HETATM   14  N   UNK N   1      34.608  13.157  12.020  0.00  0.00    -0.346 N 
HETATM   15  C   UNK N   1      34.989  12.375  13.034  0.00  0.00     0.104 A 
HETATM   16  H   UNK N   1      33.830  13.054  11.426  0.00  0.00     0.167 HD
HETATM   17  N   UNK N   1      36.087  12.811  13.685  0.00  0.00    -0.352 N 
HETATM   18  C   UNK N   1      36.432  13.921  13.048  0.00  0.00     0.115 A 
ATOM     19  HN  UNK N   1      36.548  12.382  14.487  1.00  0.00     0.166 HD
BRANCH  15  20
HETATM   20  C   UNK N   1      34.343  11.113  13.338  0.00  0.00     0.155 C 
HETATM   21  N   UNK N   1      35.327  10.066  13.277  0.00  0.00    -0.339 N 
HETATM   22  C   UNK N   1      36.130   9.771  12.194  0.00  0.00     0.243 C 
HETATM   23  C   UNK N   1      35.470   9.341  14.512  0.00  0.00     0.127 C 
HETATM   24  O   UNK N   1      36.932   8.853  12.302  0.00  0.00    -0.271 OA
HETATM   25  C   UNK N   1      34.468   9.950  15.477  0.00  0.00     0.022 C 
HETATM   26  C   UNK N   1      33.905  11.182  14.793  0.00  0.00     0.035 C 
BRANCH  22  27
HETATM   27  C   UNK N   1      36.106  10.542  10.856  0.00  0.00     0.182 C 
BRANCH  27  28
HETATM   28  N   UNK N   1      37.340  10.314  10.110  0.00  0.00    -0.323 N 
HETATM   29  C   UNK N   1      38.341  11.241  10.026  0.00  0.00     0.360 C 
HETATM   30  O   UNK N   1      38.279  12.283  10.665  0.00  0.00    -0.239 OA
HETATM   31  H   UNK N   1      37.455   9.453   9.647  0.00  0.00     0.165 HD
BRANCH  29  32
HETATM   32  O   UNK N   1      39.387  11.014   9.190  0.00  0.00    -0.309 OA
HETATM   33  C   UNK N   1      40.114  12.039   8.624  0.00  0.00     0.215 C 
ENDBRANCH  29  32
ENDBRANCH  27  28
BRANCH  27  34
HETATM   34  C   UNK N   1      34.900   9.999  10.036  0.00  0.00     0.009 C 
HETATM   35  C   UNK N   1      34.275  11.077   9.182  0.00  0.00     0.012 C 
HETATM   36  C   UNK N   1      35.088   8.723   9.222  0.00  0.00     0.012 C 
ENDBRANCH  27  34
ENDBRANCH  22  27
ENDBRANCH  15  20
ENDBRANCH  10  13
ENDBRANCH   2   7
BRANCH   1  37
HETATM   37  C   UNK N   1      31.591  16.976   5.363  0.00  0.00     0.059 A 
HETATM   38  N   UNK N   1      30.299  17.183   5.642  0.00  0.00    -0.342 N 
HETATM   39  C   UNK N   1      29.754  17.246   4.426  0.00  0.00     0.105 A 
HETATM   40  H   UNK N   1      29.863  17.268   6.520  0.00  0.00     0.167 HD
HETATM   41  N   UNK N   1      30.637  17.021   3.432  0.00  0.00    -0.352 N 
HETATM   42  C   UNK N   1      31.792  16.825   4.028  0.00  0.00     0.119 A 
ATOM     43  HN  UNK N   1      30.448  17.006   2.430  1.00  0.00     0.166 HD
BRANCH  39  44
HETATM   44  C   UNK N   1      28.406  17.727   4.141  0.00  0.00     0.155 C 
HETATM   45  N   UNK N   1      27.554  17.011   5.053  0.00  0.00    -0.339 N 
HETATM   46  C   UNK N   1      27.357  15.640   5.041  0.00  0.00     0.243 C 
HETATM   47  C   UNK N   1      27.031  17.824   6.122  0.00  0.00     0.127 C 
HETATM   48  O   UNK N   1      26.684  15.158   5.943  0.00  0.00    -0.271 OA
HETATM   49  C   UNK N   1      27.700  19.181   5.977  0.00  0.00     0.022 C 
HETATM   50  C   UNK N   1      28.334  19.184   4.591  0.00  0.00     0.035 C 
BRANCH  46  51
HETATM   51  C   UNK N   1      27.921  14.660   3.958  0.00  0.00     0.182 C 
BRANCH  51  52
HETATM   52  N   UNK N   1      28.466  13.423   4.509  0.00  0.00    -0.323 N 
HETATM   53  C   UNK N   1      29.767  13.038   4.398  0.00  0.00     0.360 C 
HETATM   54  O   UNK N   1      30.596  13.798   3.879  0.00  0.00    -0.239 OA
HETATM   55  H   UNK N   1      27.851  12.828   4.995  0.00  0.00     0.165 HD
BRANCH  53  56
HETATM   56  O   UNK N   1      30.158  11.811   4.811  0.00  0.00    -0.309 OA
HETATM   57  C   UNK N   1      29.361  10.691   4.715  0.00  0.00     0.215 C 
ENDBRANCH  53  56
ENDBRANCH  51  52
BRANCH  51  58
HETATM   58  C   UNK N   1      26.742  14.296   3.015  0.00  0.00     0.009 C 
HETATM   59  C   UNK N   1      26.512  15.400   2.010  0.00  0.00     0.012 C 
HETATM   60  C   UNK N   1      26.779  12.953   2.300  0.00  0.00     0.012 C 
ENDBRANCH  51  58
ENDBRANCH  46  51
ENDBRANCH  39  44
ENDBRANCH   1  37
TORSDOF 13
ENDMDL
