MODEL 1
REMARK VINA RESULT:      -5.5      0.000      0.000
REMARK  9 active torsions:
REMARK  status: ('A' for Active; 'I' for Inactive)
REMARK    1  A    between atoms: C_2  and  C_3 
REMARK    2  A    between atoms: C_3  and  C_4 
REMARK    3  A    between atoms: C_4  and  N_5 
REMARK    4  A    between atoms: N_5  and  C_6 
REMARK    5  A    between atoms: C_9  and  C_12 
REMARK    6  A    between atoms: C_12  and  O_14 
REMARK    7  A    between atoms: O_14  and  C_15 
REMARK    8  A    between atoms: C_15  and  C_16 
REMARK    9  A    between atoms: C_16  and  N_17 
ROOT
HETATM    1  C   UNK N   1      31.376  17.085   6.233  0.00  0.00     0.028 A 
HETATM    2  C   UNK N   1      32.650  17.117   5.654  0.00  0.00     0.030 A 
HETATM    3  C   UNK N   1      33.763  17.483   6.427  0.00  0.00     0.020 A 
HETATM    4  C   UNK N   1      33.611  17.820   7.785  0.00  0.00     0.039 A 
HETATM    5  C   UNK N   1      32.330  17.783   8.348  0.00  0.00     0.020 A 
HETATM    6  C   UNK N   1      31.228  17.421   7.584  0.00  0.00     0.030 A 
ENDROOT
BRANCH   4   7
HETATM    7  C   UNK N   1      34.751  18.228   8.661  0.00  0.00     0.293 C 
HETATM    8  O   UNK N   1      35.334  19.269   8.405  0.00  0.00    -0.259 OA
BRANCH   7   9
HETATM    9  O   UNK N   1      35.192  17.502   9.722  0.00  0.00    -0.316 OA
BRANCH   9  10
HETATM   10  C   UNK N   1      35.295  16.135   9.794  0.00  0.00     0.209 C 
BRANCH  10  11
HETATM   11  C   UNK N   1      34.951  15.672  11.205  0.00  0.00     0.298 C 
BRANCH  11  12
HETATM   12  N   UNK N   1      36.040  14.902  11.793  0.00  0.00     0.082 N 
HETATM   13  C   UNK N   1      35.430  13.859  12.595  0.00  0.00     0.309 C 
HETATM   14  C   UNK N   1      36.755  14.227  10.721  0.00  0.00     0.309 C 
ENDBRANCH  11  12
ENDBRANCH  10  11
ENDBRANCH   9  10
ENDBRANCH   7   9
ENDBRANCH   4   7
BRANCH   1  15
HETATM   15  N   UNK N   1      30.243  16.716   5.464  0.00  0.00    -0.390 N 
HETATM   16  H   UNK N   1      30.035  15.765   5.316  0.00  0.00     0.159 HD
BRANCH  15  17
HETATM   17  C   UNK N   1      29.398  17.740   4.900  0.00  0.00     0.119 C 
BRANCH  17  18
HETATM   18  C   UNK N   1      28.030  17.768   5.538  0.00  0.00     0.019 C 
BRANCH  18  19
HETATM   19  C   UNK N   1      27.797  19.189   6.013  0.00  0.00    -0.003 C 
HETATM   20  C   UNK N   1      27.851  20.153   4.850  0.00  0.00     0.005 C 
ENDBRANCH  18  19
ENDBRANCH  17  18
ENDBRANCH  15  17
ENDBRANCH   1  15
TORSDOF 9
ENDMDL
MODEL 2
REMARK VINA RESULT:      -5.5      0.573      1.468
REMARK  9 active torsions:
REMARK  status: ('A' for Active; 'I' for Inactive)
REMARK    1  A    between atoms: C_2  and  C_3 
REMARK    2  A    between atoms: C_3  and  C_4 
REMARK    3  A    between atoms: C_4  and  N_5 
REMARK    4  A    between atoms: N_5  and  C_6 
REMARK    5  A    between atoms: C_9  and  C_12 
REMARK    6  A    between atoms: C_12  and  O_14 
REMARK    7  A    between atoms: O_14  and  C_15 
REMARK    8  A    between atoms: C_15  and  C_16 
REMARK    9  A    between atoms: C_16  and  N_17 
ROOT
HETATM    1  C   UNK N   1      30.959  17.144   6.568  0.00  0.00     0.028 A 
HETATM    2  C   UNK N   1      30.923  17.567   7.902  0.00  0.00     0.030 A 
HETATM    3  C   UNK N   1      32.113  17.913   8.561  0.00  0.00     0.020 A 
HETATM    4  C   UNK N   1      33.348  17.840   7.892  0.00  0.00     0.039 A 
HETATM    5  C   UNK N   1      33.367  17.414   6.559  0.00  0.00     0.020 A 
HETATM    6  C   UNK N   1      32.191  17.072   5.905  0.00  0.00     0.030 A 
ENDROOT
BRANCH   4   7
HETATM    7  C   UNK N   1      34.652  18.184   8.537  0.00  0.00     0.293 C 
HETATM    8  O   UNK N   1      35.341  19.049   8.023  0.00  0.00    -0.259 OA
BRANCH   7   9
HETATM    9  O   UNK N   1      35.129  17.580   9.657  0.00  0.00    -0.316 OA
BRANCH   9  10
HETATM   10  C   UNK N   1      34.914  16.279  10.042  0.00  0.00     0.209 C 
BRANCH  10  11
HETATM   11  C   UNK N   1      35.464  16.067  11.447  0.00  0.00     0.298 C 
BRANCH  11  12
HETATM   12  N   UNK N   1      35.606  14.649  11.754  0.00  0.00     0.082 N 
HETATM   13  C   UNK N   1      36.599  14.119  10.839  0.00  0.00     0.309 C 
HETATM   14  C   UNK N   1      36.173  14.524  13.088  0.00  0.00     0.309 C 
ENDBRANCH  11  12
ENDBRANCH  10  11
ENDBRANCH   9  10
ENDBRANCH   7   9
ENDBRANCH   4   7
BRANCH   1  15
HETATM   15  N   UNK N   1      29.766  16.792   5.889  0.00  0.00    -0.390 N 
HETATM   16  H   UNK N   1      29.360  15.906   6.030  0.00  0.00     0.159 HD
BRANCH  15  17
HETATM   17  C   UNK N   1      29.148  17.737   4.991  0.00  0.00     0.119 C 
BRANCH  17  18
HETATM   18  C   UNK N   1      28.203  18.671   5.706  0.00  0.00     0.019 C 
BRANCH  18  19
HETATM   19  C   UNK N   1      28.031  19.887   4.815  0.00  0.00    -0.003 C 
HETATM   20  C   UNK N   1      27.246  20.962   5.530  0.00  0.00     0.005 C 
ENDBRANCH  18  19
ENDBRANCH  17  18
ENDBRANCH  15  17
ENDBRANCH   1  15
TORSDOF 9
ENDMDL
MODEL 3
REMARK VINA RESULT:      -5.5     12.985     14.941
REMARK  9 active torsions:
REMARK  status: ('A' for Active; 'I' for Inactive)
REMARK    1  A    between atoms: C_2  and  C_3 
REMARK    2  A    between atoms: C_3  and  C_4 
REMARK    3  A    between atoms: C_4  and  N_5 
REMARK    4  A    between atoms: N_5  and  C_6 
REMARK    5  A    between atoms: C_9  and  C_12 
REMARK    6  A    between atoms: C_12  and  O_14 
REMARK    7  A    between atoms: O_14  and  C_15 
REMARK    8  A    between atoms: C_15  and  C_16 
REMARK    9  A    between atoms: C_16  and  N_17 
ROOT
HETATM    1  C   UNK N   1      26.707  24.211  -4.855  0.00  0.00     0.028 A 
HETATM    2  C   UNK N   1      27.872  23.839  -5.537  0.00  0.00     0.030 A 
HETATM    3  C   UNK N   1      29.027  23.498  -4.816  0.00  0.00     0.020 A 
HETATM    4  C   UNK N   1      29.028  23.524  -3.410  0.00  0.00     0.039 A 
HETATM    5  C   UNK N   1      27.855  23.900  -2.744  0.00  0.00     0.020 A 
HETATM    6  C   UNK N   1      26.710  24.238  -3.455  0.00  0.00     0.030 A 
ENDROOT
BRANCH   4   7
HETATM    7  C   UNK N   1      30.225  23.182  -2.583  0.00  0.00     0.293 C 
HETATM    8  O   UNK N   1      30.072  23.023  -1.383  0.00  0.00    -0.259 OA
BRANCH   7   9
HETATM    9  O   UNK N   1      31.482  23.052  -3.082  0.00  0.00    -0.316 OA
BRANCH   9  10
HETATM   10  C   UNK N   1      32.140  21.876  -3.347  0.00  0.00     0.209 C 
BRANCH  10  11
HETATM   11  C   UNK N   1      32.871  21.991  -4.679  0.00  0.00     0.298 C 
BRANCH  11  12
HETATM   12  N   UNK N   1      32.078  21.443  -5.772  0.00  0.00     0.082 N 
HETATM   13  C   UNK N   1      33.015  20.913  -6.746  0.00  0.00     0.309 C 
HETATM   14  C   UNK N   1      31.328  20.303  -5.266  0.00  0.00     0.309 C 
ENDBRANCH  11  12
ENDBRANCH  10  11
ENDBRANCH   9  10
ENDBRANCH   7   9
ENDBRANCH   4   7
BRANCH   1  15
HETATM   15  N   UNK N   1      25.533  24.559  -5.569  0.00  0.00    -0.390 N 
HETATM   16  H   UNK N   1      24.728  23.994  -5.502  0.00  0.00     0.159 HD
BRANCH  15  17
HETATM   17  C   UNK N   1      25.521  25.742  -6.394  0.00  0.00     0.119 C 
BRANCH  17  18
HETATM   18  C   UNK N   1      24.844  26.906  -5.715  0.00  0.00     0.019 C 
BRANCH  18  19
HETATM   19  C   UNK N   1      25.943  27.770  -5.125  0.00  0.00    -0.003 C 
HETATM   20  C   UNK N   1      25.718  27.976  -3.645  0.00  0.00     0.005 C 
ENDBRANCH  18  19
ENDBRANCH  17  18
ENDBRANCH  15  17
ENDBRANCH   1  15
TORSDOF 9
ENDMDL
MODEL 4
REMARK VINA RESULT:      -5.4      1.459      2.078
REMARK  9 active torsions:
REMARK  status: ('A' for Active; 'I' for Inactive)
REMARK    1  A    between atoms: C_2  and  C_3 
REMARK    2  A    between atoms: C_3  and  C_4 
REMARK    3  A    between atoms: C_4  and  N_5 
REMARK    4  A    between atoms: N_5  and  C_6 
REMARK    5  A    between atoms: C_9  and  C_12 
REMARK    6  A    between atoms: C_12  and  O_14 
REMARK    7  A    between atoms: O_14  and  C_15 
REMARK    8  A    between atoms: C_15  and  C_16 
REMARK    9  A    between atoms: C_16  and  N_17 
ROOT
HETATM    1  C   UNK N   1      30.410  17.556   4.787  0.00  0.00     0.028 A 
HETATM    2  C   UNK N   1      31.618  17.711   4.095  0.00  0.00     0.030 A 
HETATM    3  C   UNK N   1      32.837  17.596   4.780  0.00  0.00     0.020 A 
HETATM    4  C   UNK N   1      32.861  17.323   6.160  0.00  0.00     0.039 A 
HETATM    5  C   UNK N   1      31.645  17.171   6.836  0.00  0.00     0.020 A 
HETATM    6  C   UNK N   1      30.436  17.285   6.161  0.00  0.00     0.030 A 
ENDROOT
BRANCH   4   7
HETATM    7  C   UNK N   1      34.123  17.197   6.950  0.00  0.00     0.293 C 
HETATM    8  O   UNK N   1      34.683  18.219   7.312  0.00  0.00    -0.259 OA
BRANCH   7   9
HETATM    9  O   UNK N   1      34.699  16.011   7.280  0.00  0.00    -0.316 OA
BRANCH   9  10
HETATM   10  C   UNK N   1      34.416  15.241   8.380  0.00  0.00     0.209 C 
BRANCH  10  11
HETATM   11  C   UNK N   1      35.702  14.953   9.145  0.00  0.00     0.298 C 
BRANCH  11  12
HETATM   12  N   UNK N   1      35.559  15.260  10.563  0.00  0.00     0.082 N 
HETATM   13  C   UNK N   1      35.439  16.703  10.669  0.00  0.00     0.309 C 
HETATM   14  C   UNK N   1      34.294  14.711  11.025  0.00  0.00     0.309 C 
ENDBRANCH  11  12
ENDBRANCH  10  11
ENDBRANCH   9  10
ENDBRANCH   7   9
ENDBRANCH   4   7
BRANCH   1  15
HETATM   15  N   UNK N   1      29.170  17.670   4.109  0.00  0.00    -0.390 N 
HETATM   16  H   UNK N   1      29.069  17.307   3.199  0.00  0.00     0.159 HD
BRANCH  15  17
HETATM   17  C   UNK N   1      28.057  18.320   4.758  0.00  0.00     0.119 C 
BRANCH  17  18
HETATM   18  C   UNK N   1      27.874  19.742   4.288  0.00  0.00     0.019 C 
BRANCH  18  19
HETATM   19  C   UNK N   1      27.678  20.591   5.530  0.00  0.00    -0.003 C 
HETATM   20  C   UNK N   1      27.700  19.729   6.771  0.00  0.00     0.005 C 
ENDBRANCH  18  19
ENDBRANCH  17  18
ENDBRANCH  15  17
ENDBRANCH   1  15
TORSDOF 9
ENDMDL
MODEL 5
REMARK VINA RESULT:      -5.3     14.729     17.183
REMARK  9 active torsions:
REMARK  status: ('A' for Active; 'I' for Inactive)
REMARK    1  A    between atoms: C_2  and  C_3 
REMARK    2  A    between atoms: C_3  and  C_4 
REMARK    3  A    between atoms: C_4  and  N_5 
REMARK    4  A    between atoms: N_5  and  C_6 
REMARK    5  A    between atoms: C_9  and  C_12 
REMARK    6  A    between atoms: C_12  and  O_14 
REMARK    7  A    between atoms: O_14  and  C_15 
REMARK    8  A    between atoms: C_15  and  C_16 
REMARK    9  A    between atoms: C_16  and  N_17 
ROOT
HETATM    1  C   UNK N   1      25.897  26.912  -3.928  0.00  0.00     0.028 A 
HETATM    2  C   UNK N   1      26.570  25.800  -3.406  0.00  0.00     0.030 A 
HETATM    3  C   UNK N   1      26.642  24.612  -4.150  0.00  0.00     0.020 A 
HETATM    4  C   UNK N   1      26.046  24.525  -5.420  0.00  0.00     0.039 A 
HETATM    5  C   UNK N   1      25.377  25.646  -5.927  0.00  0.00     0.020 A 
HETATM    6  C   UNK N   1      25.303  26.822  -5.192  0.00  0.00     0.030 A 
ENDROOT
BRANCH   4   7
HETATM    7  C   UNK N   1      26.078  23.289  -6.260  0.00  0.00     0.293 C 
HETATM    8  O   UNK N   1      25.016  22.784  -6.587  0.00  0.00    -0.259 OA
BRANCH   7   9
HETATM    9  O   UNK N   1      27.220  22.679  -6.672  0.00  0.00    -0.316 OA
BRANCH   9  10
HETATM   10  C   UNK N   1      28.280  23.272  -7.314  0.00  0.00     0.209 C 
BRANCH  10  11
HETATM   11  C   UNK N   1      29.482  23.314  -6.379  0.00  0.00     0.298 C 
BRANCH  11  12
HETATM   12  N   UNK N   1      29.437  22.232  -5.404  0.00  0.00     0.082 N 
HETATM   13  C   UNK N   1      30.352  21.207  -5.874  0.00  0.00     0.309 C 
HETATM   14  C   UNK N   1      29.985  22.723  -4.149  0.00  0.00     0.309 C 
ENDBRANCH  11  12
ENDBRANCH  10  11
ENDBRANCH   9  10
ENDBRANCH   7   9
ENDBRANCH   4   7
BRANCH   1  15
HETATM   15  N   UNK N   1      25.815  28.118  -3.188  0.00  0.00    -0.390 N 
HETATM   16  H   UNK N   1      25.018  28.311  -2.644  0.00  0.00     0.159 HD
BRANCH  15  17
HETATM   17  C   UNK N   1      26.905  29.062  -3.236  0.00  0.00     0.119 C 
BRANCH  17  18
HETATM   18  C   UNK N   1      26.659  30.168  -4.233  0.00  0.00     0.019 C 
BRANCH  18  19
HETATM   19  C   UNK N   1      27.892  30.249  -5.112  0.00  0.00    -0.003 C 
HETATM   20  C   UNK N   1      27.854  29.176  -6.177  0.00  0.00     0.005 C 
ENDBRANCH  18  19
ENDBRANCH  17  18
ENDBRANCH  15  17
ENDBRANCH   1  15
TORSDOF 9
ENDMDL
MODEL 6
REMARK VINA RESULT:      -5.2      1.813      2.962
REMARK  9 active torsions:
REMARK  status: ('A' for Active; 'I' for Inactive)
REMARK    1  A    between atoms: C_2  and  C_3 
REMARK    2  A    between atoms: C_3  and  C_4 
REMARK    3  A    between atoms: C_4  and  N_5 
REMARK    4  A    between atoms: N_5  and  C_6 
REMARK    5  A    between atoms: C_9  and  C_12 
REMARK    6  A    between atoms: C_12  and  O_14 
REMARK    7  A    between atoms: O_14  and  C_15 
REMARK    8  A    between atoms: C_15  and  C_16 
REMARK    9  A    between atoms: C_16  and  N_17 
ROOT
HETATM    1  C   UNK N   1      31.451  17.023   5.758  0.00  0.00     0.028 A 
HETATM    2  C   UNK N   1      31.126  17.196   7.109  0.00  0.00     0.030 A 
HETATM    3  C   UNK N   1      32.120  17.571   8.027  0.00  0.00     0.020 A 
HETATM    4  C   UNK N   1      33.445  17.776   7.603  0.00  0.00     0.039 A 
HETATM    5  C   UNK N   1      33.753  17.599   6.248  0.00  0.00     0.020 A 
HETATM    6  C   UNK N   1      32.771  17.228   5.338  0.00  0.00     0.030 A 
ENDROOT
BRANCH   4   7
HETATM    7  C   UNK N   1      34.552  18.166   8.528  0.00  0.00     0.293 C 
HETATM    8  O   UNK N   1      35.269  19.101   8.211  0.00  0.00    -0.259 OA
BRANCH   7   9
HETATM    9  O   UNK N   1      34.822  17.533   9.700  0.00  0.00    -0.316 OA
BRANCH   9  10
HETATM   10  C   UNK N   1      35.179  16.216   9.857  0.00  0.00     0.209 C 
BRANCH  10  11
HETATM   11  C   UNK N   1      35.464  15.938  11.327  0.00  0.00     0.298 C 
BRANCH  11  12
HETATM   12  N   UNK N   1      34.900  14.662  11.747  0.00  0.00     0.082 N 
HETATM   13  C   UNK N   1      34.771  13.847  10.552  0.00  0.00     0.309 C 
HETATM   14  C   UNK N   1      35.871  13.989  12.596  0.00  0.00     0.309 C 
ENDBRANCH  11  12
ENDBRANCH  10  11
ENDBRANCH   9  10
ENDBRANCH   7   9
ENDBRANCH   4   7
BRANCH   1  15
HETATM   15  N   UNK N   1      30.458  16.645   4.820  0.00  0.00    -0.390 N 
HETATM   16  H   UNK N   1      30.201  17.262   4.097  0.00  0.00     0.159 HD
BRANCH  15  17
HETATM   17  C   UNK N   1      29.827  15.352   4.928  0.00  0.00     0.119 C 
BRANCH  17  18
HETATM   18  C   UNK N   1      30.766  14.226   4.573  0.00  0.00     0.019 C 
BRANCH  18  19
HETATM   19  C   UNK N   1      31.149  14.418   3.118  0.00  0.00    -0.003 C 
HETATM   20  C   UNK N   1      32.631  14.189   2.925  0.00  0.00     0.005 C 
ENDBRANCH  18  19
ENDBRANCH  17  18
ENDBRANCH  15  17
ENDBRANCH   1  15
TORSDOF 9
ENDMDL
MODEL 7
REMARK VINA RESULT:      -5.1      1.771      2.590
REMARK  9 active torsions:
REMARK  status: ('A' for Active; 'I' for Inactive)
REMARK    1  A    between atoms: C_2  and  C_3 
REMARK    2  A    between atoms: C_3  and  C_4 
REMARK    3  A    between atoms: C_4  and  N_5 
REMARK    4  A    between atoms: N_5  and  C_6 
REMARK    5  A    between atoms: C_9  and  C_12 
REMARK    6  A    between atoms: C_12  and  O_14 
REMARK    7  A    between atoms: O_14  and  C_15 
REMARK    8  A    between atoms: C_15  and  C_16 
REMARK    9  A    between atoms: C_16  and  N_17 
ROOT
HETATM    1  C   UNK N   1      31.606  16.857   7.310  0.00  0.00     0.028 A 
HETATM    2  C   UNK N   1      31.807  15.606   7.907  0.00  0.00     0.030 A 
HETATM    3  C   UNK N   1      32.906  15.403   8.756  0.00  0.00     0.020 A 
HETATM    4  C   UNK N   1      33.812  16.447   9.017  0.00  0.00     0.039 A 
HETATM    5  C   UNK N   1      33.596  17.692   8.412  0.00  0.00     0.020 A 
HETATM    6  C   UNK N   1      32.509  17.894   7.571  0.00  0.00     0.030 A 
ENDROOT
BRANCH   4   7
HETATM    7  C   UNK N   1      35.006  16.296   9.903  0.00  0.00     0.293 C 
HETATM    8  O   UNK N   1      35.233  17.171  10.723  0.00  0.00    -0.259 OA
BRANCH   7   9
HETATM    9  O   UNK N   1      35.869  15.248   9.843  0.00  0.00    -0.316 OA
BRANCH   9  10
HETATM   10  C   UNK N   1      35.753  14.052  10.508  0.00  0.00     0.209 C 
BRANCH  10  11
HETATM   11  C   UNK N   1      36.478  14.139  11.844  0.00  0.00     0.298 C 
BRANCH  11  12
HETATM   12  N   UNK N   1      35.555  13.995  12.963  0.00  0.00     0.082 N 
HETATM   13  C   UNK N   1      35.027  12.644  12.898  0.00  0.00     0.309 C 
HETATM   14  C   UNK N   1      36.316  14.077  14.199  0.00  0.00     0.309 C 
ENDBRANCH  11  12
ENDBRANCH  10  11
ENDBRANCH   9  10
ENDBRANCH   7   9
ENDBRANCH   4   7
BRANCH   1  15
HETATM   15  N   UNK N   1      30.501  17.076   6.451  0.00  0.00    -0.390 N 
HETATM   16  H   UNK N   1      30.646  17.238   5.490  0.00  0.00     0.159 HD
BRANCH  15  17
HETATM   17  C   UNK N   1      29.162  17.063   6.989  0.00  0.00     0.119 C 
BRANCH  17  18
HETATM   18  C   UNK N   1      28.777  18.389   7.596  0.00  0.00     0.019 C 
BRANCH  18  19
HETATM   19  C   UNK N   1      28.520  18.138   9.070  0.00  0.00    -0.003 C 
HETATM   20  C   UNK N   1      29.686  18.623   9.901  0.00  0.00     0.005 C 
ENDBRANCH  18  19
ENDBRANCH  17  18
ENDBRANCH  15  17
ENDBRANCH   1  15
TORSDOF 9
ENDMDL
MODEL 8
REMARK VINA RESULT:      -5.1      8.450     12.192
REMARK  9 active torsions:
REMARK  status: ('A' for Active; 'I' for Inactive)
REMARK    1  A    between atoms: C_2  and  C_3 
REMARK    2  A    between atoms: C_3  and  C_4 
REMARK    3  A    between atoms: C_4  and  N_5 
REMARK    4  A    between atoms: N_5  and  C_6 
REMARK    5  A    between atoms: C_9  and  C_12 
REMARK    6  A    between atoms: C_12  and  O_14 
REMARK    7  A    between atoms: O_14  and  C_15 
REMARK    8  A    between atoms: C_15  and  C_16 
REMARK    9  A    between atoms: C_16  and  N_17 
ROOT
HETATM    1  C   UNK N   1      25.576  19.201   3.567  0.00  0.00     0.028 A 
HETATM    2  C   UNK N   1      24.766  18.182   4.082  0.00  0.00     0.030 A 
HETATM    3  C   UNK N   1      23.368  18.296   4.016  0.00  0.00     0.020 A 
HETATM    4  C   UNK N   1      22.769  19.427   3.433  0.00  0.00     0.039 A 
HETATM    5  C   UNK N   1      23.594  20.438   2.923  0.00  0.00     0.020 A 
HETATM    6  C   UNK N   1      24.977  20.327   2.988  0.00  0.00     0.030 A 
ENDROOT
BRANCH   4   7
HETATM    7  C   UNK N   1      21.289  19.616   3.339  0.00  0.00     0.293 C 
HETATM    8  O   UNK N   1      20.734  20.275   4.203  0.00  0.00    -0.259 OA
BRANCH   7   9
HETATM    9  O   UNK N   1      20.517  19.085   2.355  0.00  0.00    -0.316 OA
BRANCH   9  10
HETATM   10  C   UNK N   1      20.236  17.754   2.162  0.00  0.00     0.209 C 
BRANCH  10  11
HETATM   11  C   UNK N   1      19.578  17.186   3.413  0.00  0.00     0.298 C 
BRANCH  11  12
HETATM   12  N   UNK N   1      20.339  16.066   3.953  0.00  0.00     0.082 N 
HETATM   13  C   UNK N   1      20.468  16.296   5.380  0.00  0.00     0.309 C 
HETATM   14  C   UNK N   1      19.544  14.858   3.805  0.00  0.00     0.309 C 
ENDBRANCH  11  12
ENDBRANCH  10  11
ENDBRANCH   9  10
ENDBRANCH   7   9
ENDBRANCH   4   7
BRANCH   1  15
HETATM   15  N   UNK N   1      26.988  19.100   3.627  0.00  0.00    -0.390 N 
HETATM   16  H   UNK N   1      27.460  18.437   3.073  0.00  0.00     0.159 HD
BRANCH  15  17
HETATM   17  C   UNK N   1      27.731  19.973   4.504  0.00  0.00     0.119 C 
BRANCH  17  18
HETATM   18  C   UNK N   1      27.741  19.478   5.929  0.00  0.00     0.019 C 
BRANCH  18  19
HETATM   19  C   UNK N   1      27.567  20.695   6.817  0.00  0.00    -0.003 C 
HETATM   20  C   UNK N   1      26.389  21.523   6.357  0.00  0.00     0.005 C 
ENDBRANCH  18  19
ENDBRANCH  17  18
ENDBRANCH  15  17
ENDBRANCH   1  15
TORSDOF 9
ENDMDL
MODEL 9
REMARK VINA RESULT:      -4.9      6.454     12.563
REMARK  9 active torsions:
REMARK  status: ('A' for Active; 'I' for Inactive)
REMARK    1  A    between atoms: C_2  and  C_3 
REMARK    2  A    between atoms: C_3  and  C_4 
REMARK    3  A    between atoms: C_4  and  N_5 
REMARK    4  A    between atoms: N_5  and  C_6 
REMARK    5  A    between atoms: C_9  and  C_12 
REMARK    6  A    between atoms: C_12  and  O_14 
REMARK    7  A    between atoms: O_14  and  C_15 
REMARK    8  A    between atoms: C_15  and  C_16 
REMARK    9  A    between atoms: C_16  and  N_17 
ROOT
HETATM    1  C   UNK N   1      35.541  11.767  19.285  0.00  0.00     0.028 A 
HETATM    2  C   UNK N   1      35.299  13.088  18.890  0.00  0.00     0.030 A 
HETATM    3  C   UNK N   1      35.210  13.406  17.526  0.00  0.00     0.020 A 
HETATM    4  C   UNK N   1      35.361  12.408  16.546  0.00  0.00     0.039 A 
HETATM    5  C   UNK N   1      35.603  11.092  16.959  0.00  0.00     0.020 A 
HETATM    6  C   UNK N   1      35.692  10.775  18.309  0.00  0.00     0.030 A 
ENDROOT
BRANCH   4   7
HETATM    7  C   UNK N   1      35.288  12.680  15.079  0.00  0.00     0.293 C 
HETATM    8  O   UNK N   1      34.190  12.684  14.545  0.00  0.00    -0.259 OA
BRANCH   7   9
HETATM    9  O   UNK N   1      36.372  12.910  14.293  0.00  0.00    -0.316 OA
BRANCH   9  10
HETATM   10  C   UNK N   1      36.430  12.808  12.925  0.00  0.00     0.209 C 
BRANCH  10  11
HETATM   11  C   UNK N   1      36.482  14.202  12.312  0.00  0.00     0.298 C 
BRANCH  11  12
HETATM   12  N   UNK N   1      35.167  14.629  11.849  0.00  0.00     0.082 N 
HETATM   13  C   UNK N   1      35.319  15.985  11.352  0.00  0.00     0.309 C 
HETATM   14  C   UNK N   1      34.798  13.814  10.702  0.00  0.00     0.309 C 
ENDBRANCH  11  12
ENDBRANCH  10  11
ENDBRANCH   9  10
ENDBRANCH   7   9
ENDBRANCH   4   7
BRANCH   1  15
HETATM   15  N   UNK N   1      35.633  11.430  20.659  0.00  0.00    -0.390 N 
HETATM   16  H   UNK N   1      35.592  12.136  21.345  0.00  0.00     0.159 HD
BRANCH  15  17
HETATM   17  C   UNK N   1      35.789  10.050  21.049  0.00  0.00     0.119 C 
BRANCH  17  18
HETATM   18  C   UNK N   1      34.644   9.565  21.903  0.00  0.00     0.019 C 
BRANCH  18  19
HETATM   19  C   UNK N   1      33.529   9.164  20.956  0.00  0.00    -0.003 C 
HETATM   20  C   UNK N   1      32.202   9.699  21.443  0.00  0.00     0.005 C 
ENDBRANCH  18  19
ENDBRANCH  17  18
ENDBRANCH  15  17
ENDBRANCH   1  15
TORSDOF 9
ENDMDL
