MODEL 1
REMARK VINA RESULT:      -6.3      0.000      0.000
REMARK  12 active torsions:
REMARK  status: ('A' for Active; 'I' for Inactive)
REMARK    1  A    between atoms: O_2  and  C_8 
REMARK    2  A    between atoms: O_2  and  C_9 
REMARK    3  A    between atoms: O_3  and  C_10 
REMARK    4  A    between atoms: O_3  and  C_15 
REMARK    5  A    between atoms: O_4  and  C_11 
REMARK    6  A    between atoms: O_4  and  C_24 
REMARK    7  A    between atoms: N_5  and  C_14 
REMARK    8  A    between atoms: C_8  and  C_10 
REMARK    9  A    between atoms: C_9  and  C_11 
REMARK   10  A    between atoms: C_12  and  C_16 
REMARK   11  A    between atoms: C_13  and  C_19 
REMARK   12  A    between atoms: C_24  and  C_26 
ROOT
HETATM    1  N   UNK N   1      33.761  14.311  10.497  0.00  0.00    -0.346 N 
ATOM      2  HN  UNK N   1      33.354  13.392  10.676  1.00  0.00     0.167 HD
HETATM    3  C   UNK N   1      33.950  16.235   9.155  0.00  0.00    -0.021 A 
HETATM    4  C   UNK N   1      34.637  14.835  11.397  0.00  0.00     0.141 A 
HETATM    5  C   UNK N   1      34.952  16.747   9.991  0.00  0.00     0.017 A 
HETATM    6  C   UNK N   1      35.301  16.039  11.123  0.00  0.00     0.057 A 
HETATM    7  C   UNK N   1      33.419  14.970   9.383  0.00  0.00     0.101 A 
ENDROOT
BRANCH   3   8
HETATM    8  C   UNK N   1      33.078  17.214   8.593  0.00  0.00     0.013 C 
HETATM    9  C   UNK N   1      31.951  16.604   8.176  0.00  0.00     0.012 C 
BRANCH   9  10
HETATM   10  C   UNK N   1      30.727  17.299   8.079  0.00  0.00    -0.036 A 
HETATM   11  C   UNK N   1      30.026  17.338   6.893  0.00  0.00     0.013 A 
HETATM   12  C   UNK N   1      28.851  18.065   6.830  0.00  0.00     0.030 A 
HETATM   13  C   UNK N   1      28.395  18.781   7.966  0.00  0.00     0.027 A 
HETATM   14  C   UNK N   1      29.125  18.715   9.162  0.00  0.00     0.030 A 
HETATM   15  C   UNK N   1      30.277  17.958   9.223  0.00  0.00     0.013 A 
BRANCH  13  16
HETATM   16  N   UNK N   1      27.240  19.603   7.925  0.00  0.00    -0.394 N 
HETATM   17  C   UNK N   1      26.975  20.561   6.878  0.00  0.00     0.146 C 
HETATM   18  H   UNK N   1      26.552  19.520   8.689  0.00  0.00     0.159 HD
ENDBRANCH  13  16
ENDBRANCH   9  10
ENDBRANCH   3   8
BRANCH   4  19
HETATM   19  O   UNK N   1      34.828  14.180  12.541  0.00  0.00    -0.334 OA
BRANCH  19  20
HETATM   20  C   UNK N   1      36.083  13.800  12.907  0.00  0.00     0.203 C 
BRANCH  20  21
HETATM   21  C   UNK N   1      36.478  14.563  14.189  0.00  0.00     0.194 C 
BRANCH  21  22
HETATM   22  O   UNK N   1      36.960  13.687  15.174  0.00  0.00    -0.387 OA
BRANCH  22  23
HETATM   23  C   UNK N   1      36.914  12.338  14.745  0.00  0.00     0.193 C 
BRANCH  23  24
HETATM   24  C   UNK N   1      36.260  11.426  15.791  0.00  0.00     0.193 C 
BRANCH  24  25
HETATM   25  O   UNK N   1      35.285  12.144  16.528  0.00  0.00    -0.387 OA
BRANCH  25  26
HETATM   26  C   UNK N   1      35.373  11.944  17.918  0.00  0.00     0.199 C 
BRANCH  26  27
HETATM   27  C   UNK N   1      35.130  13.243  18.679  0.00  0.00     0.248 C 
HETATM   28  F   UNK N   1      35.535  14.313  17.907  0.00  0.00    -0.253 F 
ENDBRANCH  26  27
ENDBRANCH  25  26
ENDBRANCH  24  25
ENDBRANCH  23  24
ENDBRANCH  22  23
ENDBRANCH  21  22
ENDBRANCH  20  21
ENDBRANCH  19  20
ENDBRANCH   4  19
TORSDOF 12
ENDMDL
MODEL 2
REMARK VINA RESULT:      -6.3      1.587      2.454
REMARK  12 active torsions:
REMARK  status: ('A' for Active; 'I' for Inactive)
REMARK    1  A    between atoms: O_2  and  C_8 
REMARK    2  A    between atoms: O_2  and  C_9 
REMARK    3  A    between atoms: O_3  and  C_10 
REMARK    4  A    between atoms: O_3  and  C_15 
REMARK    5  A    between atoms: O_4  and  C_11 
REMARK    6  A    between atoms: O_4  and  C_24 
REMARK    7  A    between atoms: N_5  and  C_14 
REMARK    8  A    between atoms: C_8  and  C_10 
REMARK    9  A    between atoms: C_9  and  C_11 
REMARK   10  A    between atoms: C_12  and  C_16 
REMARK   11  A    between atoms: C_13  and  C_19 
REMARK   12  A    between atoms: C_24  and  C_26 
ROOT
HETATM    1  N   UNK N   1      33.786  15.777   9.020  0.00  0.00    -0.346 N 
ATOM      2  HN  UNK N   1      33.777  15.031   9.717  1.00  0.00     0.167 HD
HETATM    3  C   UNK N   1      33.095  16.641   6.942  0.00  0.00    -0.021 A 
HETATM    4  C   UNK N   1      34.489  16.914   9.275  0.00  0.00     0.141 A 
HETATM    5  C   UNK N   1      33.911  17.767   7.113  0.00  0.00     0.017 A 
HETATM    6  C   UNK N   1      34.618  17.905   8.291  0.00  0.00     0.057 A 
HETATM    7  C   UNK N   1      33.106  15.612   7.878  0.00  0.00     0.101 A 
ENDROOT
BRANCH   3   8
HETATM    8  C   UNK N   1      31.865  16.888   6.264  0.00  0.00     0.013 C 
HETATM    9  C   UNK N   1      30.880  17.004   7.178  0.00  0.00     0.012 C 
BRANCH   9  10
HETATM   10  C   UNK N   1      29.710  17.747   6.913  0.00  0.00    -0.036 A 
HETATM   11  C   UNK N   1      29.211  17.850   5.633  0.00  0.00     0.013 A 
HETATM   12  C   UNK N   1      28.084  18.622   5.412  0.00  0.00     0.030 A 
HETATM   13  C   UNK N   1      27.473  19.315   6.487  0.00  0.00     0.027 A 
HETATM   14  C   UNK N   1      27.999  19.182   7.781  0.00  0.00     0.030 A 
HETATM   15  C   UNK N   1      29.102  18.383   7.995  0.00  0.00     0.013 A 
BRANCH  13  16
HETATM   16  N   UNK N   1      26.365  20.180   6.294  0.00  0.00    -0.394 N 
HETATM   17  C   UNK N   1      26.197  21.435   6.987  0.00  0.00     0.146 C 
HETATM   18  H   UNK N   1      25.632  19.894   5.627  0.00  0.00     0.159 HD
ENDBRANCH  13  16
ENDBRANCH   9  10
ENDBRANCH   3   8
BRANCH   4  19
HETATM   19  O   UNK N   1      35.031  17.059  10.483  0.00  0.00    -0.334 OA
BRANCH  19  20
HETATM   20  C   UNK N   1      36.038  16.234  10.881  0.00  0.00     0.203 C 
BRANCH  20  21
HETATM   21  C   UNK N   1      35.536  15.370  12.056  0.00  0.00     0.194 C 
BRANCH  21  22
HETATM   22  O   UNK N   1      34.811  14.260  11.597  0.00  0.00    -0.387 OA
BRANCH  22  23
HETATM   23  C   UNK N   1      35.006  13.126  12.422  0.00  0.00     0.193 C 
BRANCH  23  24
HETATM   24  C   UNK N   1      35.825  13.463  13.676  0.00  0.00     0.193 C 
BRANCH  24  25
HETATM   25  O   UNK N   1      35.022  13.326  14.837  0.00  0.00    -0.387 OA
BRANCH  25  26
HETATM   26  C   UNK N   1      35.763  13.332  16.034  0.00  0.00     0.199 C 
BRANCH  26  27
HETATM   27  C   UNK N   1      34.846  13.272  17.250  0.00  0.00     0.248 C 
HETATM   28  F   UNK N   1      35.451  12.536  18.249  0.00  0.00    -0.253 F 
ENDBRANCH  26  27
ENDBRANCH  25  26
ENDBRANCH  24  25
ENDBRANCH  23  24
ENDBRANCH  22  23
ENDBRANCH  21  22
ENDBRANCH  20  21
ENDBRANCH  19  20
ENDBRANCH   4  19
TORSDOF 12
ENDMDL
MODEL 3
REMARK VINA RESULT:      -6.2      4.642     11.141
REMARK  12 active torsions:
REMARK  status: ('A' for Active; 'I' for Inactive)
REMARK    1  A    between atoms: O_2  and  C_8 
REMARK    2  A    between atoms: O_2  and  C_9 
REMARK    3  A    between atoms: O_3  and  C_10 
REMARK    4  A    between atoms: O_3  and  C_15 
REMARK    5  A    between atoms: O_4  and  C_11 
REMARK    6  A    between atoms: O_4  and  C_24 
REMARK    7  A    between atoms: N_5  and  C_14 
REMARK    8  A    between atoms: C_8  and  C_10 
REMARK    9  A    between atoms: C_9  and  C_11 
REMARK   10  A    between atoms: C_12  and  C_16 
REMARK   11  A    between atoms: C_13  and  C_19 
REMARK   12  A    between atoms: C_24  and  C_26 
ROOT
HETATM    1  N   UNK N   1      36.631  14.890  13.449  0.00  0.00    -0.346 N 
ATOM      2  HN  UNK N   1      37.092  15.799  13.502  1.00  0.00     0.167 HD
HETATM    3  C   UNK N   1      35.881  12.914  14.487  0.00  0.00    -0.021 A 
HETATM    4  C   UNK N   1      36.127  14.470  12.256  0.00  0.00     0.141 A 
HETATM    5  C   UNK N   1      35.469  12.395  13.252  0.00  0.00     0.017 A 
HETATM    6  C   UNK N   1      35.595  13.180  12.124  0.00  0.00     0.057 A 
HETATM    7  C   UNK N   1      36.536  14.140  14.554  0.00  0.00     0.101 A 
ENDROOT
BRANCH   3   8
HETATM    8  C   UNK N   1      35.056  12.558  15.594  0.00  0.00     0.013 C 
HETATM    9  C   UNK N   1      35.341  11.291  15.958  0.00  0.00     0.012 C 
BRANCH   9  10
HETATM   10  C   UNK N   1      35.121  10.834  17.274  0.00  0.00    -0.036 A 
HETATM   11  C   UNK N   1      34.672   9.553  17.514  0.00  0.00     0.013 A 
HETATM   12  C   UNK N   1      34.431   9.159  18.818  0.00  0.00     0.030 A 
HETATM   13  C   UNK N   1      34.618  10.074  19.885  0.00  0.00     0.027 A 
HETATM   14  C   UNK N   1      35.085  11.368  19.611  0.00  0.00     0.030 A 
HETATM   15  C   UNK N   1      35.356  11.738  18.310  0.00  0.00     0.013 A 
BRANCH  13  16
HETATM   16  N   UNK N   1      34.308   9.739  21.228  0.00  0.00    -0.394 N 
HETATM   17  C   UNK N   1      33.352  10.461  22.034  0.00  0.00     0.146 C 
HETATM   18  H   UNK N   1      34.797   8.940  21.659  0.00  0.00     0.159 HD
ENDBRANCH  13  16
ENDBRANCH   9  10
ENDBRANCH   3   8
BRANCH   4  19
HETATM   19  O   UNK N   1      36.143  15.324  11.233  0.00  0.00    -0.334 OA
BRANCH  19  20
HETATM   20  C   UNK N   1      35.276  16.373  11.207  0.00  0.00     0.203 C 
BRANCH  20  21
HETATM   21  C   UNK N   1      34.970  16.727   9.737  0.00  0.00     0.194 C 
BRANCH  21  22
HETATM   22  O   UNK N   1      35.335  18.051   9.447  0.00  0.00    -0.387 OA
BRANCH  22  23
HETATM   23  C   UNK N   1      34.686  18.533   8.284  0.00  0.00     0.193 C 
BRANCH  23  24
HETATM   24  C   UNK N   1      34.194  17.390   7.387  0.00  0.00     0.193 C 
BRANCH  24  25
HETATM   25  O   UNK N   1      34.210  17.793   6.027  0.00  0.00    -0.387 OA
BRANCH  25  26
HETATM   26  C   UNK N   1      33.278  17.104   5.228  0.00  0.00     0.199 C 
BRANCH  26  27
HETATM   27  C   UNK N   1      31.881  17.162   5.837  0.00  0.00     0.248 C 
HETATM   28  F   UNK N   1      30.986  17.629   4.896  0.00  0.00    -0.253 F 
ENDBRANCH  26  27
ENDBRANCH  25  26
ENDBRANCH  24  25
ENDBRANCH  23  24
ENDBRANCH  22  23
ENDBRANCH  21  22
ENDBRANCH  20  21
ENDBRANCH  19  20
ENDBRANCH   4  19
TORSDOF 12
ENDMDL
MODEL 4
REMARK VINA RESULT:      -6.2      4.072     10.581
REMARK  12 active torsions:
REMARK  status: ('A' for Active; 'I' for Inactive)
REMARK    1  A    between atoms: O_2  and  C_8 
REMARK    2  A    between atoms: O_2  and  C_9 
REMARK    3  A    between atoms: O_3  and  C_10 
REMARK    4  A    between atoms: O_3  and  C_15 
REMARK    5  A    between atoms: O_4  and  C_11 
REMARK    6  A    between atoms: O_4  and  C_24 
REMARK    7  A    between atoms: N_5  and  C_14 
REMARK    8  A    between atoms: C_8  and  C_10 
REMARK    9  A    between atoms: C_9  and  C_11 
REMARK   10  A    between atoms: C_12  and  C_16 
REMARK   11  A    between atoms: C_13  and  C_19 
REMARK   12  A    between atoms: C_24  and  C_26 
ROOT
HETATM    1  N   UNK N   1      37.449  13.267  11.804  0.00  0.00    -0.346 N 
ATOM      2  HN  UNK N   1      38.207  13.224  11.121  1.00  0.00     0.167 HD
HETATM    3  C   UNK N   1      36.454  12.519  13.802  0.00  0.00    -0.021 A 
HETATM    4  C   UNK N   1      36.443  14.165  11.623  0.00  0.00     0.141 A 
HETATM    5  C   UNK N   1      35.338  13.337  13.579  0.00  0.00     0.017 A 
HETATM    6  C   UNK N   1      35.331  14.167  12.477  0.00  0.00     0.057 A 
HETATM    7  C   UNK N   1      37.470  12.439  12.856  0.00  0.00     0.101 A 
ENDROOT
BRANCH   3   8
HETATM    8  C   UNK N   1      36.827  12.371  15.170  0.00  0.00     0.013 C 
HETATM    9  C   UNK N   1      35.789  12.742  15.946  0.00  0.00     0.012 C 
BRANCH   9  10
HETATM   10  C   UNK N   1      35.626  12.237  17.253  0.00  0.00    -0.036 A 
HETATM   11  C   UNK N   1      35.810  10.898  17.524  0.00  0.00     0.013 A 
HETATM   12  C   UNK N   1      35.600  10.438  18.812  0.00  0.00     0.030 A 
HETATM   13  C   UNK N   1      35.175  11.332  19.827  0.00  0.00     0.027 A 
HETATM   14  C   UNK N   1      35.005  12.691  19.523  0.00  0.00     0.030 A 
HETATM   15  C   UNK N   1      35.251  13.144  18.244  0.00  0.00     0.013 A 
BRANCH  13  16
HETATM   16  N   UNK N   1      34.871  10.891  21.141  0.00  0.00    -0.394 N 
HETATM   17  C   UNK N   1      33.710  10.101  21.472  0.00  0.00     0.146 C 
HETATM   18  H   UNK N   1      35.510  11.156  21.906  0.00  0.00     0.159 HD
ENDBRANCH  13  16
ENDBRANCH   9  10
ENDBRANCH   3   8
BRANCH   4  19
HETATM   19  O   UNK N   1      36.557  15.042  10.626  0.00  0.00    -0.334 OA
BRANCH  19  20
HETATM   20  C   UNK N   1      35.920  16.243  10.699  0.00  0.00     0.203 C 
BRANCH  20  21
HETATM   21  C   UNK N   1      34.996  16.389   9.473  0.00  0.00     0.194 C 
BRANCH  21  22
HETATM   22  O   UNK N   1      34.515  17.703   9.353  0.00  0.00    -0.387 OA
BRANCH  22  23
HETATM   23  C   UNK N   1      34.253  18.046   8.004  0.00  0.00     0.193 C 
BRANCH  23  24
HETATM   24  C   UNK N   1      32.833  17.652   7.578  0.00  0.00     0.193 C 
BRANCH  24  25
HETATM   25  O   UNK N   1      31.934  17.808   8.663  0.00  0.00    -0.387 OA
BRANCH  25  26
HETATM   26  C   UNK N   1      30.581  17.790   8.276  0.00  0.00     0.199 C 
BRANCH  26  27
HETATM   27  C   UNK N   1      29.663  17.675   9.488  0.00  0.00     0.248 C 
HETATM   28  F   UNK N   1      29.307  18.937   9.920  0.00  0.00    -0.253 F 
ENDBRANCH  26  27
ENDBRANCH  25  26
ENDBRANCH  24  25
ENDBRANCH  23  24
ENDBRANCH  22  23
ENDBRANCH  21  22
ENDBRANCH  20  21
ENDBRANCH  19  20
ENDBRANCH   4  19
TORSDOF 12
ENDMDL
MODEL 5
REMARK VINA RESULT:      -6.1      3.111      4.673
REMARK  12 active torsions:
REMARK  status: ('A' for Active; 'I' for Inactive)
REMARK    1  A    between atoms: O_2  and  C_8 
REMARK    2  A    between atoms: O_2  and  C_9 
REMARK    3  A    between atoms: O_3  and  C_10 
REMARK    4  A    between atoms: O_3  and  C_15 
REMARK    5  A    between atoms: O_4  and  C_11 
REMARK    6  A    between atoms: O_4  and  C_24 
REMARK    7  A    between atoms: N_5  and  C_14 
REMARK    8  A    between atoms: C_8  and  C_10 
REMARK    9  A    between atoms: C_9  and  C_11 
REMARK   10  A    between atoms: C_12  and  C_16 
REMARK   11  A    between atoms: C_13  and  C_19 
REMARK   12  A    between atoms: C_24  and  C_26 
ROOT
HETATM    1  N   UNK N   1      33.753  14.394  10.433  0.00  0.00    -0.346 N 
ATOM      2  HN  UNK N   1      33.351  13.476  10.626  1.00  0.00     0.167 HD
HETATM    3  C   UNK N   1      33.930  16.302   9.066  0.00  0.00    -0.021 A 
HETATM    4  C   UNK N   1      34.632  14.933  11.322  0.00  0.00     0.141 A 
HETATM    5  C   UNK N   1      34.934  16.828   9.890  0.00  0.00     0.017 A 
HETATM    6  C   UNK N   1      35.291  16.135  11.029  0.00  0.00     0.057 A 
HETATM    7  C   UNK N   1      33.404  15.038   9.313  0.00  0.00     0.101 A 
ENDROOT
BRANCH   3   8
HETATM    8  C   UNK N   1      33.052  17.270   8.496  0.00  0.00     0.013 C 
HETATM    9  C   UNK N   1      31.915  16.655   8.113  0.00  0.00     0.012 C 
BRANCH   9  10
HETATM   10  C   UNK N   1      30.693  17.353   8.019  0.00  0.00    -0.036 A 
HETATM   11  C   UNK N   1      30.003  17.419   6.827  0.00  0.00     0.013 A 
HETATM   12  C   UNK N   1      28.829  18.148   6.771  0.00  0.00     0.030 A 
HETATM   13  C   UNK N   1      28.362  18.838   7.919  0.00  0.00     0.027 A 
HETATM   14  C   UNK N   1      29.080  18.743   9.119  0.00  0.00     0.030 A 
HETATM   15  C   UNK N   1      30.231  17.985   9.174  0.00  0.00     0.013 A 
BRANCH  13  16
HETATM   16  N   UNK N   1      27.207  19.660   7.885  0.00  0.00    -0.394 N 
HETATM   17  C   UNK N   1      26.904  20.572   6.808  0.00  0.00     0.146 C 
HETATM   18  H   UNK N   1      26.549  19.614   8.678  0.00  0.00     0.159 HD
ENDBRANCH  13  16
ENDBRANCH   9  10
ENDBRANCH   3   8
BRANCH   4  19
HETATM   19  O   UNK N   1      34.831  14.293  12.473  0.00  0.00    -0.334 OA
BRANCH  19  20
HETATM   20  C   UNK N   1      36.096  14.005  12.883  0.00  0.00     0.203 C 
BRANCH  20  21
HETATM   21  C   UNK N   1      36.581  12.740  12.144  0.00  0.00     0.194 C 
BRANCH  21  22
HETATM   22  O   UNK N   1      37.841  12.945  11.560  0.00  0.00    -0.387 OA
BRANCH  22  23
HETATM   23  C   UNK N   1      37.826  12.675  10.169  0.00  0.00     0.193 C 
BRANCH  23  24
HETATM   24  C   UNK N   1      37.684  13.956   9.337  0.00  0.00     0.193 C 
BRANCH  24  25
HETATM   25  O   UNK N   1      36.519  13.891   8.531  0.00  0.00    -0.387 OA
BRANCH  25  26
HETATM   26  C   UNK N   1      36.732  13.266   7.288  0.00  0.00     0.199 C 
BRANCH  26  27
HETATM   27  C   UNK N   1      36.423  14.214   6.135  0.00  0.00     0.248 C 
HETATM   28  F   UNK N   1      35.792  15.342   6.620  0.00  0.00    -0.253 F 
ENDBRANCH  26  27
ENDBRANCH  25  26
ENDBRANCH  24  25
ENDBRANCH  23  24
ENDBRANCH  22  23
ENDBRANCH  21  22
ENDBRANCH  20  21
ENDBRANCH  19  20
ENDBRANCH   4  19
TORSDOF 12
ENDMDL
MODEL 6
REMARK VINA RESULT:      -6.0      4.481     10.216
REMARK  12 active torsions:
REMARK  status: ('A' for Active; 'I' for Inactive)
REMARK    1  A    between atoms: O_2  and  C_8 
REMARK    2  A    between atoms: O_2  and  C_9 
REMARK    3  A    between atoms: O_3  and  C_10 
REMARK    4  A    between atoms: O_3  and  C_15 
REMARK    5  A    between atoms: O_4  and  C_11 
REMARK    6  A    between atoms: O_4  and  C_24 
REMARK    7  A    between atoms: N_5  and  C_14 
REMARK    8  A    between atoms: C_8  and  C_10 
REMARK    9  A    between atoms: C_9  and  C_11 
REMARK   10  A    between atoms: C_12  and  C_16 
REMARK   11  A    between atoms: C_13  and  C_19 
REMARK   12  A    between atoms: C_24  and  C_26 
ROOT
HETATM    1  N   UNK N   1      37.243  12.798  11.286  0.00  0.00    -0.346 N 
ATOM      2  HN  UNK N   1      37.798  12.272  10.610  1.00  0.00     0.167 HD
HETATM    3  C   UNK N   1      36.234  12.976  13.405  0.00  0.00    -0.021 A 
HETATM    4  C   UNK N   1      36.807  14.045  10.958  0.00  0.00     0.141 A 
HETATM    5  C   UNK N   1      35.659  14.205  13.054  0.00  0.00     0.017 A 
HETATM    6  C   UNK N   1      35.946  14.745  11.816  0.00  0.00     0.057 A 
HETATM    7  C   UNK N   1      36.964  12.246  12.473  0.00  0.00     0.101 A 
ENDROOT
BRANCH   3   8
HETATM    8  C   UNK N   1      36.632  12.868  14.771  0.00  0.00     0.013 C 
HETATM    9  C   UNK N   1      35.603  13.247  15.555  0.00  0.00     0.012 C 
BRANCH   9  10
HETATM   10  C   UNK N   1      35.468  12.774  16.877  0.00  0.00    -0.036 A 
HETATM   11  C   UNK N   1      35.227  13.642  17.920  0.00  0.00     0.013 A 
HETATM   12  C   UNK N   1      35.141  13.140  19.206  0.00  0.00     0.030 A 
HETATM   13  C   UNK N   1      35.330  11.754  19.443  0.00  0.00     0.027 A 
HETATM   14  C   UNK N   1      35.565  10.894  18.361  0.00  0.00     0.030 A 
HETATM   15  C   UNK N   1      35.613  11.401  17.079  0.00  0.00     0.013 A 
BRANCH  13  16
HETATM   16  N   UNK N   1      35.330  11.208  20.752  0.00  0.00    -0.394 N 
HETATM   17  C   UNK N   1      34.831   9.892  21.072  0.00  0.00     0.146 C 
HETATM   18  H   UNK N   1      35.700  11.784  21.524  0.00  0.00     0.159 HD
ENDBRANCH  13  16
ENDBRANCH   9  10
ENDBRANCH   3   8
BRANCH   4  19
HETATM   19  O   UNK N   1      37.232  14.578   9.814  0.00  0.00    -0.334 OA
BRANCH  19  20
HETATM   20  C   UNK N   1      36.978  13.949   8.634  0.00  0.00     0.203 C 
BRANCH  20  21
HETATM   21  C   UNK N   1      35.646  14.482   8.065  0.00  0.00     0.194 C 
BRANCH  21  22
HETATM   22  O   UNK N   1      34.555  13.746   8.552  0.00  0.00    -0.387 OA
BRANCH  22  23
HETATM   23  C   UNK N   1      33.396  14.549   8.684  0.00  0.00     0.193 C 
BRANCH  23  24
HETATM   24  C   UNK N   1      33.741  15.999   9.048  0.00  0.00     0.193 C 
BRANCH  24  25
HETATM   25  O   UNK N   1      32.616  16.837   8.844  0.00  0.00    -0.387 OA
BRANCH  25  26
HETATM   26  C   UNK N   1      32.866  17.907   7.965  0.00  0.00     0.199 C 
BRANCH  26  27
HETATM   27  C   UNK N   1      34.353  18.027   7.652  0.00  0.00     0.248 C 
HETATM   28  F   UNK N   1      34.897  19.066   8.381  0.00  0.00    -0.253 F 
ENDBRANCH  26  27
ENDBRANCH  25  26
ENDBRANCH  24  25
ENDBRANCH  23  24
ENDBRANCH  22  23
ENDBRANCH  21  22
ENDBRANCH  20  21
ENDBRANCH  19  20
ENDBRANCH   4  19
TORSDOF 12
ENDMDL
MODEL 7
REMARK VINA RESULT:      -5.9      1.384      1.802
REMARK  12 active torsions:
REMARK  status: ('A' for Active; 'I' for Inactive)
REMARK    1  A    between atoms: O_2  and  C_8 
REMARK    2  A    between atoms: O_2  and  C_9 
REMARK    3  A    between atoms: O_3  and  C_10 
REMARK    4  A    between atoms: O_3  and  C_15 
REMARK    5  A    between atoms: O_4  and  C_11 
REMARK    6  A    between atoms: O_4  and  C_24 
REMARK    7  A    between atoms: N_5  and  C_14 
REMARK    8  A    between atoms: C_8  and  C_10 
REMARK    9  A    between atoms: C_9  and  C_11 
REMARK   10  A    between atoms: C_12  and  C_16 
REMARK   11  A    between atoms: C_13  and  C_19 
REMARK   12  A    between atoms: C_24  and  C_26 
ROOT
HETATM    1  N   UNK N   1      33.584  14.392  10.515  0.00  0.00    -0.346 N 
ATOM      2  HN  UNK N   1      33.130  13.508  10.750  1.00  0.00     0.167 HD
HETATM    3  C   UNK N   1      33.777  16.284   9.127  0.00  0.00    -0.021 A 
HETATM    4  C   UNK N   1      34.584  14.857  11.312  0.00  0.00     0.141 A 
HETATM    5  C   UNK N   1      34.895  16.726   9.848  0.00  0.00     0.017 A 
HETATM    6  C   UNK N   1      35.305  16.005  10.951  0.00  0.00     0.057 A 
HETATM    7  C   UNK N   1      33.179  15.065   9.430  0.00  0.00     0.101 A 
ENDROOT
BRANCH   3   8
HETATM    8  C   UNK N   1      32.928  17.320   8.640  0.00  0.00     0.013 C 
HETATM    9  C   UNK N   1      31.853  16.760   8.049  0.00  0.00     0.012 C 
BRANCH   9  10
HETATM   10  C   UNK N   1      30.624  17.444   7.951  0.00  0.00    -0.036 A 
HETATM   11  C   UNK N   1      29.800  17.269   6.860  0.00  0.00     0.013 A 
HETATM   12  C   UNK N   1      28.622  17.991   6.785  0.00  0.00     0.030 A 
HETATM   13  C   UNK N   1      28.288  18.917   7.805  0.00  0.00     0.027 A 
HETATM   14  C   UNK N   1      29.142  19.067   8.908  0.00  0.00     0.030 A 
HETATM   15  C   UNK N   1      30.296  18.316   8.989  0.00  0.00     0.013 A 
BRANCH  13  16
HETATM   16  N   UNK N   1      27.132  19.736   7.730  0.00  0.00    -0.394 N 
HETATM   17  C   UNK N   1      26.964  20.800   6.769  0.00  0.00     0.146 C 
HETATM   18  H   UNK N   1      26.370  19.570   8.405  0.00  0.00     0.159 HD
ENDBRANCH  13  16
ENDBRANCH   9  10
ENDBRANCH   3   8
BRANCH   4  19
HETATM   19  O   UNK N   1      34.842  14.201  12.442  0.00  0.00    -0.334 OA
BRANCH  19  20
HETATM   20  C   UNK N   1      36.122  13.856  12.753  0.00  0.00     0.203 C 
BRANCH  20  21
HETATM   21  C   UNK N   1      36.335  14.053  14.268  0.00  0.00     0.194 C 
BRANCH  21  22
HETATM   22  O   UNK N   1      36.663  12.842  14.897  0.00  0.00    -0.387 OA
BRANCH  22  23
HETATM   23  C   UNK N   1      36.074  12.741  16.181  0.00  0.00     0.193 C 
BRANCH  23  24
HETATM   24  C   UNK N   1      35.868  11.281  16.604  0.00  0.00     0.193 C 
BRANCH  24  25
HETATM   25  O   UNK N   1      34.689  10.760  16.013  0.00  0.00    -0.387 OA
BRANCH  25  26
HETATM   26  C   UNK N   1      34.938   9.787  15.028  0.00  0.00     0.199 C 
BRANCH  26  27
HETATM   27  C   UNK N   1      34.447  10.248  13.661  0.00  0.00     0.248 C 
HETATM   28  F   UNK N   1      33.816  11.469  13.784  0.00  0.00    -0.253 F 
ENDBRANCH  26  27
ENDBRANCH  25  26
ENDBRANCH  24  25
ENDBRANCH  23  24
ENDBRANCH  22  23
ENDBRANCH  21  22
ENDBRANCH  20  21
ENDBRANCH  19  20
ENDBRANCH   4  19
TORSDOF 12
ENDMDL
MODEL 8
REMARK VINA RESULT:      -5.9      3.043      5.290
REMARK  12 active torsions:
REMARK  status: ('A' for Active; 'I' for Inactive)
REMARK    1  A    between atoms: O_2  and  C_8 
REMARK    2  A    between atoms: O_2  and  C_9 
REMARK    3  A    between atoms: O_3  and  C_10 
REMARK    4  A    between atoms: O_3  and  C_15 
REMARK    5  A    between atoms: O_4  and  C_11 
REMARK    6  A    between atoms: O_4  and  C_24 
REMARK    7  A    between atoms: N_5  and  C_14 
REMARK    8  A    between atoms: C_8  and  C_10 
REMARK    9  A    between atoms: C_9  and  C_11 
REMARK   10  A    between atoms: C_12  and  C_16 
REMARK   11  A    between atoms: C_13  and  C_19 
REMARK   12  A    between atoms: C_24  and  C_26 
ROOT
HETATM    1  N   UNK N   1      32.071  17.656   7.726  0.00  0.00    -0.346 N 
ATOM      2  HN  UNK N   1      32.300  18.140   8.596  1.00  0.00     0.167 HD
HETATM    3  C   UNK N   1      30.522  16.515   6.370  0.00  0.00    -0.021 A 
HETATM    4  C   UNK N   1      33.021  17.546   6.758  0.00  0.00     0.141 A 
HETATM    5  C   UNK N   1      31.511  16.269   5.408  0.00  0.00     0.017 A 
HETATM    6  C   UNK N   1      32.775  16.788   5.605  0.00  0.00     0.057 A 
HETATM    7  C   UNK N   1      30.843  17.147   7.566  0.00  0.00     0.101 A 
ENDROOT
BRANCH   3   8
HETATM    8  C   UNK N   1      29.217  16.745   5.843  0.00  0.00     0.013 C 
HETATM    9  C   UNK N   1      28.941  18.063   5.925  0.00  0.00     0.012 C 
BRANCH   9  10
HETATM   10  C   UNK N   1      28.022  18.681   5.052  0.00  0.00    -0.036 A 
HETATM   11  C   UNK N   1      27.889  20.052   5.017  0.00  0.00     0.013 A 
HETATM   12  C   UNK N   1      26.947  20.615   4.175  0.00  0.00     0.030 A 
HETATM   13  C   UNK N   1      26.113  19.784   3.383  0.00  0.00     0.027 A 
HETATM   14  C   UNK N   1      26.278  18.393   3.434  0.00  0.00     0.030 A 
HETATM   15  C   UNK N   1      27.245  17.845   4.251  0.00  0.00     0.013 A 
BRANCH  13  16
HETATM   16  N   UNK N   1      25.081  20.313   2.567  0.00  0.00    -0.394 N 
HETATM   17  C   UNK N   1      23.728  20.527   3.023  0.00  0.00     0.146 C 
HETATM   18  H   UNK N   1      25.304  20.551   1.588  0.00  0.00     0.159 HD
ENDBRANCH  13  16
ENDBRANCH   9  10
ENDBRANCH   3   8
BRANCH   4  19
HETATM   19  O   UNK N   1      34.174  18.189   6.935  0.00  0.00    -0.334 OA
BRANCH  19  20
HETATM   20  C   UNK N   1      34.618  18.458   8.194  0.00  0.00     0.203 C 
BRANCH  20  21
HETATM   21  C   UNK N   1      34.777  17.127   8.959  0.00  0.00     0.194 C 
BRANCH  21  22
HETATM   22  O   UNK N   1      35.520  17.304  10.136  0.00  0.00    -0.387 OA
BRANCH  22  23
HETATM   23  C   UNK N   1      35.127  16.393  11.147  0.00  0.00     0.193 C 
BRANCH  23  24
HETATM   24  C   UNK N   1      36.193  15.318  11.396  0.00  0.00     0.193 C 
BRANCH  24  25
HETATM   25  O   UNK N   1      36.296  15.040  12.783  0.00  0.00    -0.387 OA
BRANCH  25  26
HETATM   26  C   UNK N   1      35.567  13.905  13.183  0.00  0.00     0.199 C 
BRANCH  26  27
HETATM   27  C   UNK N   1      36.388  13.024  14.118  0.00  0.00     0.248 C 
HETATM   28  F   UNK N   1      36.412  13.585  15.379  0.00  0.00    -0.253 F 
ENDBRANCH  26  27
ENDBRANCH  25  26
ENDBRANCH  24  25
ENDBRANCH  23  24
ENDBRANCH  22  23
ENDBRANCH  21  22
ENDBRANCH  20  21
ENDBRANCH  19  20
ENDBRANCH   4  19
TORSDOF 12
ENDMDL
MODEL 9
REMARK VINA RESULT:      -5.8      2.236      3.303
REMARK  12 active torsions:
REMARK  status: ('A' for Active; 'I' for Inactive)
REMARK    1  A    between atoms: O_2  and  C_8 
REMARK    2  A    between atoms: O_2  and  C_9 
REMARK    3  A    between atoms: O_3  and  C_10 
REMARK    4  A    between atoms: O_3  and  C_15 
REMARK    5  A    between atoms: O_4  and  C_11 
REMARK    6  A    between atoms: O_4  and  C_24 
REMARK    7  A    between atoms: N_5  and  C_14 
REMARK    8  A    between atoms: C_8  and  C_10 
REMARK    9  A    between atoms: C_9  and  C_11 
REMARK   10  A    between atoms: C_12  and  C_16 
REMARK   11  A    between atoms: C_13  and  C_19 
REMARK   12  A    between atoms: C_24  and  C_26 
ROOT
HETATM    1  N   UNK N   1      33.634  16.020   9.601  0.00  0.00    -0.346 N 
ATOM      2  HN  UNK N   1      33.769  15.297  10.309  1.00  0.00     0.167 HD
HETATM    3  C   UNK N   1      32.347  16.976   7.877  0.00  0.00    -0.021 A 
HETATM    4  C   UNK N   1      34.563  17.006   9.473  0.00  0.00     0.141 A 
HETATM    5  C   UNK N   1      33.345  17.928   7.629  0.00  0.00     0.017 A 
HETATM    6  C   UNK N   1      34.467  17.942   8.434  0.00  0.00     0.057 A 
HETATM    7  C   UNK N   1      32.546  15.974   8.821  0.00  0.00     0.101 A 
ENDROOT
BRANCH   3   8
HETATM    8  C   UNK N   1      31.013  17.445   7.699  0.00  0.00     0.013 C 
HETATM    9  C   UNK N   1      30.712  17.412   6.385  0.00  0.00     0.012 C 
BRANCH   9  10
HETATM   10  C   UNK N   1      29.380  17.293   5.935  0.00  0.00    -0.036 A 
HETATM   11  C   UNK N   1      28.407  16.736   6.736  0.00  0.00     0.013 A 
HETATM   12  C   UNK N   1      27.123  16.602   6.240  0.00  0.00     0.030 A 
HETATM   13  C   UNK N   1      26.826  17.008   4.914  0.00  0.00     0.027 A 
HETATM   14  C   UNK N   1      27.835  17.580   4.125  0.00  0.00     0.030 A 
HETATM   15  C   UNK N   1      29.103  17.741   4.643  0.00  0.00     0.013 A 
BRANCH  13  16
HETATM   16  N   UNK N   1      25.545  16.816   4.336  0.00  0.00    -0.394 N 
HETATM   17  C   UNK N   1      25.288  15.921   3.233  0.00  0.00     0.146 C 
HETATM   18  H   UNK N   1      24.750  17.352   4.718  0.00  0.00     0.159 HD
ENDBRANCH  13  16
ENDBRANCH   9  10
ENDBRANCH   3   8
BRANCH   4  19
HETATM   19  O   UNK N   1      35.549  17.058  10.368  0.00  0.00    -0.334 OA
BRANCH  19  20
HETATM   20  C   UNK N   1      36.220  15.925  10.709  0.00  0.00     0.203 C 
BRANCH  20  21
HETATM   21  C   UNK N   1      35.767  15.485  12.117  0.00  0.00     0.194 C 
BRANCH  21  22
HETATM   22  O   UNK N   1      34.724  14.549  12.046  0.00  0.00    -0.387 OA
BRANCH  22  23
HETATM   23  C   UNK N   1      35.214  13.225  11.926  0.00  0.00     0.193 C 
BRANCH  23  24
HETATM   24  C   UNK N   1      34.926  12.391  13.181  0.00  0.00     0.193 C 
BRANCH  24  25
HETATM   25  O   UNK N   1      36.055  12.388  14.038  0.00  0.00    -0.387 OA
BRANCH  25  26
HETATM   26  C   UNK N   1      35.917  13.240  15.150  0.00  0.00     0.199 C 
BRANCH  26  27
HETATM   27  C   UNK N   1      34.658  12.910  15.944  0.00  0.00     0.248 C 
HETATM   28  F   UNK N   1      34.705  13.543  17.170  0.00  0.00    -0.253 F 
ENDBRANCH  26  27
ENDBRANCH  25  26
ENDBRANCH  24  25
ENDBRANCH  23  24
ENDBRANCH  22  23
ENDBRANCH  21  22
ENDBRANCH  20  21
ENDBRANCH  19  20
ENDBRANCH   4  19
TORSDOF 12
ENDMDL
