MODEL 1
REMARK VINA RESULT:      -5.2      0.000      0.000
REMARK  8 active torsions:
REMARK  status: ('A' for Active; 'I' for Inactive)
REMARK    1  A    between atoms: C_6  and  C_5 
REMARK    2  A    between atoms: N_14  and  C_6 
REMARK    3  A    between atoms: C_12  and  C_9 
REMARK    4  A    between atoms: N_14  and  C_9 
REMARK    5  A    between atoms: N_15  and  C_10 
REMARK    6  A    between atoms: C_13  and  C_11 
REMARK    7  A    between atoms: O_17  and  C_12 
REMARK    8  A    between atoms: O_19  and  C_13 
ROOT
HETATM    1  C   UNK N   1      32.760  16.778   8.735  0.00  0.00     0.138 C 
HETATM    2  N   UNK N   1      32.052  17.481   7.913  0.00  0.00    -0.337 N 
ATOM      3  HN  UNK N   1      32.544  18.203   7.388  1.00  0.00     0.168 HD
ENDROOT
BRANCH   2   4
HETATM    4  C   UNK N   1      30.656  17.348   7.669  0.00  0.00     0.063 A 
HETATM    5  C   UNK N   1      29.603  17.908   8.472  0.00  0.00    -0.027 A 
HETATM    6  C   UNK N   1      29.804  18.751   9.684  0.00  0.00     0.051 C 
HETATM    7  C   UNK N   1      28.317  17.647   7.989  0.00  0.00     0.059 A 
HETATM    8  S   UNK N   1      28.526  16.752   6.606  0.00  0.00    -0.093 SA
HETATM    9  C   UNK N   1      30.183  16.658   6.543  0.00  0.00     0.107 A 
BRANCH   9  10
HETATM   10  C   UNK N   1      31.036  15.975   5.515  0.00  0.00     0.302 C 
HETATM   11  O   UNK N   1      30.698  14.874   5.113  0.00  0.00    -0.259 OA
BRANCH  10  12
HETATM   12  O   UNK N   1      32.170  16.519   4.998  0.00  0.00    -0.322 OA
HETATM   13  C   UNK N   1      32.230  17.636   4.202  0.00  0.00     0.213 C 
ENDBRANCH  10  12
ENDBRANCH   9  10
ENDBRANCH   2   4
BRANCH   1  14
HETATM   14  C   UNK N   1      34.219  17.064   8.873  0.00  0.00     0.147 C 
HETATM   15  C   UNK N   1      34.576  18.377   8.190  0.00  0.00     0.040 C 
BRANCH  14  16
HETATM   16  N   UNK N   1      34.583  17.104  10.285  0.00  0.00    -0.410 N 
HETATM   17  H   UNK N   1      34.081  17.614  11.011  0.00  0.00     0.154 HD
BRANCH  16  18
HETATM   18  C   UNK N   1      35.781  16.297  10.492  0.00  0.00     0.114 C 
BRANCH  18  19
HETATM   19  C   UNK N   1      35.669  15.466  11.763  0.00  0.00     0.015 C 
HETATM   20  C   UNK N   1      34.727  14.301  11.523  0.00  0.00     0.006 C 
ENDBRANCH  18  19
ENDBRANCH  16  18
ENDBRANCH  14  16
ENDBRANCH   1  14
BRANCH   1  21
HETATM   21  O   UNK N   1      32.226  15.753   9.427  0.00  0.00    -0.348 OA
HETATM   22  H   UNK N   1      31.433  15.630   9.911  0.00  0.00     0.219 HD
ENDBRANCH   1  21
TORSDOF 8
ENDMDL
MODEL 2
REMARK VINA RESULT:      -5.1     12.755     14.392
REMARK  8 active torsions:
REMARK  status: ('A' for Active; 'I' for Inactive)
REMARK    1  A    between atoms: C_6  and  C_5 
REMARK    2  A    between atoms: N_14  and  C_6 
REMARK    3  A    between atoms: C_12  and  C_9 
REMARK    4  A    between atoms: N_14  and  C_9 
REMARK    5  A    between atoms: N_15  and  C_10 
REMARK    6  A    between atoms: C_13  and  C_11 
REMARK    7  A    between atoms: O_17  and  C_12 
REMARK    8  A    between atoms: O_19  and  C_13 
ROOT
HETATM    1  C   UNK N   1      30.274  22.930  -3.100  0.00  0.00     0.138 C 
HETATM    2  N   UNK N   1      29.755  23.602  -4.075  0.00  0.00    -0.337 N 
ATOM      3  HN  UNK N   1      29.585  23.092  -4.942  1.00  0.00     0.168 HD
ENDROOT
BRANCH   2   4
HETATM    4  C   UNK N   1      29.397  24.979  -4.060  0.00  0.00     0.063 A 
HETATM    5  C   UNK N   1      30.295  26.084  -4.257  0.00  0.00    -0.027 A 
HETATM    6  C   UNK N   1      31.752  25.967  -4.541  0.00  0.00     0.051 C 
HETATM    7  C   UNK N   1      29.673  27.337  -4.220  0.00  0.00     0.059 A 
HETATM    8  S   UNK N   1      28.062  27.035  -3.954  0.00  0.00    -0.093 SA
HETATM    9  C   UNK N   1      28.063  25.376  -3.883  0.00  0.00     0.107 A 
BRANCH   9  10
HETATM   10  C   UNK N   1      26.899  24.455  -3.665  0.00  0.00     0.302 C 
HETATM   11  O   UNK N   1      26.839  23.827  -2.620  0.00  0.00    -0.259 OA
BRANCH  10  12
HETATM   12  O   UNK N   1      25.898  24.281  -4.569  0.00  0.00    -0.322 OA
HETATM   13  C   UNK N   1      26.064  23.937  -5.888  0.00  0.00     0.213 C 
ENDBRANCH  10  12
ENDBRANCH   9  10
ENDBRANCH   2   4
BRANCH   1  14
HETATM   14  C   UNK N   1      30.599  21.486  -3.297  0.00  0.00     0.147 C 
HETATM   15  C   UNK N   1      30.489  21.106  -4.767  0.00  0.00     0.040 C 
BRANCH  14  16
HETATM   16  N   UNK N   1      31.939  21.208  -2.794  0.00  0.00    -0.410 N 
HETATM   17  H   UNK N   1      32.177  21.014  -1.821  0.00  0.00     0.154 HD
BRANCH  16  18
HETATM   18  C   UNK N   1      32.885  21.250  -3.903  0.00  0.00     0.114 C 
BRANCH  18  19
HETATM   19  C   UNK N   1      34.169  20.509  -3.558  0.00  0.00     0.015 C 
HETATM   20  C   UNK N   1      34.113  19.106  -4.132  0.00  0.00     0.006 C 
ENDBRANCH  18  19
ENDBRANCH  16  18
ENDBRANCH  14  16
ENDBRANCH   1  14
BRANCH   1  21
HETATM   21  O   UNK N   1      30.476  23.487  -1.890  0.00  0.00    -0.348 OA
HETATM   22  H   UNK N   1      29.956  24.012  -1.313  0.00  0.00     0.219 HD
ENDBRANCH   1  21
TORSDOF 8
ENDMDL
MODEL 3
REMARK VINA RESULT:      -5.1      2.890      4.294
REMARK  8 active torsions:
REMARK  status: ('A' for Active; 'I' for Inactive)
REMARK    1  A    between atoms: C_6  and  C_5 
REMARK    2  A    between atoms: N_14  and  C_6 
REMARK    3  A    between atoms: C_12  and  C_9 
REMARK    4  A    between atoms: N_14  and  C_9 
REMARK    5  A    between atoms: N_15  and  C_10 
REMARK    6  A    between atoms: C_13  and  C_11 
REMARK    7  A    between atoms: O_17  and  C_12 
REMARK    8  A    between atoms: O_19  and  C_13 
ROOT
HETATM    1  C   UNK N   1      28.376  18.325   8.407  0.00  0.00     0.138 C 
HETATM    2  N   UNK N   1      28.598  19.197   7.479  0.00  0.00    -0.337 N 
ATOM      3  HN  UNK N   1      29.427  19.780   7.588  1.00  0.00     0.168 HD
ENDROOT
BRANCH   2   4
HETATM    4  C   UNK N   1      27.802  19.425   6.322  0.00  0.00     0.063 A 
HETATM    5  C   UNK N   1      26.758  20.406   6.197  0.00  0.00    -0.027 A 
HETATM    6  C   UNK N   1      26.359  21.373   7.257  0.00  0.00     0.051 C 
HETATM    7  C   UNK N   1      26.152  20.437   4.937  0.00  0.00     0.059 A 
HETATM    8  S   UNK N   1      26.918  19.270   4.037  0.00  0.00    -0.093 SA
HETATM    9  C   UNK N   1      28.016  18.695   5.143  0.00  0.00     0.107 A 
BRANCH   9  10
HETATM   10  C   UNK N   1      29.038  17.613   4.960  0.00  0.00     0.302 C 
HETATM   11  O   UNK N   1      28.724  16.612   4.336  0.00  0.00    -0.259 OA
BRANCH  10  12
HETATM   12  O   UNK N   1      30.306  17.684   5.449  0.00  0.00    -0.322 OA
HETATM   13  C   UNK N   1      31.438  17.263   4.796  0.00  0.00     0.213 C 
ENDBRANCH  10  12
ENDBRANCH   9  10
ENDBRANCH   2   4
BRANCH   1  14
HETATM   14  C   UNK N   1      29.317  18.231   9.563  0.00  0.00     0.147 C 
HETATM   15  C   UNK N   1      29.036  16.981  10.385  0.00  0.00     0.040 C 
BRANCH  14  16
HETATM   16  N   UNK N   1      30.694  18.230   9.081  0.00  0.00    -0.410 N 
HETATM   17  H   UNK N   1      31.295  19.051   9.009  0.00  0.00     0.154 HD
BRANCH  16  18
HETATM   18  C   UNK N   1      31.072  16.869   8.719  0.00  0.00     0.114 C 
BRANCH  18  19
HETATM   19  C   UNK N   1      32.565  16.771   8.439  0.00  0.00     0.015 C 
HETATM   20  C   UNK N   1      33.103  18.144   8.081  0.00  0.00     0.006 C 
ENDBRANCH  18  19
ENDBRANCH  16  18
ENDBRANCH  14  16
ENDBRANCH   1  14
BRANCH   1  21
HETATM   21  O   UNK N   1      27.349  17.457   8.327  0.00  0.00    -0.348 OA
HETATM   22  H   UNK N   1      27.028  16.878   7.665  0.00  0.00     0.219 HD
ENDBRANCH   1  21
TORSDOF 8
ENDMDL
MODEL 4
REMARK VINA RESULT:      -5.0     13.288     16.169
REMARK  8 active torsions:
REMARK  status: ('A' for Active; 'I' for Inactive)
REMARK    1  A    between atoms: C_6  and  C_5 
REMARK    2  A    between atoms: N_14  and  C_6 
REMARK    3  A    between atoms: C_12  and  C_9 
REMARK    4  A    between atoms: N_14  and  C_9 
REMARK    5  A    between atoms: N_15  and  C_10 
REMARK    6  A    between atoms: C_13  and  C_11 
REMARK    7  A    between atoms: O_17  and  C_12 
REMARK    8  A    between atoms: O_19  and  C_13 
ROOT
HETATM    1  C   UNK N   1      28.643  23.707  -5.915  0.00  0.00     0.138 C 
HETATM    2  N   UNK N   1      28.772  22.747  -5.060  0.00  0.00    -0.337 N 
ATOM      3  HN  UNK N   1      27.941  22.497  -4.524  1.00  0.00     0.168 HD
ENDROOT
BRANCH   2   4
HETATM    4  C   UNK N   1      29.955  22.003  -4.792  0.00  0.00     0.063 A 
HETATM    5  C   UNK N   1      30.479  20.934  -5.598  0.00  0.00    -0.027 A 
HETATM    6  C   UNK N   1      29.879  20.447  -6.872  0.00  0.00     0.051 C 
HETATM    7  C   UNK N   1      31.676  20.392  -5.119  0.00  0.00     0.059 A 
HETATM    8  S   UNK N   1      32.039  21.243  -3.740  0.00  0.00    -0.093 SA
HETATM    9  C   UNK N   1      30.761  22.303  -3.683  0.00  0.00     0.107 A 
BRANCH   9  10
HETATM   10  C   UNK N   1      30.484  23.370  -2.666  0.00  0.00     0.302 C 
HETATM   11  O   UNK N   1      30.475  23.063  -1.485  0.00  0.00    -0.259 OA
BRANCH  10  12
HETATM   12  O   UNK N   1      30.245  24.671  -2.985  0.00  0.00    -0.322 OA
HETATM   13  C   UNK N   1      31.066  25.471  -3.741  0.00  0.00     0.213 C 
ENDBRANCH  10  12
ENDBRANCH   9  10
ENDBRANCH   2   4
BRANCH   1  14
HETATM   14  C   UNK N   1      27.322  24.387  -6.058  0.00  0.00     0.147 C 
HETATM   15  C   UNK N   1      26.193  23.367  -6.091  0.00  0.00     0.040 C 
BRANCH  14  16
HETATM   16  N   UNK N   1      27.130  25.330  -4.961  0.00  0.00    -0.410 N 
HETATM   17  H   UNK N   1      26.906  25.079  -3.999  0.00  0.00     0.154 HD
BRANCH  16  18
HETATM   18  C   UNK N   1      27.310  26.688  -5.461  0.00  0.00     0.114 C 
BRANCH  18  19
HETATM   19  C   UNK N   1      26.169  27.088  -6.387  0.00  0.00     0.015 C 
HETATM   20  C   UNK N   1      24.869  27.112  -5.605  0.00  0.00     0.006 C 
ENDBRANCH  18  19
ENDBRANCH  16  18
ENDBRANCH  14  16
ENDBRANCH   1  14
BRANCH   1  21
HETATM   21  O   UNK N   1      29.657  24.071  -6.725  0.00  0.00    -0.348 OA
HETATM   22  H   UNK N   1      30.466  24.527  -6.600  0.00  0.00     0.219 HD
ENDBRANCH   1  21
TORSDOF 8
ENDMDL
MODEL 5
REMARK VINA RESULT:      -4.9      4.466      6.800
REMARK  8 active torsions:
REMARK  status: ('A' for Active; 'I' for Inactive)
REMARK    1  A    between atoms: C_6  and  C_5 
REMARK    2  A    between atoms: N_14  and  C_6 
REMARK    3  A    between atoms: C_12  and  C_9 
REMARK    4  A    between atoms: N_14  and  C_9 
REMARK    5  A    between atoms: N_15  and  C_10 
REMARK    6  A    between atoms: C_13  and  C_11 
REMARK    7  A    between atoms: O_17  and  C_12 
REMARK    8  A    between atoms: O_19  and  C_13 
ROOT
HETATM    1  C   UNK N   1      36.355  13.631  12.585  0.00  0.00     0.138 C 
HETATM    2  N   UNK N   1      35.246  13.737  11.930  0.00  0.00    -0.337 N 
ATOM      3  HN  UNK N   1      34.406  13.917  12.479  1.00  0.00     0.168 HD
ENDROOT
BRANCH   2   4
HETATM    4  C   UNK N   1      35.080  13.630  10.521  0.00  0.00     0.063 A 
HETATM    5  C   UNK N   1      34.756  12.429   9.800  0.00  0.00    -0.027 A 
HETATM    6  C   UNK N   1      34.508  11.097  10.419  0.00  0.00     0.051 C 
HETATM    7  C   UNK N   1      34.624  12.610   8.419  0.00  0.00     0.059 A 
HETATM    8  S   UNK N   1      34.905  14.224   8.146  0.00  0.00    -0.093 SA
HETATM    9  C   UNK N   1      35.188  14.758   9.693  0.00  0.00     0.107 A 
BRANCH   9  10
HETATM   10  C   UNK N   1      35.506  16.150  10.151  0.00  0.00     0.302 C 
HETATM   11  O   UNK N   1      36.530  16.336  10.787  0.00  0.00    -0.259 OA
BRANCH  10  12
HETATM   12  O   UNK N   1      34.714  17.226   9.894  0.00  0.00    -0.322 OA
HETATM   13  C   UNK N   1      34.543  17.817   8.666  0.00  0.00     0.213 C 
ENDBRANCH  10  12
ENDBRANCH   9  10
ENDBRANCH   2   4
BRANCH   1  14
HETATM   14  C   UNK N   1      36.341  13.761  14.072  0.00  0.00     0.147 C 
HETATM   15  C   UNK N   1      35.067  13.162  14.653  0.00  0.00     0.040 C 
BRANCH  14  16
HETATM   16  N   UNK N   1      37.518  13.110  14.637  0.00  0.00    -0.410 N 
HETATM   17  H   UNK N   1      38.438  13.539  14.741  0.00  0.00     0.154 HD
BRANCH  16  18
HETATM   18  C   UNK N   1      37.170  11.749  15.028  0.00  0.00     0.114 C 
BRANCH  18  19
HETATM   19  C   UNK N   1      38.066  10.733  14.333  0.00  0.00     0.015 C 
HETATM   20  C   UNK N   1      37.316  10.112  13.169  0.00  0.00     0.006 C 
ENDBRANCH  18  19
ENDBRANCH  16  18
ENDBRANCH  14  16
ENDBRANCH   1  14
BRANCH   1  21
HETATM   21  O   UNK N   1      37.533  13.463  11.954  0.00  0.00    -0.348 OA
HETATM   22  H   UNK N   1      38.123  12.744  11.844  0.00  0.00     0.219 HD
ENDBRANCH   1  21
TORSDOF 8
ENDMDL
MODEL 6
REMARK VINA RESULT:      -4.9      7.857     10.184
REMARK  8 active torsions:
REMARK  status: ('A' for Active; 'I' for Inactive)
REMARK    1  A    between atoms: C_6  and  C_5 
REMARK    2  A    between atoms: N_14  and  C_6 
REMARK    3  A    between atoms: C_12  and  C_9 
REMARK    4  A    between atoms: N_14  and  C_9 
REMARK    5  A    between atoms: N_15  and  C_10 
REMARK    6  A    between atoms: C_13  and  C_11 
REMARK    7  A    between atoms: O_17  and  C_12 
REMARK    8  A    between atoms: O_19  and  C_13 
ROOT
HETATM    1  C   UNK N   1      23.823  17.786   4.850  0.00  0.00     0.138 C 
HETATM    2  N   UNK N   1      23.211  17.609   3.725  0.00  0.00    -0.337 N 
ATOM      3  HN  UNK N   1      23.780  17.295   2.939  1.00  0.00     0.168 HD
ENDROOT
BRANCH   2   4
HETATM    4  C   UNK N   1      21.825  17.807   3.474  0.00  0.00     0.063 A 
HETATM    5  C   UNK N   1      20.777  16.858   3.739  0.00  0.00    -0.027 A 
HETATM    6  C   UNK N   1      20.971  15.515   4.354  0.00  0.00     0.051 C 
HETATM    7  C   UNK N   1      19.495  17.321   3.422  0.00  0.00     0.059 A 
HETATM    8  S   UNK N   1      19.702  18.862   2.839  0.00  0.00    -0.093 SA
HETATM    9  C   UNK N   1      21.350  19.022   2.958  0.00  0.00     0.107 A 
BRANCH   9  10
HETATM   10  C   UNK N   1      22.197  20.205   2.592  0.00  0.00     0.302 C 
HETATM   11  O   UNK N   1      21.873  20.879   1.628  0.00  0.00    -0.259 OA
BRANCH  10  12
HETATM   12  O   UNK N   1      23.311  20.575   3.280  0.00  0.00    -0.322 OA
HETATM   13  C   UNK N   1      24.574  20.688   2.754  0.00  0.00     0.213 C 
ENDBRANCH  10  12
ENDBRANCH   9  10
ENDBRANCH   2   4
BRANCH   1  14
HETATM   14  C   UNK N   1      25.293  17.539   4.929  0.00  0.00     0.147 C 
HETATM   15  C   UNK N   1      25.870  17.277   3.545  0.00  0.00     0.040 C 
BRANCH  14  16
HETATM   16  N   UNK N   1      25.953  18.680   5.553  0.00  0.00    -0.410 N 
HETATM   17  H   UNK N   1      25.557  19.261   6.293  0.00  0.00     0.154 HD
BRANCH  16  18
HETATM   18  C   UNK N   1      27.270  18.859   4.951  0.00  0.00     0.114 C 
BRANCH  18  19
HETATM   19  C   UNK N   1      27.662  20.330   4.917  0.00  0.00     0.015 C 
HETATM   20  C   UNK N   1      26.928  21.074   6.017  0.00  0.00     0.006 C 
ENDBRANCH  18  19
ENDBRANCH  16  18
ENDBRANCH  14  16
ENDBRANCH   1  14
BRANCH   1  21
HETATM   21  O   UNK N   1      23.156  18.131   5.968  0.00  0.00    -0.348 OA
HETATM   22  H   UNK N   1      22.582  18.834   6.200  0.00  0.00     0.219 HD
ENDBRANCH   1  21
TORSDOF 8
ENDMDL
MODEL 7
REMARK VINA RESULT:      -4.7      3.320      6.272
REMARK  8 active torsions:
REMARK  status: ('A' for Active; 'I' for Inactive)
REMARK    1  A    between atoms: C_6  and  C_5 
REMARK    2  A    between atoms: N_14  and  C_6 
REMARK    3  A    between atoms: C_12  and  C_9 
REMARK    4  A    between atoms: N_14  and  C_9 
REMARK    5  A    between atoms: N_15  and  C_10 
REMARK    6  A    between atoms: C_13  and  C_11 
REMARK    7  A    between atoms: O_17  and  C_12 
REMARK    8  A    between atoms: O_19  and  C_13 
ROOT
HETATM    1  C   UNK N   1      29.315  17.640   4.881  0.00  0.00     0.138 C 
HETATM    2  N   UNK N   1      29.240  16.877   5.922  0.00  0.00    -0.337 N 
ATOM      3  HN  UNK N   1      28.309  16.557   6.188  1.00  0.00     0.168 HD
ENDROOT
BRANCH   2   4
HETATM    4  C   UNK N   1      30.324  16.440   6.733  0.00  0.00     0.063 A 
HETATM    5  C   UNK N   1      30.755  17.049   7.963  0.00  0.00    -0.027 A 
HETATM    6  C   UNK N   1      30.111  18.227   8.609  0.00  0.00     0.051 C 
HETATM    7  C   UNK N   1      31.832  16.399   8.574  0.00  0.00     0.059 A 
HETATM    8  S   UNK N   1      32.204  15.115   7.589  0.00  0.00    -0.093 SA
HETATM    9  C   UNK N   1      31.066  15.299   6.394  0.00  0.00     0.107 A 
BRANCH   9  10
HETATM   10  C   UNK N   1      30.849  14.447   5.179  0.00  0.00     0.302 C 
HETATM   11  O   UNK N   1      30.598  13.263   5.333  0.00  0.00    -0.259 OA
BRANCH  10  12
HETATM   12  O   UNK N   1      30.913  14.921   3.905  0.00  0.00    -0.322 OA
HETATM   13  C   UNK N   1      32.065  15.153   3.196  0.00  0.00     0.213 C 
ENDBRANCH  10  12
ENDBRANCH   9  10
ENDBRANCH   2   4
BRANCH   1  14
HETATM   14  C   UNK N   1      28.065  18.008   4.152  0.00  0.00     0.147 C 
HETATM   15  C   UNK N   1      26.837  17.530   4.915  0.00  0.00     0.040 C 
BRANCH  14  16
HETATM   16  N   UNK N   1      28.016  19.453   3.954  0.00  0.00    -0.410 N 
HETATM   17  H   UNK N   1      28.609  19.982   3.315  0.00  0.00     0.154 HD
BRANCH  16  18
HETATM   18  C   UNK N   1      26.984  20.019   4.816  0.00  0.00     0.114 C 
BRANCH  18  19
HETATM   19  C   UNK N   1      27.582  20.997   5.818  0.00  0.00     0.015 C 
HETATM   20  C   UNK N   1      26.509  21.439   6.795  0.00  0.00     0.006 C 
ENDBRANCH  18  19
ENDBRANCH  16  18
ENDBRANCH  14  16
ENDBRANCH   1  14
BRANCH   1  21
HETATM   21  O   UNK N   1      30.501  18.063   4.402  0.00  0.00    -0.348 OA
HETATM   22  H   UNK N   1      31.335  17.660   4.264  0.00  0.00     0.219 HD
ENDBRANCH   1  21
TORSDOF 8
ENDMDL
MODEL 8
REMARK VINA RESULT:      -4.7      3.168      6.212
REMARK  8 active torsions:
REMARK  status: ('A' for Active; 'I' for Inactive)
REMARK    1  A    between atoms: C_6  and  C_5 
REMARK    2  A    between atoms: N_14  and  C_6 
REMARK    3  A    between atoms: C_12  and  C_9 
REMARK    4  A    between atoms: N_14  and  C_9 
REMARK    5  A    between atoms: N_15  and  C_10 
REMARK    6  A    between atoms: C_13  and  C_11 
REMARK    7  A    between atoms: O_17  and  C_12 
REMARK    8  A    between atoms: O_19  and  C_13 
ROOT
HETATM    1  C   UNK N   1      34.654  15.377   6.050  0.00  0.00     0.138 C 
HETATM    2  N   UNK N   1      34.013  15.421   7.171  0.00  0.00    -0.337 N 
ATOM      3  HN  UNK N   1      32.996  15.357   7.120  1.00  0.00     0.168 HD
ENDROOT
BRANCH   2   4
HETATM    4  C   UNK N   1      34.582  15.548   8.469  0.00  0.00     0.063 A 
HETATM    5  C   UNK N   1      35.064  14.468   9.287  0.00  0.00    -0.027 A 
HETATM    6  C   UNK N   1      35.072  13.031   8.893  0.00  0.00     0.051 C 
HETATM    7  C   UNK N   1      35.602  14.876  10.512  0.00  0.00     0.059 A 
HETATM    8  S   UNK N   1      35.469  16.531  10.536  0.00  0.00    -0.093 SA
HETATM    9  C   UNK N   1      34.761  16.808   9.059  0.00  0.00     0.107 A 
BRANCH   9  10
HETATM   10  C   UNK N   1      34.370  18.121   8.449  0.00  0.00     0.302 C 
HETATM   11  O   UNK N   1      35.179  19.035   8.461  0.00  0.00    -0.259 OA
BRANCH  10  12
HETATM   12  O   UNK N   1      33.159  18.353   7.874  0.00  0.00    -0.322 OA
HETATM   13  C   UNK N   1      31.940  18.049   8.429  0.00  0.00     0.213 C 
ENDBRANCH  10  12
ENDBRANCH   9  10
ENDBRANCH   2   4
BRANCH   1  14
HETATM   14  C   UNK N   1      33.889  15.251   4.774  0.00  0.00     0.147 C 
HETATM   15  C   UNK N   1      32.798  14.197   4.903  0.00  0.00     0.040 C 
BRANCH  14  16
HETATM   16  N   UNK N   1      33.315  16.543   4.412  0.00  0.00    -0.410 N 
HETATM   17  H   UNK N   1      33.828  17.423   4.357  0.00  0.00     0.154 HD
BRANCH  16  18
HETATM   18  C   UNK N   1      31.891  16.375   4.143  0.00  0.00     0.114 C 
BRANCH  18  19
HETATM   19  C   UNK N   1      31.066  17.421   4.879  0.00  0.00     0.015 C 
HETATM   20  C   UNK N   1      29.615  17.313   4.451  0.00  0.00     0.006 C 
ENDBRANCH  18  19
ENDBRANCH  16  18
ENDBRANCH  14  16
ENDBRANCH   1  14
BRANCH   1  21
HETATM   21  O   UNK N   1      36.000  15.382   6.007  0.00  0.00    -0.348 OA
HETATM   22  H   UNK N   1      36.650  14.784   5.694  0.00  0.00     0.219 HD
ENDBRANCH   1  21
TORSDOF 8
ENDMDL
MODEL 9
REMARK VINA RESULT:      -4.7      2.769      6.071
REMARK  8 active torsions:
REMARK  status: ('A' for Active; 'I' for Inactive)
REMARK    1  A    between atoms: C_6  and  C_5 
REMARK    2  A    between atoms: N_14  and  C_6 
REMARK    3  A    between atoms: C_12  and  C_9 
REMARK    4  A    between atoms: N_14  and  C_9 
REMARK    5  A    between atoms: N_15  and  C_10 
REMARK    6  A    between atoms: C_13  and  C_11 
REMARK    7  A    between atoms: O_17  and  C_12 
REMARK    8  A    between atoms: O_19  and  C_13 
ROOT
HETATM    1  C   UNK N   1      31.203  17.210   8.229  0.00  0.00     0.138 C 
HETATM    2  N   UNK N   1      31.446  16.308   7.335  0.00  0.00    -0.337 N 
ATOM      3  HN  UNK N   1      30.637  15.872   6.894  1.00  0.00     0.168 HD
ENDROOT
BRANCH   2   4
HETATM    4  C   UNK N   1      32.728  15.864   6.906  0.00  0.00     0.063 A 
HETATM    5  C   UNK N   1      33.442  16.344   5.753  0.00  0.00    -0.027 A 
HETATM    6  C   UNK N   1      32.966  17.413   4.832  0.00  0.00     0.051 C 
HETATM    7  C   UNK N   1      34.699  15.755   5.576  0.00  0.00     0.059 A 
HETATM    8  S   UNK N   1      34.879  14.684   6.833  0.00  0.00    -0.093 SA
HETATM    9  C   UNK N   1      33.442  14.904   7.638  0.00  0.00     0.107 A 
BRANCH   9  10
HETATM   10  C   UNK N   1      32.966  14.228   8.889  0.00  0.00     0.302 C 
HETATM   11  O   UNK N   1      32.354  13.177   8.787  0.00  0.00    -0.259 OA
BRANCH  10  12
HETATM   12  O   UNK N   1      33.183  14.719  10.139  0.00  0.00    -0.322 OA
HETATM   13  C   UNK N   1      34.358  15.267  10.589  0.00  0.00     0.213 C 
ENDBRANCH  10  12
ENDBRANCH   9  10
ENDBRANCH   2   4
BRANCH   1  14
HETATM   14  C   UNK N   1      29.787  17.544   8.565  0.00  0.00     0.147 C 
HETATM   15  C   UNK N   1      29.728  18.674   9.583  0.00  0.00     0.040 C 
BRANCH  14  16
HETATM   16  N   UNK N   1      29.064  17.908   7.351  0.00  0.00    -0.410 N 
HETATM   17  H   UNK N   1      29.140  17.432   6.452  0.00  0.00     0.154 HD
BRANCH  16  18
HETATM   18  C   UNK N   1      28.215  19.062   7.628  0.00  0.00     0.114 C 
BRANCH  18  19
HETATM   19  C   UNK N   1      27.522  19.549   6.363  0.00  0.00     0.015 C 
HETATM   20  C   UNK N   1      27.549  21.065   6.324  0.00  0.00     0.006 C 
ENDBRANCH  18  19
ENDBRANCH  16  18
ENDBRANCH  14  16
ENDBRANCH   1  14
BRANCH   1  21
HETATM   21  O   UNK N   1      32.196  17.898   8.824  0.00  0.00    -0.348 OA
HETATM   22  H   UNK N   1      33.081  17.702   9.062  0.00  0.00     0.219 HD
ENDBRANCH   1  21
TORSDOF 8
ENDMDL
