MODEL 1
REMARK VINA RESULT:      -6.2      0.000      0.000
REMARK  10 active torsions:
REMARK  status: ('A' for Active; 'I' for Inactive)
REMARK    1  A    between atoms: C_2  and  C_3 
REMARK    2  A    between atoms: C_3  and  C_4 
REMARK    3  A    between atoms: C_3  and  C_20 
REMARK    4  A    between atoms: C_3  and  N_26 
REMARK    5  A    between atoms: C_4  and  O_5 
REMARK    6  A    between atoms: O_5  and  C_6 
REMARK    7  A    between atoms: C_6  and  C_8 
REMARK    8  A    between atoms: C_10  and  O_18 
REMARK    9  A    between atoms: C_11  and  O_16 
REMARK   10  A    between atoms: C_12  and  O_14 
ROOT
HETATM    1  O   UNK N   1      35.272  17.084   8.978  0.00  0.00    -0.315 OA
ENDROOT
BRANCH   1   2
HETATM    2  C   UNK N   1      34.673  16.364   9.987  0.00  0.00     0.226 C 
BRANCH   2   3
HETATM    3  C   UNK N   1      34.946  14.833   9.955  0.00  0.00     0.207 C 
BRANCH   3   4
HETATM    4  C   UNK N   1      36.182  14.676   9.037  0.00  0.00     0.045 C 
HETATM    5  C   UNK N   1      37.177  13.622   9.510  0.00  0.00     0.008 C 
ENDBRANCH   3   4
BRANCH   3   6
HETATM    6  C   UNK N   1      35.277  14.279  11.345  0.00  0.00    -0.018 A 
HETATM    7  C   UNK N   1      35.980  15.048  12.289  0.00  0.00     0.010 A 
HETATM    8  C   UNK N   1      36.256  14.533  13.558  0.00  0.00     0.001 A 
HETATM    9  C   UNK N   1      35.836  13.245  13.898  0.00  0.00     0.000 A 
HETATM   10  C   UNK N   1      35.141  12.469  12.968  0.00  0.00     0.001 A 
HETATM   11  C   UNK N   1      34.862  12.983  11.700  0.00  0.00     0.010 A 
ENDBRANCH   3   6
BRANCH   3  12
HETATM   12  N   UNK N   1      33.788  14.114   9.350  0.00  0.00     0.096 N 
HETATM   13  C   UNK N   1      33.956  13.900   7.912  0.00  0.00     0.310 C 
HETATM   14  C   UNK N   1      32.514  14.813   9.512  0.00  0.00     0.310 C 
ENDBRANCH   3  12
ENDBRANCH   2   3
ENDBRANCH   1   2
BRANCH   1  15
HETATM   15  C   UNK N   1      34.575  18.096   8.408  0.00  0.00     0.293 C 
HETATM   16  O   UNK N   1      35.024  19.233   8.439  0.00  0.00    -0.259 OA
BRANCH  15  17
HETATM   17  C   UNK N   1      33.343  17.802   7.648  0.00  0.00     0.045 A 
HETATM   18  C   UNK N   1      32.110  18.036   8.238  0.00  0.00     0.057 A 
HETATM   19  C   UNK N   1      30.915  17.732   7.599  0.00  0.00     0.105 A 
HETATM   20  C   UNK N   1      30.953  17.151   6.304  0.00  0.00     0.135 A 
HETATM   21  C   UNK N   1      32.220  16.885   5.693  0.00  0.00     0.105 A 
HETATM   22  C   UNK N   1      33.393  17.233   6.375  0.00  0.00     0.057 A 
BRANCH  19  23
HETATM   23  O   UNK N   1      29.769  18.025   8.268  0.00  0.00    -0.353 OA
HETATM   24  C   UNK N   1      29.664  18.306   9.610  0.00  0.00     0.210 C 
ENDBRANCH  19  23
BRANCH  20  25
HETATM   25  O   UNK N   1      29.791  16.862   5.678  0.00  0.00    -0.351 OA
HETATM   26  C   UNK N   1      29.206  17.758   4.813  0.00  0.00     0.210 C 
ENDBRANCH  20  25
BRANCH  21  27
HETATM   27  O   UNK N   1      32.370  16.279   4.486  0.00  0.00    -0.353 OA
HETATM   28  C   UNK N   1      32.683  16.909   3.303  0.00  0.00     0.210 C 
ENDBRANCH  21  27
ENDBRANCH  15  17
ENDBRANCH   1  15
TORSDOF 10
ENDMDL
MODEL 2
REMARK VINA RESULT:      -6.2      3.064      6.107
REMARK  10 active torsions:
REMARK  status: ('A' for Active; 'I' for Inactive)
REMARK    1  A    between atoms: C_2  and  C_3 
REMARK    2  A    between atoms: C_3  and  C_4 
REMARK    3  A    between atoms: C_3  and  C_20 
REMARK    4  A    between atoms: C_3  and  N_26 
REMARK    5  A    between atoms: C_4  and  O_5 
REMARK    6  A    between atoms: O_5  and  C_6 
REMARK    7  A    between atoms: C_6  and  C_8 
REMARK    8  A    between atoms: C_10  and  O_18 
REMARK    9  A    between atoms: C_11  and  O_16 
REMARK   10  A    between atoms: C_12  and  O_14 
ROOT
HETATM    1  O   UNK N   1      30.863  17.376   9.040  0.00  0.00    -0.315 OA
ENDROOT
BRANCH   1   2
HETATM    2  C   UNK N   1      31.881  17.916   8.286  0.00  0.00     0.226 C 
BRANCH   2   3
HETATM    3  C   UNK N   1      32.745  16.881   7.511  0.00  0.00     0.207 C 
BRANCH   3   4
HETATM    4  C   UNK N   1      32.273  15.505   8.036  0.00  0.00     0.045 C 
HETATM    5  C   UNK N   1      32.191  14.425   6.963  0.00  0.00     0.008 C 
ENDBRANCH   3   4
BRANCH   3   6
HETATM    6  C   UNK N   1      32.508  16.952   5.998  0.00  0.00    -0.018 A 
HETATM    7  C   UNK N   1      33.550  16.709   5.085  0.00  0.00     0.010 A 
HETATM    8  C   UNK N   1      33.310  16.760   3.709  0.00  0.00     0.001 A 
HETATM    9  C   UNK N   1      32.032  17.054   3.231  0.00  0.00     0.000 A 
HETATM   10  C   UNK N   1      30.990  17.301   4.128  0.00  0.00     0.001 A 
HETATM   11  C   UNK N   1      31.227  17.249   5.502  0.00  0.00     0.010 A 
ENDBRANCH   3   6
BRANCH   3  12
HETATM   12  N   UNK N   1      34.189  17.066   7.840  0.00  0.00     0.096 N 
HETATM   13  C   UNK N   1      34.610  16.245   8.975  0.00  0.00     0.310 C 
HETATM   14  C   UNK N   1      34.543  18.443   8.178  0.00  0.00     0.310 C 
ENDBRANCH   3  12
ENDBRANCH   2   3
ENDBRANCH   1   2
BRANCH   1  15
HETATM   15  C   UNK N   1      29.678  18.031   9.086  0.00  0.00     0.293 C 
HETATM   16  O   UNK N   1      29.393  18.696  10.072  0.00  0.00    -0.259 OA
BRANCH  15  17
HETATM   17  C   UNK N   1      28.797  18.040   7.901  0.00  0.00     0.045 A 
HETATM   18  C   UNK N   1      28.526  19.243   7.266  0.00  0.00     0.057 A 
HETATM   19  C   UNK N   1      27.664  19.328   6.180  0.00  0.00     0.105 A 
HETATM   20  C   UNK N   1      27.027  18.150   5.710  0.00  0.00     0.135 A 
HETATM   21  C   UNK N   1      27.282  16.905   6.371  0.00  0.00     0.105 A 
HETATM   22  C   UNK N   1      28.178  16.874   7.446  0.00  0.00     0.057 A 
BRANCH  19  23
HETATM   23  O   UNK N   1      27.493  20.558   5.628  0.00  0.00    -0.353 OA
HETATM   24  C   UNK N   1      26.764  21.593   6.165  0.00  0.00     0.210 C 
ENDBRANCH  19  23
BRANCH  20  25
HETATM   25  O   UNK N   1      26.194  18.230   4.649  0.00  0.00    -0.351 OA
HETATM   26  C   UNK N   1      24.847  18.448   4.816  0.00  0.00     0.210 C 
ENDBRANCH  20  25
BRANCH  21  27
HETATM   27  O   UNK N   1      26.682  15.731   6.040  0.00  0.00    -0.353 OA
HETATM   28  C   UNK N   1      25.727  15.079   6.786  0.00  0.00     0.210 C 
ENDBRANCH  21  27
ENDBRANCH  15  17
ENDBRANCH   1  15
TORSDOF 10
ENDMDL
MODEL 3
REMARK VINA RESULT:      -6.1      4.280      6.101
REMARK  10 active torsions:
REMARK  status: ('A' for Active; 'I' for Inactive)
REMARK    1  A    between atoms: C_2  and  C_3 
REMARK    2  A    between atoms: C_3  and  C_4 
REMARK    3  A    between atoms: C_3  and  C_20 
REMARK    4  A    between atoms: C_3  and  N_26 
REMARK    5  A    between atoms: C_4  and  O_5 
REMARK    6  A    between atoms: O_5  and  C_6 
REMARK    7  A    between atoms: C_6  and  C_8 
REMARK    8  A    between atoms: C_10  and  O_18 
REMARK    9  A    between atoms: C_11  and  O_16 
REMARK   10  A    between atoms: C_12  and  O_14 
ROOT
HETATM    1  O   UNK N   1      29.739  15.138   4.433  0.00  0.00    -0.315 OA
ENDROOT
BRANCH   1   2
HETATM    2  C   UNK N   1      30.746  14.815   5.315  0.00  0.00     0.226 C 
BRANCH   2   3
HETATM    3  C   UNK N   1      32.112  15.501   5.034  0.00  0.00     0.207 C 
BRANCH   3   4
HETATM    4  C   UNK N   1      31.871  16.346   3.760  0.00  0.00     0.045 C 
HETATM    5  C   UNK N   1      31.823  17.849   4.011  0.00  0.00     0.008 C 
ENDBRANCH   3   4
BRANCH   3   6
HETATM    6  C   UNK N   1      32.537  16.428   6.180  0.00  0.00    -0.018 A 
HETATM    7  C   UNK N   1      33.838  16.955   6.247  0.00  0.00     0.010 A 
HETATM    8  C   UNK N   1      34.201  17.812   7.289  0.00  0.00     0.001 A 
HETATM    9  C   UNK N   1      33.271  18.152   8.273  0.00  0.00     0.000 A 
HETATM   10  C   UNK N   1      31.976  17.632   8.220  0.00  0.00     0.001 A 
HETATM   11  C   UNK N   1      31.611  16.777   7.179  0.00  0.00     0.010 A 
ENDBRANCH   3   6
BRANCH   3  12
HETATM   12  N   UNK N   1      33.159  14.475   4.756  0.00  0.00     0.096 N 
HETATM   13  C   UNK N   1      33.512  14.413   3.337  0.00  0.00     0.310 C 
HETATM   14  C   UNK N   1      32.768  13.120   5.139  0.00  0.00     0.310 C 
ENDBRANCH   3  12
ENDBRANCH   2   3
ENDBRANCH   1   2
BRANCH   1  15
HETATM   15  C   UNK N   1      28.549  15.544   4.935  0.00  0.00     0.293 C 
HETATM   16  O   UNK N   1      27.690  14.716   5.201  0.00  0.00    -0.259 OA
BRANCH  15  17
HETATM   17  C   UNK N   1      28.341  16.967   5.272  0.00  0.00     0.045 A 
HETATM   18  C   UNK N   1      28.380  17.362   6.601  0.00  0.00     0.057 A 
HETATM   19  C   UNK N   1      28.140  18.673   6.991  0.00  0.00     0.105 A 
HETATM   20  C   UNK N   1      27.831  19.642   6.000  0.00  0.00     0.135 A 
HETATM   21  C   UNK N   1      27.767  19.243   4.627  0.00  0.00     0.105 A 
HETATM   22  C   UNK N   1      28.041  17.911   4.289  0.00  0.00     0.057 A 
BRANCH  19  23
HETATM   23  O   UNK N   1      28.226  18.944   8.320  0.00  0.00    -0.353 OA
HETATM   24  C   UNK N   1      28.367  18.020   9.328  0.00  0.00     0.210 C 
ENDBRANCH  19  23
BRANCH  20  25
HETATM   25  O   UNK N   1      27.605  20.920   6.376  0.00  0.00    -0.351 OA
HETATM   26  C   UNK N   1      26.369  21.322   6.827  0.00  0.00     0.210 C 
ENDBRANCH  20  25
BRANCH  21  27
HETATM   27  O   UNK N   1      27.424  20.074   3.607  0.00  0.00    -0.353 OA
HETATM   28  C   UNK N   1      26.141  20.368   3.206  0.00  0.00     0.210 C 
ENDBRANCH  21  27
ENDBRANCH  15  17
ENDBRANCH   1  15
TORSDOF 10
ENDMDL
MODEL 4
REMARK VINA RESULT:      -6.1     15.965     19.150
REMARK  10 active torsions:
REMARK  status: ('A' for Active; 'I' for Inactive)
REMARK    1  A    between atoms: C_2  and  C_3 
REMARK    2  A    between atoms: C_3  and  C_4 
REMARK    3  A    between atoms: C_3  and  C_20 
REMARK    4  A    between atoms: C_3  and  N_26 
REMARK    5  A    between atoms: C_4  and  O_5 
REMARK    6  A    between atoms: O_5  and  C_6 
REMARK    7  A    between atoms: C_6  and  C_8 
REMARK    8  A    between atoms: C_10  and  O_18 
REMARK    9  A    between atoms: C_11  and  O_16 
REMARK   10  A    between atoms: C_12  and  O_14 
ROOT
HETATM    1  O   UNK N   1      26.331  26.046  -3.870  0.00  0.00    -0.315 OA
ENDROOT
BRANCH   1   2
HETATM    2  C   UNK N   1      27.203  27.086  -3.638  0.00  0.00     0.226 C 
BRANCH   2   3
HETATM    3  C   UNK N   1      27.562  27.935  -4.890  0.00  0.00     0.207 C 
BRANCH   3   4
HETATM    4  C   UNK N   1      29.097  28.115  -4.812  0.00  0.00     0.045 C 
HETATM    5  C   UNK N   1      29.760  27.325  -3.690  0.00  0.00     0.008 C 
ENDBRANCH   3   4
BRANCH   3   6
HETATM    6  C   UNK N   1      27.205  27.215  -6.195  0.00  0.00    -0.018 A 
HETATM    7  C   UNK N   1      25.868  27.064  -6.602  0.00  0.00     0.010 A 
HETATM    8  C   UNK N   1      25.562  26.421  -7.804  0.00  0.00     0.001 A 
HETATM    9  C   UNK N   1      26.586  25.921  -8.611  0.00  0.00     0.000 A 
HETATM   10  C   UNK N   1      27.918  26.061  -8.216  0.00  0.00     0.001 A 
HETATM   11  C   UNK N   1      28.226  26.704  -7.016  0.00  0.00     0.010 A 
ENDBRANCH   3   6
BRANCH   3  12
HETATM   12  N   UNK N   1      26.904  29.272  -4.814  0.00  0.00     0.096 N 
HETATM   13  C   UNK N   1      27.814  30.360  -5.171  0.00  0.00     0.310 C 
HETATM   14  C   UNK N   1      26.381  29.595  -3.488  0.00  0.00     0.310 C 
ENDBRANCH   3  12
ENDBRANCH   2   3
ENDBRANCH   1   2
BRANCH   1  15
HETATM   15  C   UNK N   1      26.772  24.780  -3.674  0.00  0.00     0.293 C 
HETATM   16  O   UNK N   1      26.687  24.275  -2.564  0.00  0.00    -0.259 OA
BRANCH  15  17
HETATM   17  C   UNK N   1      27.236  23.978  -4.824  0.00  0.00     0.045 A 
HETATM   18  C   UNK N   1      26.311  23.529  -5.755  0.00  0.00     0.057 A 
HETATM   19  C   UNK N   1      26.673  22.726  -6.829  0.00  0.00     0.105 A 
HETATM   20  C   UNK N   1      28.031  22.339  -6.974  0.00  0.00     0.135 A 
HETATM   21  C   UNK N   1      28.991  22.779  -6.008  0.00  0.00     0.105 A 
HETATM   22  C   UNK N   1      28.574  23.606  -4.958  0.00  0.00     0.057 A 
BRANCH  19  23
HETATM   23  O   UNK N   1      25.683  22.365  -7.686  0.00  0.00    -0.353 OA
HETATM   24  C   UNK N   1      24.812  21.313  -7.523  0.00  0.00     0.210 C 
ENDBRANCH  19  23
BRANCH  20  25
HETATM   25  O   UNK N   1      28.386  21.564  -8.023  0.00  0.00    -0.351 OA
HETATM   26  C   UNK N   1      28.415  20.193  -7.919  0.00  0.00     0.210 C 
ENDBRANCH  20  25
BRANCH  21  27
HETATM   27  O   UNK N   1      30.302  22.419  -6.020  0.00  0.00    -0.353 OA
HETATM   28  C   UNK N   1      30.875  21.440  -5.241  0.00  0.00     0.210 C 
ENDBRANCH  21  27
ENDBRANCH  15  17
ENDBRANCH   1  15
TORSDOF 10
ENDMDL
MODEL 5
REMARK VINA RESULT:      -6.1      1.254      3.223
REMARK  10 active torsions:
REMARK  status: ('A' for Active; 'I' for Inactive)
REMARK    1  A    between atoms: C_2  and  C_3 
REMARK    2  A    between atoms: C_3  and  C_4 
REMARK    3  A    between atoms: C_3  and  C_20 
REMARK    4  A    between atoms: C_3  and  N_26 
REMARK    5  A    between atoms: C_4  and  O_5 
REMARK    6  A    between atoms: O_5  and  C_6 
REMARK    7  A    between atoms: C_6  and  C_8 
REMARK    8  A    between atoms: C_10  and  O_18 
REMARK    9  A    between atoms: C_11  and  O_16 
REMARK   10  A    between atoms: C_12  and  O_14 
ROOT
HETATM    1  O   UNK N   1      35.192  16.939   8.930  0.00  0.00    -0.315 OA
ENDROOT
BRANCH   1   2
HETATM    2  C   UNK N   1      34.470  15.977   9.600  0.00  0.00     0.226 C 
BRANCH   2   3
HETATM    3  C   UNK N   1      35.029  14.532   9.478  0.00  0.00     0.207 C 
BRANCH   3   4
HETATM    4  C   UNK N   1      33.776  13.642   9.300  0.00  0.00     0.045 C 
HETATM    5  C   UNK N   1      32.491  14.421   9.043  0.00  0.00     0.008 C 
ENDBRANCH   3   4
BRANCH   3   6
HETATM    6  C   UNK N   1      35.939  14.369   8.255  0.00  0.00    -0.018 A 
HETATM    7  C   UNK N   1      35.479  14.663   6.959  0.00  0.00     0.010 A 
HETATM    8  C   UNK N   1      36.329  14.526   5.859  0.00  0.00     0.001 A 
HETATM    9  C   UNK N   1      37.645  14.094   6.039  0.00  0.00     0.000 A 
HETATM   10  C   UNK N   1      38.112  13.794   7.320  0.00  0.00     0.001 A 
HETATM   11  C   UNK N   1      37.266  13.932   8.421  0.00  0.00     0.010 A 
ENDBRANCH   3   6
BRANCH   3  12
HETATM   12  N   UNK N   1      35.737  14.143  10.732  0.00  0.00     0.096 N 
HETATM   13  C   UNK N   1      35.184  12.927  11.328  0.00  0.00     0.310 C 
HETATM   14  C   UNK N   1      35.690  15.167  11.774  0.00  0.00     0.310 C 
ENDBRANCH   3  12
ENDBRANCH   2   3
ENDBRANCH   1   2
BRANCH   1  15
HETATM   15  C   UNK N   1      34.522  17.982   8.382  0.00  0.00     0.293 C 
HETATM   16  O   UNK N   1      35.037  19.091   8.367  0.00  0.00    -0.259 OA
BRANCH  15  17
HETATM   17  C   UNK N   1      33.233  17.749   7.699  0.00  0.00     0.045 A 
HETATM   18  C   UNK N   1      32.052  17.889   8.413  0.00  0.00     0.057 A 
HETATM   19  C   UNK N   1      30.811  17.634   7.846  0.00  0.00     0.105 A 
HETATM   20  C   UNK N   1      30.745  17.202   6.495  0.00  0.00     0.135 A 
HETATM   21  C   UNK N   1      31.958  17.034   5.754  0.00  0.00     0.105 A 
HETATM   22  C   UNK N   1      33.181  17.328   6.370  0.00  0.00     0.057 A 
BRANCH  19  23
HETATM   23  O   UNK N   1      29.723  17.825   8.638  0.00  0.00    -0.353 OA
HETATM   24  C   UNK N   1      29.653  18.654   9.732  0.00  0.00     0.210 C 
ENDBRANCH  19  23
BRANCH  20  25
HETATM   25  O   UNK N   1      29.537  16.961   5.939  0.00  0.00    -0.351 OA
HETATM   26  C   UNK N   1      28.884  17.926   5.207  0.00  0.00     0.210 C 
ENDBRANCH  20  25
BRANCH  21  27
HETATM   27  O   UNK N   1      32.012  16.571   4.477  0.00  0.00    -0.353 OA
HETATM   28  C   UNK N   1      32.727  17.136   3.446  0.00  0.00     0.210 C 
ENDBRANCH  21  27
ENDBRANCH  15  17
ENDBRANCH   1  15
TORSDOF 10
ENDMDL
MODEL 6
REMARK VINA RESULT:      -6.1     16.065     19.197
REMARK  10 active torsions:
REMARK  status: ('A' for Active; 'I' for Inactive)
REMARK    1  A    between atoms: C_2  and  C_3 
REMARK    2  A    between atoms: C_3  and  C_4 
REMARK    3  A    between atoms: C_3  and  C_20 
REMARK    4  A    between atoms: C_3  and  N_26 
REMARK    5  A    between atoms: C_4  and  O_5 
REMARK    6  A    between atoms: O_5  and  C_6 
REMARK    7  A    between atoms: C_6  and  C_8 
REMARK    8  A    between atoms: C_10  and  O_18 
REMARK    9  A    between atoms: C_11  and  O_16 
REMARK   10  A    between atoms: C_12  and  O_14 
ROOT
HETATM    1  O   UNK N   1      26.273  26.008  -3.950  0.00  0.00    -0.315 OA
ENDROOT
BRANCH   1   2
HETATM    2  C   UNK N   1      27.095  27.081  -3.689  0.00  0.00     0.226 C 
BRANCH   2   3
HETATM    3  C   UNK N   1      27.526  27.899  -4.938  0.00  0.00     0.207 C 
BRANCH   3   4
HETATM    4  C   UNK N   1      29.063  28.024  -4.812  0.00  0.00     0.045 C 
HETATM    5  C   UNK N   1      29.666  27.185  -3.691  0.00  0.00     0.008 C 
ENDBRANCH   3   4
BRANCH   3   6
HETATM    6  C   UNK N   1      27.185  27.175  -6.246  0.00  0.00    -0.018 A 
HETATM    7  C   UNK N   1      25.853  27.013  -6.664  0.00  0.00     0.010 A 
HETATM    8  C   UNK N   1      25.562  26.367  -7.868  0.00  0.00     0.001 A 
HETATM    9  C   UNK N   1      26.597  25.875  -8.666  0.00  0.00     0.000 A 
HETATM   10  C   UNK N   1      27.925  26.025  -8.260  0.00  0.00     0.001 A 
HETATM   11  C   UNK N   1      28.217  26.672  -7.058  0.00  0.00     0.010 A 
ENDBRANCH   3   6
BRANCH   3  12
HETATM   12  N   UNK N   1      26.915  29.260  -4.901  0.00  0.00     0.096 N 
HETATM   13  C   UNK N   1      27.889  30.314  -5.186  0.00  0.00     0.310 C 
HETATM   14  C   UNK N   1      26.313  29.598  -3.612  0.00  0.00     0.310 C 
ENDBRANCH   3  12
ENDBRANCH   2   3
ENDBRANCH   1   2
BRANCH   1  15
HETATM   15  C   UNK N   1      26.741  24.761  -3.699  0.00  0.00     0.293 C 
HETATM   16  O   UNK N   1      26.688  24.313  -2.562  0.00  0.00    -0.259 OA
BRANCH  15  17
HETATM   17  C   UNK N   1      27.197  23.908  -4.815  0.00  0.00     0.045 A 
HETATM   18  C   UNK N   1      28.541  23.583  -4.915  0.00  0.00     0.057 A 
HETATM   19  C   UNK N   1      29.043  22.830  -5.968  0.00  0.00     0.105 A 
HETATM   20  C   UNK N   1      28.157  22.389  -6.986  0.00  0.00     0.135 A 
HETATM   21  C   UNK N   1      26.771  22.736  -6.905  0.00  0.00     0.105 A 
HETATM   22  C   UNK N   1      26.315  23.478  -5.808  0.00  0.00     0.057 A 
BRANCH  19  23
HETATM   23  O   UNK N   1      30.374  22.557  -5.948  0.00  0.00    -0.353 OA
HETATM   24  C   UNK N   1      30.965  21.442  -5.401  0.00  0.00     0.210 C 
ENDBRANCH  19  23
BRANCH  20  25
HETATM   25  O   UNK N   1      28.643  21.649  -8.007  0.00  0.00    -0.351 OA
HETATM   26  C   UNK N   1      28.551  20.277  -8.000  0.00  0.00     0.210 C 
ENDBRANCH  20  25
BRANCH  21  27
HETATM   27  O   UNK N   1      25.849  22.416  -7.852  0.00  0.00    -0.353 OA
HETATM   28  C   UNK N   1      24.901  21.424  -7.749  0.00  0.00     0.210 C 
ENDBRANCH  21  27
ENDBRANCH  15  17
ENDBRANCH   1  15
TORSDOF 10
ENDMDL
MODEL 7
REMARK VINA RESULT:      -6.1     13.619     18.564
REMARK  10 active torsions:
REMARK  status: ('A' for Active; 'I' for Inactive)
REMARK    1  A    between atoms: C_2  and  C_3 
REMARK    2  A    between atoms: C_3  and  C_4 
REMARK    3  A    between atoms: C_3  and  C_20 
REMARK    4  A    between atoms: C_3  and  N_26 
REMARK    5  A    between atoms: C_4  and  O_5 
REMARK    6  A    between atoms: O_5  and  C_6 
REMARK    7  A    between atoms: C_6  and  C_8 
REMARK    8  A    between atoms: C_10  and  O_18 
REMARK    9  A    between atoms: C_11  and  O_16 
REMARK   10  A    between atoms: C_12  and  O_14 
ROOT
HETATM    1  O   UNK N   1      29.013  27.051  -3.827  0.00  0.00    -0.315 OA
ENDROOT
BRANCH   1   2
HETATM    2  C   UNK N   1      29.105  28.414  -4.001  0.00  0.00     0.226 C 
BRANCH   2   3
HETATM    3  C   UNK N   1      27.821  29.094  -4.553  0.00  0.00     0.207 C 
BRANCH   3   4
HETATM    4  C   UNK N   1      28.341  30.232  -5.462  0.00  0.00     0.045 C 
HETATM    5  C   UNK N   1      29.861  30.327  -5.532  0.00  0.00     0.008 C 
ENDBRANCH   3   4
BRANCH   3   6
HETATM    6  C   UNK N   1      26.973  28.128  -5.390  0.00  0.00    -0.018 A 
HETATM    7  C   UNK N   1      25.736  27.651  -4.922  0.00  0.00     0.010 A 
HETATM    8  C   UNK N   1      24.969  26.786  -5.706  0.00  0.00     0.001 A 
HETATM    9  C   UNK N   1      25.427  26.389  -6.964  0.00  0.00     0.000 A 
HETATM   10  C   UNK N   1      26.655  26.853  -7.439  0.00  0.00     0.001 A 
HETATM   11  C   UNK N   1      27.423  27.718  -6.657  0.00  0.00     0.010 A 
ENDBRANCH   3   6
BRANCH   3  12
HETATM   12  N   UNK N   1      27.025  29.679  -3.435  0.00  0.00     0.096 N 
HETATM   13  C   UNK N   1      26.506  31.008  -3.759  0.00  0.00     0.310 C 
HETATM   14  C   UNK N   1      27.779  29.827  -2.192  0.00  0.00     0.310 C 
ENDBRANCH   3  12
ENDBRANCH   2   3
ENDBRANCH   1   2
BRANCH   1  15
HETATM   15  C   UNK N   1      30.147  26.358  -3.559  0.00  0.00     0.293 C 
HETATM   16  O   UNK N   1      31.068  26.910  -2.974  0.00  0.00    -0.259 OA
BRANCH  15  17
HETATM   17  C   UNK N   1      30.215  24.914  -3.862  0.00  0.00     0.045 A 
HETATM   18  C   UNK N   1      29.448  24.402  -4.898  0.00  0.00     0.057 A 
HETATM   19  C   UNK N   1      29.425  23.047  -5.201  0.00  0.00     0.105 A 
HETATM   20  C   UNK N   1      30.200  22.152  -4.418  0.00  0.00     0.135 A 
HETATM   21  C   UNK N   1      30.980  22.666  -3.332  0.00  0.00     0.105 A 
HETATM   22  C   UNK N   1      30.983  24.045  -3.087  0.00  0.00     0.057 A 
BRANCH  19  23
HETATM   23  O   UNK N   1      28.652  22.665  -6.251  0.00  0.00    -0.353 OA
HETATM   24  C   UNK N   1      27.419  23.179  -6.578  0.00  0.00     0.210 C 
ENDBRANCH  19  23
BRANCH  20  25
HETATM   25  O   UNK N   1      30.186  20.834  -4.716  0.00  0.00    -0.351 OA
HETATM   26  C   UNK N   1      31.057  20.302  -5.638  0.00  0.00     0.210 C 
ENDBRANCH  20  25
BRANCH  21  27
HETATM   27  O   UNK N   1      31.710  21.892  -2.486  0.00  0.00    -0.353 OA
HETATM   28  C   UNK N   1      32.955  21.369  -2.746  0.00  0.00     0.210 C 
ENDBRANCH  21  27
ENDBRANCH  15  17
ENDBRANCH   1  15
TORSDOF 10
ENDMDL
MODEL 8
REMARK VINA RESULT:      -6.0      1.230      4.027
REMARK  10 active torsions:
REMARK  status: ('A' for Active; 'I' for Inactive)
REMARK    1  A    between atoms: C_2  and  C_3 
REMARK    2  A    between atoms: C_3  and  C_4 
REMARK    3  A    between atoms: C_3  and  C_20 
REMARK    4  A    between atoms: C_3  and  N_26 
REMARK    5  A    between atoms: C_4  and  O_5 
REMARK    6  A    between atoms: O_5  and  C_6 
REMARK    7  A    between atoms: C_6  and  C_8 
REMARK    8  A    between atoms: C_10  and  O_18 
REMARK    9  A    between atoms: C_11  and  O_16 
REMARK   10  A    between atoms: C_12  and  O_14 
ROOT
HETATM    1  O   UNK N   1      35.230  16.893   8.936  0.00  0.00    -0.315 OA
ENDROOT
BRANCH   1   2
HETATM    2  C   UNK N   1      34.564  15.958   9.696  0.00  0.00     0.226 C 
BRANCH   2   3
HETATM    3  C   UNK N   1      35.056  14.494   9.518  0.00  0.00     0.207 C 
BRANCH   3   4
HETATM    4  C   UNK N   1      33.767  13.675   9.267  0.00  0.00     0.045 C 
HETATM    5  C   UNK N   1      32.490  14.508   9.274  0.00  0.00     0.008 C 
ENDBRANCH   3   4
BRANCH   3   6
HETATM    6  C   UNK N   1      35.990  14.344   8.311  0.00  0.00    -0.018 A 
HETATM    7  C   UNK N   1      37.333  13.958   8.472  0.00  0.00     0.010 A 
HETATM    8  C   UNK N   1      38.164  13.809   7.359  0.00  0.00     0.001 A 
HETATM    9  C   UNK N   1      37.666  14.043   6.076  0.00  0.00     0.000 A 
HETATM   10  C   UNK N   1      36.335  14.430   5.903  0.00  0.00     0.001 A 
HETATM   11  C   UNK N   1      35.503  14.579   7.013  0.00  0.00     0.010 A 
ENDBRANCH   3   6
BRANCH   3  12
HETATM   12  N   UNK N   1      35.711  14.013  10.769  0.00  0.00     0.096 N 
HETATM   13  C   UNK N   1      35.076  12.806  11.300  0.00  0.00     0.310 C 
HETATM   14  C   UNK N   1      35.696  14.993  11.853  0.00  0.00     0.310 C 
ENDBRANCH   3  12
ENDBRANCH   2   3
ENDBRANCH   1   2
BRANCH   1  15
HETATM   15  C   UNK N   1      34.519  17.918   8.407  0.00  0.00     0.293 C 
HETATM   16  O   UNK N   1      35.004  19.040   8.381  0.00  0.00    -0.259 OA
BRANCH  15  17
HETATM   17  C   UNK N   1      33.220  17.652   7.756  0.00  0.00     0.045 A 
HETATM   18  C   UNK N   1      33.198  17.184   6.451  0.00  0.00     0.057 A 
HETATM   19  C   UNK N   1      32.011  16.965   5.764  0.00  0.00     0.105 A 
HETATM   20  C   UNK N   1      30.778  17.242   6.411  0.00  0.00     0.135 A 
HETATM   21  C   UNK N   1      30.788  17.745   7.751  0.00  0.00     0.105 A 
HETATM   22  C   UNK N   1      32.014  17.925   8.404  0.00  0.00     0.057 A 
BRANCH  19  23
HETATM   23  O   UNK N   1      32.115  16.486   4.497  0.00  0.00    -0.353 OA
HETATM   24  C   UNK N   1      32.399  17.224   3.371  0.00  0.00     0.210 C 
ENDBRANCH  19  23
BRANCH  20  25
HETATM   25  O   UNK N   1      29.622  17.022   5.747  0.00  0.00    -0.351 OA
HETATM   26  C   UNK N   1      29.034  18.011   4.994  0.00  0.00     0.210 C 
ENDBRANCH  20  25
BRANCH  21  27
HETATM   27  O   UNK N   1      29.671  18.097   8.440  0.00  0.00    -0.353 OA
HETATM   28  C   UNK N   1      29.640  18.593   9.723  0.00  0.00     0.210 C 
ENDBRANCH  21  27
ENDBRANCH  15  17
ENDBRANCH   1  15
TORSDOF 10
ENDMDL
MODEL 9
REMARK VINA RESULT:      -6.0      3.030      8.397
REMARK  10 active torsions:
REMARK  status: ('A' for Active; 'I' for Inactive)
REMARK    1  A    between atoms: C_2  and  C_3 
REMARK    2  A    between atoms: C_3  and  C_4 
REMARK    3  A    between atoms: C_3  and  C_20 
REMARK    4  A    between atoms: C_3  and  N_26 
REMARK    5  A    between atoms: C_4  and  O_5 
REMARK    6  A    between atoms: O_5  and  C_6 
REMARK    7  A    between atoms: C_6  and  C_8 
REMARK    8  A    between atoms: C_10  and  O_18 
REMARK    9  A    between atoms: C_11  and  O_16 
REMARK   10  A    between atoms: C_12  and  O_14 
ROOT
HETATM    1  O   UNK N   1      29.991  17.534   3.974  0.00  0.00    -0.315 OA
ENDROOT
BRANCH   1   2
HETATM    2  C   UNK N   1      28.962  16.699   3.601  0.00  0.00     0.226 C 
BRANCH   2   3
HETATM    3  C   UNK N   1      27.626  16.921   4.364  0.00  0.00     0.207 C 
BRANCH   3   4
HETATM    4  C   UNK N   1      27.652  15.883   5.511  0.00  0.00     0.045 C 
HETATM    5  C   UNK N   1      28.654  14.753   5.303  0.00  0.00     0.008 C 
ENDBRANCH   3   4
BRANCH   3   6
HETATM    6  C   UNK N   1      27.532  18.330   4.962  0.00  0.00    -0.018 A 
HETATM    7  C   UNK N   1      27.145  19.431   4.177  0.00  0.00     0.010 A 
HETATM    8  C   UNK N   1      27.047  20.704   4.744  0.00  0.00     0.001 A 
HETATM    9  C   UNK N   1      27.335  20.892   6.097  0.00  0.00     0.000 A 
HETATM   10  C   UNK N   1      27.725  19.808   6.886  0.00  0.00     0.001 A 
HETATM   11  C   UNK N   1      27.822  18.535   6.322  0.00  0.00     0.010 A 
ENDBRANCH   3   6
BRANCH   3  12
HETATM   12  N   UNK N   1      26.466  16.638   3.468  0.00  0.00     0.096 N 
HETATM   13  C   UNK N   1      25.321  16.094   4.197  0.00  0.00     0.310 C 
HETATM   14  C   UNK N   1      26.766  15.681   2.405  0.00  0.00     0.310 C 
ENDBRANCH   3  12
ENDBRANCH   2   3
ENDBRANCH   1   2
BRANCH   1  15
HETATM   15  C   UNK N   1      31.257  17.053   3.933  0.00  0.00     0.293 C 
HETATM   16  O   UNK N   1      31.766  16.781   2.855  0.00  0.00    -0.259 OA
BRANCH  15  17
HETATM   17  C   UNK N   1      32.055  16.978   5.174  0.00  0.00     0.045 A 
HETATM   18  C   UNK N   1      33.354  16.494   5.116  0.00  0.00     0.057 A 
HETATM   19  C   UNK N   1      34.139  16.347   6.252  0.00  0.00     0.105 A 
HETATM   20  C   UNK N   1      33.593  16.689   7.517  0.00  0.00     0.135 A 
HETATM   21  C   UNK N   1      32.246  17.169   7.592  0.00  0.00     0.105 A 
HETATM   22  C   UNK N   1      31.509  17.319   6.411  0.00  0.00     0.057 A 
BRANCH  19  23
HETATM   23  O   UNK N   1      35.403  15.883   6.069  0.00  0.00    -0.353 OA
HETATM   24  C   UNK N   1      35.750  14.676   5.509  0.00  0.00     0.210 C 
ENDBRANCH  19  23
BRANCH  20  25
HETATM   25  O   UNK N   1      34.358  16.555   8.623  0.00  0.00    -0.351 OA
HETATM   26  C   UNK N   1      34.358  15.388   9.352  0.00  0.00     0.210 C 
ENDBRANCH  20  25
BRANCH  21  27
HETATM   27  O   UNK N   1      31.608  17.469   8.754  0.00  0.00    -0.353 OA
HETATM   28  C   UNK N   1      30.566  18.356   8.894  0.00  0.00     0.210 C 
ENDBRANCH  21  27
ENDBRANCH  15  17
ENDBRANCH   1  15
TORSDOF 10
ENDMDL
