MODEL 1
REMARK VINA RESULT:      -7.4      0.000      0.000
REMARK  9 active torsions:
REMARK  status: ('A' for Active; 'I' for Inactive)
REMARK    1  A    between atoms: C_8  and  O_12 
REMARK    2  A    between atoms: C_10  and  C_13 
REMARK    3  A    between atoms: C_13  and  C_14 
REMARK    4  A    between atoms: C_13  and  O_15 
REMARK    5  A    between atoms: C_14  and  N_16 
REMARK    6  A    between atoms: N_16  and  C_17 
REMARK    7  A    between atoms: C_17  and  C_18 
REMARK    8  A    between atoms: C_18  and  C_19 
REMARK    9  A    between atoms: C_24  and  O_27 
ROOT
HETATM    1  C   UNK N   1      29.504  17.389   4.962  0.00  0.00     0.171 C 
ENDROOT
BRANCH   1   2
HETATM    2  C   UNK N   1      29.657  17.515   6.470  0.00  0.00     0.010 A 
HETATM    3  C   UNK N   1      28.515  17.755   7.256  0.00  0.00     0.049 A 
HETATM    4  C   UNK N   1      28.607  17.863   8.644  0.00  0.00     0.068 A 
HETATM    5  C   UNK N   1      29.841  17.714   9.273  0.00  0.00     0.069 A 
HETATM    6  C   UNK N   1      30.985  17.456   8.516  0.00  0.00     0.071 A 
HETATM    7  N   UNK N   1      32.228  17.274   9.159  0.00  0.00    -0.323 N 
HETATM    8  C   UNK N   1      30.904  17.356   7.118  0.00  0.00     0.105 A 
HETATM    9  C   UNK N   1      33.343  16.995   8.444  0.00  0.00     0.246 A 
HETATM   10  H   UNK N   1      32.284  17.349  10.139  0.00  0.00     0.169 HD
HETATM   11  C   UNK N   1      33.290  16.888   6.940  0.00  0.00     0.278 A 
HETATM   12  O   UNK N   1      34.402  16.827   9.020  0.00  0.00    -0.271 OA
HETATM   13  O   UNK N   1      32.027  17.088   6.403  0.00  0.00    -0.339 OA
BRANCH   4  14
HETATM   14  O   UNK N   1      27.505  18.108   9.373  0.00  0.00    -0.361 OA
HETATM   15  H   UNK N   1      27.363  17.649  10.176  0.00  0.00     0.217 HD
ENDBRANCH   4  14
ENDBRANCH   1   2
BRANCH   1  16
HETATM   16  C   UNK N   1      28.209  17.991   4.446  0.00  0.00     0.151 C 
BRANCH  16  17
HETATM   17  N   UNK N   1      27.578  16.996   3.588  0.00  0.00    -0.410 N 
HETATM   18  H   UNK N   1      28.000  16.653   2.725  0.00  0.00     0.154 HD
BRANCH  17  19
HETATM   19  C   UNK N   1      26.282  16.540   4.083  0.00  0.00     0.022 C 
HETATM   20  C   UNK N   1      26.441  15.255   4.883  0.00  0.00     0.038 C 
HETATM   21  C   UNK N   1      25.450  16.223   2.846  0.00  0.00     0.038 C 
BRANCH  19  22
HETATM   22  C   UNK N   1      25.619  17.630   4.954  0.00  0.00     0.068 C 
BRANCH  22  23
HETATM   23  C   UNK N   1      24.680  18.522   4.205  0.00  0.00    -0.056 A 
HETATM   24  C   UNK N   1      25.143  19.656   3.524  0.00  0.00     0.010 A 
HETATM   25  C   UNK N   1      24.230  20.533   2.931  0.00  0.00     0.037 A 
HETATM   26  C   UNK N   1      22.855  20.286   3.016  0.00  0.00     0.068 A 
HETATM   27  C   UNK N   1      22.401  19.133   3.681  0.00  0.00     0.037 A 
HETATM   28  C   UNK N   1      23.311  18.261   4.274  0.00  0.00     0.010 A 
BRANCH  26  29
HETATM   29  O   UNK N   1      21.992  21.169   2.464  0.00  0.00    -0.356 OA
HETATM   30  C   UNK N   1      20.801  20.792   1.885  0.00  0.00     0.210 C 
ENDBRANCH  26  29
ENDBRANCH  22  23
ENDBRANCH  19  22
ENDBRANCH  17  19
ENDBRANCH  16  17
ENDBRANCH   1  16
BRANCH   1  31
HETATM   31  O   UNK N   1      30.578  17.927   4.254  0.00  0.00    -0.389 OA
HETATM   32  H   UNK N   1      30.991  17.484   3.496  0.00  0.00     0.210 HD
ENDBRANCH   1  31
TORSDOF 9
ENDMDL
MODEL 2
REMARK VINA RESULT:      -7.2      6.774      9.536
REMARK  9 active torsions:
REMARK  status: ('A' for Active; 'I' for Inactive)
REMARK    1  A    between atoms: C_8  and  O_12 
REMARK    2  A    between atoms: C_10  and  C_13 
REMARK    3  A    between atoms: C_13  and  C_14 
REMARK    4  A    between atoms: C_13  and  O_15 
REMARK    5  A    between atoms: C_14  and  N_16 
REMARK    6  A    between atoms: N_16  and  C_17 
REMARK    7  A    between atoms: C_17  and  C_18 
REMARK    8  A    between atoms: C_18  and  C_19 
REMARK    9  A    between atoms: C_24  and  O_27 
ROOT
HETATM    1  C   UNK N   1      34.634  15.449  10.779  0.00  0.00     0.171 C 
ENDROOT
BRANCH   1   2
HETATM    2  C   UNK N   1      35.824  14.513  10.921  0.00  0.00     0.010 A 
HETATM    3  C   UNK N   1      36.750  14.421   9.865  0.00  0.00     0.049 A 
HETATM    4  C   UNK N   1      37.865  13.586   9.958  0.00  0.00     0.068 A 
HETATM    5  C   UNK N   1      38.083  12.844  11.116  0.00  0.00     0.069 A 
HETATM    6  C   UNK N   1      37.189  12.934  12.184  0.00  0.00     0.071 A 
HETATM    7  N   UNK N   1      37.431  12.206  13.368  0.00  0.00    -0.323 N 
HETATM    8  C   UNK N   1      36.059  13.763  12.096  0.00  0.00     0.105 A 
HETATM    9  C   UNK N   1      36.590  12.302  14.424  0.00  0.00     0.246 A 
HETATM   10  H   UNK N   1      38.220  11.621  13.426  0.00  0.00     0.169 HD
HETATM   11  C   UNK N   1      35.364  13.179  14.359  0.00  0.00     0.278 A 
HETATM   12  O   UNK N   1      36.825  11.676  15.441  0.00  0.00    -0.271 OA
HETATM   13  O   UNK N   1      35.211  13.849  13.153  0.00  0.00    -0.339 OA
BRANCH   4  14
HETATM   14  O   UNK N   1      38.726  13.502   8.931  0.00  0.00    -0.361 OA
HETATM   15  H   UNK N   1      38.418  13.264   8.079  0.00  0.00     0.217 HD
ENDBRANCH   4  14
ENDBRANCH   1   2
BRANCH   1  16
HETATM   16  C   UNK N   1      34.446  15.959   9.362  0.00  0.00     0.151 C 
BRANCH  16  17
HETATM   17  N   UNK N   1      33.590  17.137   9.432  0.00  0.00    -0.410 N 
HETATM   18  H   UNK N   1      33.584  17.778  10.226  0.00  0.00     0.154 HD
BRANCH  17  19
HETATM   19  C   UNK N   1      32.739  17.307   8.258  0.00  0.00     0.022 C 
HETATM   20  C   UNK N   1      31.567  18.224   8.579  0.00  0.00     0.038 C 
HETATM   21  C   UNK N   1      32.179  15.925   7.942  0.00  0.00     0.038 C 
BRANCH  19  22
HETATM   22  C   UNK N   1      33.552  17.879   7.075  0.00  0.00     0.068 C 
BRANCH  22  23
HETATM   23  C   UNK N   1      33.498  17.041   5.838  0.00  0.00    -0.056 A 
HETATM   24  C   UNK N   1      34.296  15.897   5.699  0.00  0.00     0.010 A 
HETATM   25  C   UNK N   1      34.310  15.200   4.487  0.00  0.00     0.037 A 
HETATM   26  C   UNK N   1      33.533  15.641   3.409  0.00  0.00     0.068 A 
HETATM   27  C   UNK N   1      32.717  16.776   3.565  0.00  0.00     0.037 A 
HETATM   28  C   UNK N   1      32.706  17.472   4.772  0.00  0.00     0.010 A 
BRANCH  26  29
HETATM   29  O   UNK N   1      33.592  14.970   2.236  0.00  0.00    -0.356 OA
HETATM   30  C   UNK N   1      33.555  13.595   2.156  0.00  0.00     0.210 C 
ENDBRANCH  26  29
ENDBRANCH  22  23
ENDBRANCH  19  22
ENDBRANCH  17  19
ENDBRANCH  16  17
ENDBRANCH   1  16
BRANCH   1  31
HETATM   31  O   UNK N   1      33.438  14.890  11.231  0.00  0.00    -0.389 OA
HETATM   32  H   UNK N   1      33.047  15.098  12.094  0.00  0.00     0.210 HD
ENDBRANCH   1  31
TORSDOF 9
ENDMDL
MODEL 3
REMARK VINA RESULT:      -7.1      4.767      8.711
REMARK  9 active torsions:
REMARK  status: ('A' for Active; 'I' for Inactive)
REMARK    1  A    between atoms: C_8  and  O_12 
REMARK    2  A    between atoms: C_10  and  C_13 
REMARK    3  A    between atoms: C_13  and  C_14 
REMARK    4  A    between atoms: C_13  and  O_15 
REMARK    5  A    between atoms: C_14  and  N_16 
REMARK    6  A    between atoms: N_16  and  C_17 
REMARK    7  A    between atoms: C_17  and  C_18 
REMARK    8  A    between atoms: C_18  and  C_19 
REMARK    9  A    between atoms: C_24  and  O_27 
ROOT
HETATM    1  C   UNK N   1      34.847  15.463  11.288  0.00  0.00     0.171 C 
ENDROOT
BRANCH   1   2
HETATM    2  C   UNK N   1      35.891  14.365  11.429  0.00  0.00     0.010 A 
HETATM    3  C   UNK N   1      36.797  14.145  10.375  0.00  0.00     0.049 A 
HETATM    4  C   UNK N   1      37.780  13.158  10.467  0.00  0.00     0.068 A 
HETATM    5  C   UNK N   1      37.886  12.388  11.622  0.00  0.00     0.069 A 
HETATM    6  C   UNK N   1      37.011  12.602  12.688  0.00  0.00     0.071 A 
HETATM    7  N   UNK N   1      37.142  11.842  13.870  0.00  0.00    -0.323 N 
HETATM    8  C   UNK N   1      36.012  13.585  12.601  0.00  0.00     0.105 A 
HETATM    9  C   UNK N   1      36.320  12.054  14.924  0.00  0.00     0.246 A 
HETATM   10  H   UNK N   1      37.839  11.150  13.928  0.00  0.00     0.169 HD
HETATM   11  C   UNK N   1      35.233  13.098  14.860  0.00  0.00     0.278 A 
HETATM   12  O   UNK N   1      36.459  11.397  15.940  0.00  0.00    -0.271 OA
HETATM   13  O   UNK N   1      35.182  13.788  13.657  0.00  0.00    -0.339 OA
BRANCH   4  14
HETATM   14  O   UNK N   1      38.624  12.954   9.442  0.00  0.00    -0.361 OA
HETATM   15  H   UNK N   1      38.288  12.837   8.576  0.00  0.00     0.217 HD
ENDBRANCH   4  14
ENDBRANCH   1   2
BRANCH   1  16
HETATM   16  C   UNK N   1      35.077  16.347  10.075  0.00  0.00     0.151 C 
BRANCH  16  17
HETATM   17  N   UNK N   1      33.784  16.892   9.682  0.00  0.00    -0.410 N 
HETATM   18  H   UNK N   1      33.155  17.366  10.331  0.00  0.00     0.154 HD
BRANCH  17  19
HETATM   19  C   UNK N   1      33.474  16.691   8.269  0.00  0.00     0.022 C 
HETATM   20  C   UNK N   1      34.538  15.822   7.610  0.00  0.00     0.038 C 
HETATM   21  C   UNK N   1      33.533  18.071   7.627  0.00  0.00     0.038 C 
BRANCH  19  22
HETATM   22  C   UNK N   1      32.081  16.042   8.104  0.00  0.00     0.068 C 
BRANCH  22  23
HETATM   23  C   UNK N   1      30.964  17.025   7.967  0.00  0.00    -0.056 A 
HETATM   24  C   UNK N   1      30.540  17.802   9.054  0.00  0.00     0.010 A 
HETATM   25  C   UNK N   1      29.419  18.627   8.926  0.00  0.00     0.037 A 
HETATM   26  C   UNK N   1      28.715  18.681   7.718  0.00  0.00     0.068 A 
HETATM   27  C   UNK N   1      29.161  17.917   6.624  0.00  0.00     0.037 A 
HETATM   28  C   UNK N   1      30.276  17.092   6.753  0.00  0.00     0.010 A 
BRANCH  26  29
HETATM   29  O   UNK N   1      27.613  19.461   7.632  0.00  0.00    -0.356 OA
HETATM   30  C   UNK N   1      27.348  20.268   6.548  0.00  0.00     0.210 C 
ENDBRANCH  26  29
ENDBRANCH  22  23
ENDBRANCH  19  22
ENDBRANCH  17  19
ENDBRANCH  16  17
ENDBRANCH   1  16
BRANCH   1  31
HETATM   31  O   UNK N   1      33.539  14.978  11.265  0.00  0.00    -0.389 OA
HETATM   32  H   UNK N   1      32.888  15.237  10.594  0.00  0.00     0.210 HD
ENDBRANCH   1  31
TORSDOF 9
ENDMDL
MODEL 4
REMARK VINA RESULT:      -7.1      6.461     13.041
REMARK  9 active torsions:
REMARK  status: ('A' for Active; 'I' for Inactive)
REMARK    1  A    between atoms: C_8  and  O_12 
REMARK    2  A    between atoms: C_10  and  C_13 
REMARK    3  A    between atoms: C_13  and  C_14 
REMARK    4  A    between atoms: C_13  and  O_15 
REMARK    5  A    between atoms: C_14  and  N_16 
REMARK    6  A    between atoms: N_16  and  C_17 
REMARK    7  A    between atoms: C_17  and  C_18 
REMARK    8  A    between atoms: C_18  and  C_19 
REMARK    9  A    between atoms: C_24  and  O_27 
ROOT
HETATM    1  C   UNK N   1      34.046  14.816  10.129  0.00  0.00     0.171 C 
ENDROOT
BRANCH   1   2
HETATM    2  C   UNK N   1      33.963  15.918   9.083  0.00  0.00     0.010 A 
HETATM    3  C   UNK N   1      34.683  17.109   9.286  0.00  0.00     0.049 A 
HETATM    4  C   UNK N   1      34.647  18.140   8.346  0.00  0.00     0.068 A 
HETATM    5  C   UNK N   1      33.906  17.990   7.177  0.00  0.00     0.069 A 
HETATM    6  C   UNK N   1      33.199  16.808   6.944  0.00  0.00     0.071 A 
HETATM    7  N   UNK N   1      32.476  16.646   5.744  0.00  0.00    -0.323 N 
HETATM    8  C   UNK N   1      33.221  15.770   7.889  0.00  0.00     0.105 A 
HETATM    9  C   UNK N   1      31.807  15.497   5.488  0.00  0.00     0.246 A 
HETATM   10  H   UNK N   1      32.457  17.377   5.084  0.00  0.00     0.169 HD
HETATM   11  C   UNK N   1      31.806  14.366   6.485  0.00  0.00     0.278 A 
HETATM   12  O   UNK N   1      31.201  15.373   4.439  0.00  0.00    -0.271 OA
HETATM   13  O   UNK N   1      32.539  14.623   7.634  0.00  0.00    -0.339 OA
BRANCH   4  14
HETATM   14  O   UNK N   1      35.329  19.275   8.569  0.00  0.00    -0.361 OA
HETATM   15  H   UNK N   1      35.189  20.022   8.022  0.00  0.00     0.217 HD
ENDBRANCH   4  14
ENDBRANCH   1   2
BRANCH   1  16
HETATM   16  C   UNK N   1      35.443  14.642  10.696  0.00  0.00     0.151 C 
BRANCH  16  17
HETATM   17  N   UNK N   1      35.326  14.635  12.149  0.00  0.00    -0.410 N 
HETATM   18  H   UNK N   1      34.846  15.366  12.676  0.00  0.00     0.154 HD
BRANCH  17  19
HETATM   19  C   UNK N   1      35.964  13.481  12.777  0.00  0.00     0.022 C 
HETATM   20  C   UNK N   1      37.074  12.937  11.887  0.00  0.00     0.038 C 
HETATM   21  C   UNK N   1      34.884  12.413  12.884  0.00  0.00     0.038 C 
BRANCH  19  22
HETATM   22  C   UNK N   1      36.532  13.861  14.163  0.00  0.00     0.068 C 
BRANCH  22  23
HETATM   23  C   UNK N   1      36.143  12.923  15.259  0.00  0.00    -0.056 A 
HETATM   24  C   UNK N   1      35.276  13.322  16.286  0.00  0.00     0.010 A 
HETATM   25  C   UNK N   1      35.023  12.462  17.358  0.00  0.00     0.037 A 
HETATM   26  C   UNK N   1      35.632  11.203  17.414  0.00  0.00     0.068 A 
HETATM   27  C   UNK N   1      36.482  10.801  16.368  0.00  0.00     0.037 A 
HETATM   28  C   UNK N   1      36.737  11.660  15.301  0.00  0.00     0.010 A 
BRANCH  26  29
HETATM   29  O   UNK N   1      35.397  10.405  18.480  0.00  0.00    -0.356 OA
HETATM   30  C   UNK N   1      34.475   9.382  18.463  0.00  0.00     0.210 C 
ENDBRANCH  26  29
ENDBRANCH  22  23
ENDBRANCH  19  22
ENDBRANCH  17  19
ENDBRANCH  16  17
ENDBRANCH   1  16
BRANCH   1  31
HETATM   31  O   UNK N   1      33.140  14.984  11.176  0.00  0.00    -0.389 OA
HETATM   32  H   UNK N   1      32.933  14.285  11.817  0.00  0.00     0.210 HD
ENDBRANCH   1  31
TORSDOF 9
ENDMDL
MODEL 5
REMARK VINA RESULT:      -7.0      1.700      2.663
REMARK  9 active torsions:
REMARK  status: ('A' for Active; 'I' for Inactive)
REMARK    1  A    between atoms: C_8  and  O_12 
REMARK    2  A    between atoms: C_10  and  C_13 
REMARK    3  A    between atoms: C_13  and  C_14 
REMARK    4  A    between atoms: C_13  and  O_15 
REMARK    5  A    between atoms: C_14  and  N_16 
REMARK    6  A    between atoms: N_16  and  C_17 
REMARK    7  A    between atoms: C_17  and  C_18 
REMARK    8  A    between atoms: C_18  and  C_19 
REMARK    9  A    between atoms: C_24  and  O_27 
ROOT
HETATM    1  C   UNK N   1      29.410  17.260   4.995  0.00  0.00     0.171 C 
ENDROOT
BRANCH   1   2
HETATM    2  C   UNK N   1      29.561  17.504   6.489  0.00  0.00     0.010 A 
HETATM    3  C   UNK N   1      28.404  17.638   7.280  0.00  0.00     0.049 A 
HETATM    4  C   UNK N   1      28.496  17.848   8.656  0.00  0.00     0.068 A 
HETATM    5  C   UNK N   1      29.745  17.908   9.270  0.00  0.00     0.069 A 
HETATM    6  C   UNK N   1      30.905  17.758   8.508  0.00  0.00     0.071 A 
HETATM    7  N   UNK N   1      32.168  17.786   9.137  0.00  0.00    -0.323 N 
HETATM    8  C   UNK N   1      30.824  17.556   7.121  0.00  0.00     0.105 A 
HETATM    9  C   UNK N   1      33.303  17.615   8.420  0.00  0.00     0.246 A 
HETATM   10  H   UNK N   1      32.224  17.933  10.109  0.00  0.00     0.169 HD
HETATM   11  C   UNK N   1      33.249  17.403   6.928  0.00  0.00     0.278 A 
HETATM   12  O   UNK N   1      34.382  17.630   8.985  0.00  0.00    -0.271 OA
HETATM   13  O   UNK N   1      31.965  17.396   6.403  0.00  0.00    -0.339 OA
BRANCH   4  14
HETATM   14  O   UNK N   1      27.379  17.989   9.389  0.00  0.00    -0.361 OA
HETATM   15  H   UNK N   1      26.695  18.558   9.095  0.00  0.00     0.217 HD
ENDBRANCH   4  14
ENDBRANCH   1   2
BRANCH   1  16
HETATM   16  C   UNK N   1      27.986  17.452   4.504  0.00  0.00     0.151 C 
BRANCH  16  17
HETATM   17  N   UNK N   1      27.868  18.828   4.039  0.00  0.00    -0.410 N 
HETATM   18  H   UNK N   1      28.671  19.406   3.790  0.00  0.00     0.154 HD
BRANCH  17  19
HETATM   19  C   UNK N   1      26.487  19.300   3.967  0.00  0.00     0.022 C 
HETATM   20  C   UNK N   1      26.394  20.536   3.083  0.00  0.00     0.038 C 
HETATM   21  C   UNK N   1      26.110  19.709   5.385  0.00  0.00     0.038 C 
BRANCH  19  22
HETATM   22  C   UNK N   1      25.560  18.188   3.426  0.00  0.00     0.068 C 
BRANCH  22  23
HETATM   23  C   UNK N   1      24.320  17.983   4.235  0.00  0.00    -0.056 A 
HETATM   24  C   UNK N   1      24.221  16.938   5.163  0.00  0.00     0.010 A 
HETATM   25  C   UNK N   1      23.010  16.700   5.819  0.00  0.00     0.037 A 
HETATM   26  C   UNK N   1      21.893  17.500   5.552  0.00  0.00     0.068 A 
HETATM   27  C   UNK N   1      22.007  18.562   4.637  0.00  0.00     0.037 A 
HETATM   28  C   UNK N   1      23.213  18.796   3.981  0.00  0.00     0.010 A 
BRANCH  26  29
HETATM   29  O   UNK N   1      20.723  17.227   6.174  0.00  0.00    -0.356 OA
HETATM   30  C   UNK N   1      20.628  16.374   7.251  0.00  0.00     0.210 C 
ENDBRANCH  26  29
ENDBRANCH  22  23
ENDBRANCH  19  22
ENDBRANCH  17  19
ENDBRANCH  16  17
ENDBRANCH   1  16
BRANCH   1  31
HETATM   31  O   UNK N   1      30.274  18.036   4.222  0.00  0.00    -0.389 OA
HETATM   32  H   UNK N   1      30.326  19.002   4.290  0.00  0.00     0.210 HD
ENDBRANCH   1  31
TORSDOF 9
ENDMDL
MODEL 6
REMARK VINA RESULT:      -7.0      6.549     10.471
REMARK  9 active torsions:
REMARK  status: ('A' for Active; 'I' for Inactive)
REMARK    1  A    between atoms: C_8  and  O_12 
REMARK    2  A    between atoms: C_10  and  C_13 
REMARK    3  A    between atoms: C_13  and  C_14 
REMARK    4  A    between atoms: C_13  and  O_15 
REMARK    5  A    between atoms: C_14  and  N_16 
REMARK    6  A    between atoms: N_16  and  C_17 
REMARK    7  A    between atoms: C_17  and  C_18 
REMARK    8  A    between atoms: C_18  and  C_19 
REMARK    9  A    between atoms: C_24  and  O_27 
ROOT
HETATM    1  C   UNK N   1      22.982  17.117   4.657  0.00  0.00     0.171 C 
ENDROOT
BRANCH   1   2
HETATM    2  C   UNK N   1      21.944  17.830   3.802  0.00  0.00     0.010 A 
HETATM    3  C   UNK N   1      21.801  19.224   3.923  0.00  0.00     0.049 A 
HETATM    4  C   UNK N   1      20.872  19.921   3.149  0.00  0.00     0.068 A 
HETATM    5  C   UNK N   1      20.084  19.238   2.226  0.00  0.00     0.069 A 
HETATM    6  C   UNK N   1      20.222  17.857   2.075  0.00  0.00     0.071 A 
HETATM    7  N   UNK N   1      19.445  17.172   1.117  0.00  0.00    -0.323 N 
HETATM    8  C   UNK N   1      21.147  17.145   2.857  0.00  0.00     0.105 A 
HETATM    9  C   UNK N   1      19.585  15.838   0.937  0.00  0.00     0.246 A 
HETATM   10  H   UNK N   1      18.793  17.671   0.573  0.00  0.00     0.169 HD
HETATM   11  C   UNK N   1      20.564  15.045   1.765  0.00  0.00     0.278 A 
HETATM   12  O   UNK N   1      18.914  15.269   0.095  0.00  0.00    -0.271 OA
HETATM   13  O   UNK N   1      21.276  15.805   2.682  0.00  0.00    -0.339 OA
BRANCH   4  14
HETATM   14  O   UNK N   1      20.742  21.250   3.293  0.00  0.00    -0.361 OA
HETATM   15  H   UNK N   1      20.938  21.820   2.576  0.00  0.00     0.217 HD
ENDBRANCH   4  14
ENDBRANCH   1   2
BRANCH   1  16
HETATM   16  C   UNK N   1      22.405  16.549   5.940  0.00  0.00     0.151 C 
BRANCH  16  17
HETATM   17  N   UNK N   1      21.907  15.213   5.641  0.00  0.00    -0.410 N 
HETATM   18  H   UNK N   1      22.329  14.602   4.940  0.00  0.00     0.154 HD
BRANCH  17  19
HETATM   19  C   UNK N   1      20.744  14.834   6.438  0.00  0.00     0.022 C 
HETATM   20  C   UNK N   1      20.531  13.327   6.385  0.00  0.00     0.038 C 
HETATM   21  C   UNK N   1      19.546  15.500   5.773  0.00  0.00     0.038 C 
BRANCH  19  22
HETATM   22  C   UNK N   1      20.915  15.295   7.903  0.00  0.00     0.068 C 
BRANCH  22  23
HETATM   23  C   UNK N   1      21.474  14.246   8.810  0.00  0.00    -0.056 A 
HETATM   24  C   UNK N   1      20.687  13.652   9.807  0.00  0.00     0.010 A 
HETATM   25  C   UNK N   1      21.268  12.761  10.713  0.00  0.00     0.037 A 
HETATM   26  C   UNK N   1      22.632  12.460  10.633  0.00  0.00     0.068 A 
HETATM   27  C   UNK N   1      23.409  13.042   9.616  0.00  0.00     0.037 A 
HETATM   28  C   UNK N   1      22.831  13.933   8.714  0.00  0.00     0.010 A 
BRANCH  26  29
HETATM   29  O   UNK N   1      23.176  11.621  11.545  0.00  0.00    -0.356 OA
HETATM   30  C   UNK N   1      23.145  11.864  12.900  0.00  0.00     0.210 C 
ENDBRANCH  26  29
ENDBRANCH  22  23
ENDBRANCH  19  22
ENDBRANCH  17  19
ENDBRANCH  16  17
ENDBRANCH   1  16
BRANCH   1  31
HETATM   31  O   UNK N   1      23.661  16.110   3.970  0.00  0.00    -0.389 OA
HETATM   32  H   UNK N   1      24.600  16.169   3.731  0.00  0.00     0.210 HD
ENDBRANCH   1  31
TORSDOF 9
ENDMDL
MODEL 7
REMARK VINA RESULT:      -6.9     10.903     13.450
REMARK  9 active torsions:
REMARK  status: ('A' for Active; 'I' for Inactive)
REMARK    1  A    between atoms: C_8  and  O_12 
REMARK    2  A    between atoms: C_10  and  C_13 
REMARK    3  A    between atoms: C_13  and  C_14 
REMARK    4  A    between atoms: C_13  and  O_15 
REMARK    5  A    between atoms: C_14  and  N_16 
REMARK    6  A    between atoms: N_16  and  C_17 
REMARK    7  A    between atoms: C_17  and  C_18 
REMARK    8  A    between atoms: C_18  and  C_19 
REMARK    9  A    between atoms: C_24  and  O_27 
ROOT
HETATM    1  C   UNK N   1      29.070  25.600  -5.319  0.00  0.00     0.171 C 
ENDROOT
BRANCH   1   2
HETATM    2  C   UNK N   1      29.517  24.292  -4.685  0.00  0.00     0.010 A 
HETATM    3  C   UNK N   1      29.754  24.252  -3.298  0.00  0.00     0.049 A 
HETATM    4  C   UNK N   1      30.152  23.070  -2.672  0.00  0.00     0.068 A 
HETATM    5  C   UNK N   1      30.301  21.903  -3.417  0.00  0.00     0.069 A 
HETATM    6  C   UNK N   1      30.053  21.915  -4.791  0.00  0.00     0.071 A 
HETATM    7  N   UNK N   1      30.173  20.724  -5.538  0.00  0.00    -0.323 N 
HETATM    8  C   UNK N   1      29.662  23.102  -5.433  0.00  0.00     0.105 A 
HETATM    9  C   UNK N   1      29.910  20.710  -6.866  0.00  0.00     0.246 A 
HETATM   10  H   UNK N   1      30.452  19.894  -5.089  0.00  0.00     0.169 HD
HETATM   11  C   UNK N   1      29.494  21.969  -7.585  0.00  0.00     0.278 A 
HETATM   12  O   UNK N   1      30.006  19.668  -7.489  0.00  0.00    -0.271 OA
HETATM   13  O   UNK N   1      29.410  23.086  -6.767  0.00  0.00    -0.339 OA
BRANCH   4  14
HETATM   14  O   UNK N   1      30.388  23.058  -1.350  0.00  0.00    -0.361 OA
HETATM   15  H   UNK N   1      30.855  23.765  -0.951  0.00  0.00     0.217 HD
ENDBRANCH   4  14
ENDBRANCH   1   2
BRANCH   1  16
HETATM   16  C   UNK N   1      28.567  26.610  -4.304  0.00  0.00     0.151 C 
BRANCH  16  17
HETATM   17  N   UNK N   1      27.642  27.500  -4.995  0.00  0.00    -0.410 N 
HETATM   18  H   UNK N   1      27.869  27.975  -5.869  0.00  0.00     0.154 HD
BRANCH  17  19
HETATM   19  C   UNK N   1      26.359  27.647  -4.313  0.00  0.00     0.022 C 
HETATM   20  C   UNK N   1      26.128  29.100  -3.924  0.00  0.00     0.038 C 
HETATM   21  C   UNK N   1      26.470  26.830  -3.032  0.00  0.00     0.038 C 
BRANCH  19  22
HETATM   22  C   UNK N   1      25.205  27.147  -5.211  0.00  0.00     0.068 C 
BRANCH  22  23
HETATM   23  C   UNK N   1      25.542  25.933  -6.016  0.00  0.00    -0.056 A 
HETATM   24  C   UNK N   1      25.754  26.013  -7.399  0.00  0.00     0.010 A 
HETATM   25  C   UNK N   1      25.953  24.845  -8.142  0.00  0.00     0.037 A 
HETATM   26  C   UNK N   1      25.938  23.595  -7.512  0.00  0.00     0.068 A 
HETATM   27  C   UNK N   1      25.749  23.526  -6.121  0.00  0.00     0.037 A 
HETATM   28  C   UNK N   1      25.548  24.690  -5.381  0.00  0.00     0.010 A 
BRANCH  26  29
HETATM   29  O   UNK N   1      26.097  22.479  -8.260  0.00  0.00    -0.356 OA
HETATM   30  C   UNK N   1      25.279  21.378  -8.147  0.00  0.00     0.210 C 
ENDBRANCH  26  29
ENDBRANCH  22  23
ENDBRANCH  19  22
ENDBRANCH  17  19
ENDBRANCH  16  17
ENDBRANCH   1  16
BRANCH   1  31
HETATM   31  O   UNK N   1      30.055  26.192  -6.111  0.00  0.00    -0.389 OA
HETATM   32  H   UNK N   1      30.975  26.298  -5.824  0.00  0.00     0.210 HD
ENDBRANCH   1  31
TORSDOF 9
ENDMDL
MODEL 8
REMARK VINA RESULT:      -6.9      7.758     14.089
REMARK  9 active torsions:
REMARK  status: ('A' for Active; 'I' for Inactive)
REMARK    1  A    between atoms: C_8  and  O_12 
REMARK    2  A    between atoms: C_10  and  C_13 
REMARK    3  A    between atoms: C_13  and  C_14 
REMARK    4  A    between atoms: C_13  and  O_15 
REMARK    5  A    between atoms: C_14  and  N_16 
REMARK    6  A    between atoms: N_16  and  C_17 
REMARK    7  A    between atoms: C_17  and  C_18 
REMARK    8  A    between atoms: C_18  and  C_19 
REMARK    9  A    between atoms: C_24  and  O_27 
ROOT
HETATM    1  C   UNK N   1      35.940  15.256  11.235  0.00  0.00     0.171 C 
ENDROOT
BRANCH   1   2
HETATM    2  C   UNK N   1      35.244  14.744   9.983  0.00  0.00     0.010 A 
HETATM    3  C   UNK N   1      34.975  13.367   9.866  0.00  0.00     0.049 A 
HETATM    4  C   UNK N   1      34.325  12.856   8.742  0.00  0.00     0.068 A 
HETATM    5  C   UNK N   1      33.916  13.713   7.724  0.00  0.00     0.069 A 
HETATM    6  C   UNK N   1      34.154  15.085   7.828  0.00  0.00     0.071 A 
HETATM    7  N   UNK N   1      33.710  15.955   6.810  0.00  0.00    -0.323 N 
HETATM    8  C   UNK N   1      34.817  15.608   8.950  0.00  0.00     0.105 A 
HETATM    9  C   UNK N   1      33.907  17.291   6.906  0.00  0.00     0.246 A 
HETATM   10  H   UNK N   1      33.250  15.587   6.022  0.00  0.00     0.169 HD
HETATM   11  C   UNK N   1      34.621  17.883   8.096  0.00  0.00     0.278 A 
HETATM   12  O   UNK N   1      33.503  18.026   6.023  0.00  0.00    -0.271 OA
HETATM   13  O   UNK N   1      35.024  16.948   9.037  0.00  0.00    -0.339 OA
BRANCH   4  14
HETATM   14  O   UNK N   1      34.093  11.536   8.645  0.00  0.00    -0.361 OA
HETATM   15  H   UNK N   1      33.250  11.191   8.862  0.00  0.00     0.217 HD
ENDBRANCH   4  14
ENDBRANCH   1   2
BRANCH   1  16
HETATM   16  C   UNK N   1      36.367  14.142  12.174  0.00  0.00     0.151 C 
BRANCH  16  17
HETATM   17  N   UNK N   1      35.611  14.299  13.409  0.00  0.00    -0.410 N 
HETATM   18  H   UNK N   1      34.831  14.950  13.509  0.00  0.00     0.154 HD
BRANCH  17  19
HETATM   19  C   UNK N   1      36.078  13.437  14.491  0.00  0.00     0.022 C 
HETATM   20  C   UNK N   1      37.024  14.200  15.408  0.00  0.00     0.038 C 
HETATM   21  C   UNK N   1      36.873  12.321  13.823  0.00  0.00     0.038 C 
BRANCH  19  22
HETATM   22  C   UNK N   1      34.885  12.883  15.300  0.00  0.00     0.068 C 
BRANCH  22  23
HETATM   23  C   UNK N   1      35.252  12.379  16.659  0.00  0.00    -0.056 A 
HETATM   24  C   UNK N   1      35.738  11.078  16.846  0.00  0.00     0.010 A 
HETATM   25  C   UNK N   1      35.962  10.597  18.139  0.00  0.00     0.037 A 
HETATM   26  C   UNK N   1      35.702  11.407  19.250  0.00  0.00     0.068 A 
HETATM   27  C   UNK N   1      35.237  12.720  19.053  0.00  0.00     0.037 A 
HETATM   28  C   UNK N   1      35.010  13.198  17.764  0.00  0.00     0.010 A 
BRANCH  26  29
HETATM   29  O   UNK N   1      35.894  10.905  20.491  0.00  0.00    -0.356 OA
HETATM   30  C   UNK N   1      36.317   9.615  20.721  0.00  0.00     0.210 C 
ENDBRANCH  26  29
ENDBRANCH  22  23
ENDBRANCH  19  22
ENDBRANCH  17  19
ENDBRANCH  16  17
ENDBRANCH   1  16
BRANCH   1  31
HETATM   31  O   UNK N   1      37.037  16.073  10.958  0.00  0.00    -0.389 OA
HETATM   32  H   UNK N   1      36.978  16.877  10.418  0.00  0.00     0.210 HD
ENDBRANCH   1  31
TORSDOF 9
ENDMDL
MODEL 9
REMARK VINA RESULT:      -6.7     10.678     12.208
REMARK  9 active torsions:
REMARK  status: ('A' for Active; 'I' for Inactive)
REMARK    1  A    between atoms: C_8  and  O_12 
REMARK    2  A    between atoms: C_10  and  C_13 
REMARK    3  A    between atoms: C_13  and  C_14 
REMARK    4  A    between atoms: C_13  and  O_15 
REMARK    5  A    between atoms: C_14  and  N_16 
REMARK    6  A    between atoms: N_16  and  C_17 
REMARK    7  A    between atoms: C_17  and  C_18 
REMARK    8  A    between atoms: C_18  and  C_19 
REMARK    9  A    between atoms: C_24  and  O_27 
ROOT
HETATM    1  C   UNK N   1      29.708  20.970  -6.016  0.00  0.00     0.171 C 
ENDROOT
BRANCH   1   2
HETATM    2  C   UNK N   1      30.660  21.229  -4.858  0.00  0.00     0.010 A 
HETATM    3  C   UNK N   1      30.210  21.985  -3.759  0.00  0.00     0.049 A 
HETATM    4  C   UNK N   1      31.044  22.235  -2.669  0.00  0.00     0.068 A 
HETATM    5  C   UNK N   1      32.336  21.717  -2.648  0.00  0.00     0.069 A 
HETATM    6  C   UNK N   1      32.798  20.947  -3.718  0.00  0.00     0.071 A 
HETATM    7  N   UNK N   1      34.097  20.397  -3.679  0.00  0.00    -0.323 N 
HETATM    8  C   UNK N   1      31.970  20.699  -4.824  0.00  0.00     0.105 A 
HETATM    9  C   UNK N   1      34.552  19.625  -4.694  0.00  0.00     0.246 A 
HETATM   10  H   UNK N   1      34.678  20.575  -2.905  0.00  0.00     0.169 HD
HETATM   11  C   UNK N   1      33.689  19.345  -5.899  0.00  0.00     0.278 A 
HETATM   12  O   UNK N   1      35.671  19.148  -4.634  0.00  0.00    -0.271 OA
HETATM   13  O   UNK N   1      32.434  19.934  -5.846  0.00  0.00    -0.339 OA
BRANCH   4  14
HETATM   14  O   UNK N   1      30.598  22.973  -1.639  0.00  0.00    -0.361 OA
HETATM   15  H   UNK N   1      30.375  23.873  -1.770  0.00  0.00     0.217 HD
ENDBRANCH   4  14
ENDBRANCH   1   2
BRANCH   1  16
HETATM   16  C   UNK N   1      29.356  22.229  -6.786  0.00  0.00     0.151 C 
BRANCH  16  17
HETATM   17  N   UNK N   1      28.251  22.873  -6.087  0.00  0.00    -0.410 N 
HETATM   18  H   UNK N   1      28.257  23.063  -5.084  0.00  0.00     0.154 HD
BRANCH  17  19
HETATM   19  C   UNK N   1      27.133  23.218  -6.961  0.00  0.00     0.022 C 
HETATM   20  C   UNK N   1      26.841  22.076  -7.925  0.00  0.00     0.038 C 
HETATM   21  C   UNK N   1      27.595  24.416  -7.779  0.00  0.00     0.038 C 
BRANCH  19  22
HETATM   22  C   UNK N   1      25.873  23.546  -6.128  0.00  0.00     0.068 C 
BRANCH  22  23
HETATM   23  C   UNK N   1      25.957  24.836  -5.378  0.00  0.00    -0.056 A 
HETATM   24  C   UNK N   1      26.564  24.906  -4.116  0.00  0.00     0.010 A 
HETATM   25  C   UNK N   1      26.525  26.099  -3.390  0.00  0.00     0.037 A 
HETATM   26  C   UNK N   1      25.881  27.226  -3.914  0.00  0.00     0.068 A 
HETATM   27  C   UNK N   1      25.296  27.154  -5.191  0.00  0.00     0.037 A 
HETATM   28  C   UNK N   1      25.332  25.963  -5.914  0.00  0.00     0.010 A 
BRANCH  26  29
HETATM   29  O   UNK N   1      25.827  28.358  -3.175  0.00  0.00    -0.356 OA
HETATM   30  C   UNK N   1      26.282  29.574  -3.632  0.00  0.00     0.210 C 
ENDBRANCH  26  29
ENDBRANCH  22  23
ENDBRANCH  19  22
ENDBRANCH  17  19
ENDBRANCH  16  17
ENDBRANCH   1  16
BRANCH   1  31
HETATM   31  O   UNK N   1      30.175  20.000  -6.904  0.00  0.00    -0.389 OA
HETATM   32  H   UNK N   1      30.303  20.165  -7.851  0.00  0.00     0.210 HD
ENDBRANCH   1  31
TORSDOF 9
ENDMDL
