REMARK  20 active torsions:
REMARK  status: ('A' for Active; 'I' for Inactive)
REMARK    1  A    between atoms: C_6  and  C_5 
REMARK    2  A    between atoms: C_7  and  C_6 
REMARK    3  A    between atoms: C_8  and  C_7 
REMARK    4  A    between atoms: C_9  and  C_8 
REMARK    5  A    between atoms: C_10  and  C_9 
REMARK    6  A    between atoms: C_11  and  C_10 
REMARK    7  A    between atoms: C_12  and  C_11 
REMARK    8  A    between atoms: C_13  and  C_12 
REMARK    9  A    between atoms: C_14  and  C_13 
REMARK   10  A    between atoms: C_15  and  C_14 
REMARK   11  A    between atoms: C_16  and  C_15 
REMARK   12  A    between atoms: C_17  and  C_16 
REMARK   13  A    between atoms: C_18  and  C_17 
REMARK   14  A    between atoms: C_20  and  C_18 
REMARK   15  A    between atoms: C_21  and  C_19 
REMARK   16  A    between atoms: N_22  and  C_19 
REMARK   17  A    between atoms: O_25  and  C_20 
REMARK   18  A    between atoms: O_26  and  C_21 
REMARK   19  A    between atoms: P_27  and  O_25 
REMARK   20  A    between atoms: P_27  and  O_26 
ROOT
HETATM    1  C   UNK N   1      15.714  -3.450  -1.162  0.00  0.00     0.002 C 
ENDROOT
BRANCH   1   2
HETATM    2  C   UNK N   1      14.540  -4.394  -1.405  0.00  0.00     0.000 C 
BRANCH   2   3
HETATM    3  C   UNK N   1      14.536  -5.619  -0.495  0.00  0.00     0.000 C 
BRANCH   3   4
HETATM    4  C   UNK N   1      13.710  -5.360   0.761  0.00  0.00     0.000 C 
BRANCH   4   5
HETATM    5  C   UNK N   1      12.216  -5.427   0.474  0.00  0.00     0.000 C 
BRANCH   5   6
HETATM    6  C   UNK N   1      11.756  -4.210  -0.315  0.00  0.00     0.000 C 
BRANCH   6   7
HETATM    7  C   UNK N   1      10.269  -4.295  -0.579  0.00  0.00     0.000 C 
BRANCH   7   8
HETATM    8  C   UNK N   1       9.519  -3.818   0.648  0.00  0.00     0.000 C 
BRANCH   8   9
HETATM    9  C   UNK N   1       8.276  -4.656   0.861  0.00  0.00     0.000 C 
BRANCH   9  10
HETATM   10  C   UNK N   1       7.185  -4.250  -0.107  0.00  0.00     0.000 C 
BRANCH  10  11
HETATM   11  C   UNK N   1       5.907  -4.954   0.286  0.00  0.00     0.000 C 
BRANCH  11  12
HETATM   12  C   UNK N   1       4.734  -4.268  -0.375  0.00  0.00    -0.000 C 
BRANCH  12  13
HETATM   13  C   UNK N   1       3.453  -4.744   0.273  0.00  0.00    -0.005 C 
HETATM   14  C   UNK N   1       2.294  -3.915  -0.237  0.00  0.00     0.005 C 
ENDBRANCH  12  13
ENDBRANCH  11  12
ENDBRANCH  10  11
ENDBRANCH   9  10
ENDBRANCH   8   9
ENDBRANCH   7   8
ENDBRANCH   6   7
ENDBRANCH   5   6
ENDBRANCH   4   5
ENDBRANCH   3   4
ENDBRANCH   2   3
ENDBRANCH   1   2
BRANCH   1  15
HETATM   15  C   UNK N   1      15.872  -3.048   0.298  0.00  0.00     0.027 C 
BRANCH  15  16
HETATM   16  C   UNK N   1      16.964  -3.883   0.953  0.00  0.00     0.181 C 
BRANCH  16  17
HETATM   17  O   UNK N   1      18.206  -3.553   0.403  0.00  0.00    -0.290 OA
BRANCH  17  18
HETATM   18  P   UNK N   1      18.788  -4.966  -0.448  0.00  0.00     0.408 P 
HETATM   19  O   UNK N   1      17.584  -5.776  -1.001  0.00  0.00    -0.624 OA
HETATM   20  O   UNK N   1      19.720  -4.507  -1.839  0.00  0.00    -0.624 OA
BRANCH  18  21
HETATM   21  O   UNK N   1      19.688  -6.038   0.586  0.00  0.00    -0.288 OA
BRANCH  21  22
HETATM   22  C   UNK N   1      20.829  -5.320   0.942  0.00  0.00     0.209 C 
BRANCH  22  23
HETATM   23  C   UNK N   1      21.985  -5.690   0.010  0.00  0.00     0.262 C 
BRANCH  23  24
HETATM   24  N   UNK N   1      23.069  -4.711   0.028  0.00  0.00    -0.077 N 
HETATM   25  C   UNK N   1      23.686  -4.637   1.345  0.00  0.00     0.271 C 
HETATM   26  C   UNK N   1      24.078  -5.130  -0.926  0.00  0.00     0.271 C 
HETATM   27  C   UNK N   1      22.596  -3.389  -0.364  0.00  0.00     0.271 C 
ENDBRANCH  23  24
ENDBRANCH  22  23
ENDBRANCH  21  22
ENDBRANCH  18  21
ENDBRANCH  17  18
ENDBRANCH  16  17
ENDBRANCH  15  16
ENDBRANCH   1  15
TORSDOF 20
