REMARK  10 active torsions:
REMARK  status: ('A' for Active; 'I' for Inactive)
REMARK    1  A    between atoms: O_2  and  C_17 
REMARK    2  A    between atoms: O_2  and  C_18 
REMARK    3  A    between atoms: O_4  and  C_28 
REMARK    4  A    between atoms: O_5  and  C_30 
REMARK    5  A    between atoms: N_6  and  C_19 
REMARK    6  A    between atoms: N_6  and  C_22 
REMARK    7  A    between atoms: C_11  and  C_16 
REMARK    8  A    between atoms: C_16  and  C_17 
REMARK    9  A    between atoms: C_18  and  C_19 
REMARK   10  A    between atoms: C_22  and  C_25 
ROOT
HETATM    1  O   UNK N   1       1.178  -1.608  -0.159  0.00  0.00    -0.388 OA
HETATM    2  N   UNK N   1       3.739  -1.007  -0.301  0.00  0.00    -0.057 N 
HETATM    3  C   UNK N   1       2.835  -0.026  -0.935  0.00  0.00     0.264 C 
HETATM    4  C   UNK N   1       3.271  -1.378   1.049  0.00  0.00     0.264 C 
HETATM    5  C   UNK N   1       1.347  -0.310  -0.661  0.00  0.00     0.195 C 
HETATM    6  C   UNK N   1       1.747  -1.590   1.124  0.00  0.00     0.195 C 
ENDROOT
BRANCH   2   7
HETATM    7  C   UNK N   1       5.047  -0.367  -0.132  0.00  0.00     0.264 C 
BRANCH   7   8
HETATM    8  C   UNK N   1       5.749  -0.049  -1.457  0.00  0.00     0.195 C 
BRANCH   8   9
HETATM    9  O   UNK N   1       7.127   0.040  -1.230  0.00  0.00    -0.389 OA
BRANCH   9  10
HETATM   10  C   UNK N   1       7.407   1.406  -1.186  0.00  0.00     0.168 C 
BRANCH  10  11
HETATM   11  C   UNK N   1       7.173   1.934   0.219  0.00  0.00     0.031 C 
BRANCH  11  12
HETATM   12  C   UNK N   1       6.453   3.267   0.150  0.00  0.00    -0.008 C 
HETATM   13  C   UNK N   1       7.375   4.365  -0.439  0.00  0.00    -0.002 C 
HETATM   14  C   UNK N   1       8.309   4.936   0.633  0.00  0.00    -0.040 C 
HETATM   15  C   UNK N   1       6.561   5.656  -0.325  0.00  0.00     0.011 C 
HETATM   16  C   UNK N   1       7.152   5.839   1.075  0.00  0.00    -0.006 C 
HETATM   17  C   UNK N   1       9.417   5.757  -0.019  0.00  0.00     0.015 C 
HETATM   18  C   UNK N   1       8.923   3.993   1.669  0.00  0.00     0.015 C 
HETATM   19  C   UNK N   1       6.184   5.074   2.012  0.00  0.00     0.006 C 
HETATM   20  C   UNK N   1       5.888   3.622   1.550  0.00  0.00     0.005 C 
ENDBRANCH  11  12
ENDBRANCH  10  11
ENDBRANCH   9  10
ENDBRANCH   8   9
ENDBRANCH   7   8
ENDBRANCH   2   7
BRANCH   2  21
HETATM   21  C   UNK N   1       3.827  -2.205  -1.165  0.00  0.00     0.277 C 
BRANCH  21  22
HETATM   22  C   UNK N   1       4.761  -3.290  -0.672  0.00  0.00    -0.012 A 
HETATM   23  C   UNK N   1       6.145  -3.073  -0.648  0.00  0.00     0.049 A 
HETATM   24  C   UNK N   1       7.032  -4.077  -0.222  0.00  0.00     0.102 A 
HETATM   25  C   UNK N   1       6.519  -5.319   0.177  0.00  0.00     0.102 A 
HETATM   26  C   UNK N   1       5.132  -5.540   0.149  0.00  0.00     0.059 A 
HETATM   27  C   UNK N   1       4.256  -4.538  -0.273  0.00  0.00     0.021 A 
HETATM   28 Br   UNK N   1       2.380  -4.914  -0.303  0.00  0.00    -0.050 Br
BRANCH  24  29
HETATM   29  O   UNK N   1       8.371  -3.870  -0.195  0.00  0.00    -0.353 OA
HETATM   30  C   UNK N   1       8.963  -2.686  -0.573  0.00  0.00     0.210 C 
ENDBRANCH  24  29
BRANCH  25  31
HETATM   31  O   UNK N   1       7.378  -6.290   0.579  0.00  0.00    -0.353 OA
HETATM   32  C   UNK N   1       6.969  -7.548   0.962  0.00  0.00     0.210 C 
ENDBRANCH  25  31
ENDBRANCH  21  22
ENDBRANCH   2  21
TORSDOF 10
