MODEL 1
REMARK VINA RESULT:      -6.4      0.000      0.000
REMARK  8 active torsions:
REMARK  status: ('A' for Active; 'I' for Inactive)
REMARK    1  A    between atoms: C_6  and  O_15 
REMARK    2  A    between atoms: N_11  and  C_16 
REMARK    3  A    between atoms: C_13  and  N_19 
REMARK    4  A    between atoms: C_16  and  C_17 
REMARK    5  A    between atoms: N_19  and  S_20 
REMARK    6  A    between atoms: S_20  and  N_21 
REMARK    7  A    between atoms: N_21  and  C_22 
REMARK    8  A    between atoms: N_21  and  C_23 
ROOT
HETATM    1  C   UNK N   1      25.172  27.930  -4.448  0.00  0.00     0.037 A 
HETATM    2  C   UNK N   1      24.718  27.310  -5.619  0.00  0.00     0.003 A 
HETATM    3  C   UNK N   1      25.518  26.366  -6.277  0.00  0.00     0.008 A 
HETATM    4  C   UNK N   1      26.780  26.047  -5.764  0.00  0.00    -0.047 A 
HETATM    5  C   UNK N   1      27.217  26.654  -4.579  0.00  0.00    -0.018 A 
HETATM    6  C   UNK N   1      26.424  27.601  -3.923  0.00  0.00     0.072 A 
HETATM    7  C   UNK N   1      27.651  24.978  -6.386  0.00  0.00     0.075 C 
HETATM    8  C   UNK N   1      27.985  23.988  -5.245  0.00  0.00     0.231 C 
HETATM    9  C   UNK N   1      28.743  24.728  -4.075  0.00  0.00     0.025 C 
HETATM   10  C   UNK N   1      28.537  26.250  -4.031  0.00  0.00     0.049 C 
HETATM   11  N   UNK N   1      28.621  22.698  -5.661  0.00  0.00     0.095 N 
HETATM   12  C   UNK N   1      30.095  22.666  -5.618  0.00  0.00     0.298 C 
HETATM   13  C   UNK N   1      30.542  23.112  -4.240  0.00  0.00     0.122 C 
HETATM   14  C   UNK N   1      30.232  24.579  -4.190  0.00  0.00     0.034 C 
ENDROOT
BRANCH  13  15
HETATM   15  N   UNK N   1      31.962  22.911  -3.947  0.00  0.00    -0.300 N 
HETATM   16  H   UNK N   1      32.709  23.594  -4.069  0.00  0.00     0.173 HD
BRANCH  15  17
HETATM   17  S   UNK N   1      32.137  21.233  -3.335  0.00  0.00     0.299 S 
HETATM   18  O   UNK N   1      31.849  22.225  -2.197  0.00  0.00    -0.188 OA
HETATM   19  O   UNK N   1      33.085  21.039  -2.141  0.00  0.00    -0.188 OA
BRANCH  17  20
HETATM   20  N   UNK N   1      33.699  21.605  -4.190  0.00  0.00    -0.194 NA
BRANCH  20  21
HETATM   21  C   UNK N   1      33.476  21.317  -5.604  0.00  0.00     0.104 C 
HETATM   22  C   UNK N   1      32.799  19.970  -5.755  0.00  0.00     0.022 C 
ENDBRANCH  20  21
BRANCH  20  23
HETATM   23  C   UNK N   1      34.859  20.767  -3.847  0.00  0.00     0.104 C 
HETATM   24  C   UNK N   1      36.135  21.582  -3.973  0.00  0.00     0.022 C 
ENDBRANCH  20  23
ENDBRANCH  17  20
ENDBRANCH  15  17
ENDBRANCH  13  15
BRANCH  11  25
HETATM   25  C   UNK N   1      28.143  22.246  -6.970  0.00  0.00     0.272 C 
BRANCH  25  26
HETATM   26  C   UNK N   1      29.221  21.479  -7.721  0.00  0.00     0.026 C 
HETATM   27  C   UNK N   1      28.774  20.053  -7.979  0.00  0.00     0.007 C 
ENDBRANCH  25  26
ENDBRANCH  11  25
BRANCH   6  28
HETATM   28  O   UNK N   1      26.859  28.191  -2.797  0.00  0.00    -0.360 OA
HETATM   29  H   UNK N   1      26.401  28.096  -1.985  0.00  0.00     0.217 HD
ENDBRANCH   6  28
TORSDOF 8
ENDMDL
MODEL 2
REMARK VINA RESULT:      -6.4     19.652     23.125
REMARK  8 active torsions:
REMARK  status: ('A' for Active; 'I' for Inactive)
REMARK    1  A    between atoms: C_6  and  O_15 
REMARK    2  A    between atoms: N_11  and  C_16 
REMARK    3  A    between atoms: C_13  and  N_19 
REMARK    4  A    between atoms: C_16  and  C_17 
REMARK    5  A    between atoms: N_19  and  S_20 
REMARK    6  A    between atoms: S_20  and  N_21 
REMARK    7  A    between atoms: N_21  and  C_22 
REMARK    8  A    between atoms: N_21  and  C_23 
ROOT
HETATM    1  C   UNK N   1      35.300  12.309  19.571  0.00  0.00     0.037 A 
HETATM    2  C   UNK N   1      35.329  10.939  19.278  0.00  0.00     0.003 A 
HETATM    3  C   UNK N   1      35.359  10.499  17.947  0.00  0.00     0.008 A 
HETATM    4  C   UNK N   1      35.353  11.434  16.907  0.00  0.00    -0.047 A 
HETATM    5  C   UNK N   1      35.348  12.803  17.208  0.00  0.00    -0.018 A 
HETATM    6  C   UNK N   1      35.312  13.245  18.534  0.00  0.00     0.072 A 
HETATM    7  C   UNK N   1      35.466  11.020  15.456  0.00  0.00     0.075 C 
HETATM    8  C   UNK N   1      36.670  11.806  14.885  0.00  0.00     0.231 C 
HETATM    9  C   UNK N   1      36.427  13.360  15.013  0.00  0.00     0.025 C 
HETATM   10  C   UNK N   1      35.400  13.768  16.081  0.00  0.00     0.049 C 
HETATM   11  N   UNK N   1      37.153  11.376  13.534  0.00  0.00     0.095 N 
HETATM   12  C   UNK N   1      36.598  12.120  12.388  0.00  0.00     0.298 C 
HETATM   13  C   UNK N   1      36.811  13.601  12.632  0.00  0.00     0.122 C 
HETATM   14  C   UNK N   1      35.871  13.947  13.748  0.00  0.00     0.034 C 
ENDROOT
BRANCH  13  15
HETATM   15  N   UNK N   1      36.536  14.470  11.487  0.00  0.00    -0.300 N 
HETATM   16  H   UNK N   1      36.346  15.471  11.517  0.00  0.00     0.173 HD
BRANCH  15  17
HETATM   17  S   UNK N   1      36.596  13.437  10.020  0.00  0.00     0.299 S 
HETATM   18  O   UNK N   1      37.634  14.569   9.960  0.00  0.00    -0.188 OA
HETATM   19  O   UNK N   1      36.578  14.170   8.670  0.00  0.00    -0.188 OA
BRANCH  17  20
HETATM   20  N   UNK N   1      34.893  14.072  10.101  0.00  0.00    -0.194 NA
BRANCH  20  21
HETATM   21  C   UNK N   1      34.104  13.261   9.177  0.00  0.00     0.104 C 
HETATM   22  C   UNK N   1      34.163  11.804   9.591  0.00  0.00     0.022 C 
ENDBRANCH  20  21
BRANCH  20  23
HETATM   23  C   UNK N   1      34.675  15.447   9.622  0.00  0.00     0.104 C 
HETATM   24  C   UNK N   1      33.257  15.586   9.094  0.00  0.00     0.022 C 
ENDBRANCH  20  23
ENDBRANCH  17  20
ENDBRANCH  15  17
ENDBRANCH  13  15
BRANCH  11  25
HETATM   25  C   UNK N   1      36.994   9.934  13.327  0.00  0.00     0.272 C 
BRANCH  25  26
HETATM   26  C   UNK N   1      36.185   9.639  12.072  0.00  0.00     0.026 C 
HETATM   27  C   UNK N   1      34.935   8.854  12.421  0.00  0.00     0.007 C 
ENDBRANCH  25  26
ENDBRANCH  11  25
BRANCH   6  28
HETATM   28  O   UNK N   1      35.289  14.560  18.814  0.00  0.00    -0.360 OA
HETATM   29  H   UNK N   1      35.781  14.918  19.526  0.00  0.00     0.217 HD
ENDBRANCH   6  28
TORSDOF 8
ENDMDL
MODEL 3
REMARK VINA RESULT:      -6.4     12.201     13.443
REMARK  8 active torsions:
REMARK  status: ('A' for Active; 'I' for Inactive)
REMARK    1  A    between atoms: C_6  and  O_15 
REMARK    2  A    between atoms: N_11  and  C_16 
REMARK    3  A    between atoms: C_13  and  N_19 
REMARK    4  A    between atoms: C_16  and  C_17 
REMARK    5  A    between atoms: N_19  and  S_20 
REMARK    6  A    between atoms: S_20  and  N_21 
REMARK    7  A    between atoms: N_21  and  C_22 
REMARK    8  A    between atoms: N_21  and  C_23 
ROOT
HETATM    1  C   UNK N   1      25.887  20.734   5.594  0.00  0.00     0.037 A 
HETATM    2  C   UNK N   1      26.199  20.378   4.276  0.00  0.00     0.003 A 
HETATM    3  C   UNK N   1      27.328  19.592   4.003  0.00  0.00     0.008 A 
HETATM    4  C   UNK N   1      28.149  19.167   5.053  0.00  0.00    -0.047 A 
HETATM    5  C   UNK N   1      27.816  19.508   6.371  0.00  0.00    -0.018 A 
HETATM    6  C   UNK N   1      26.695  20.297   6.647  0.00  0.00     0.072 A 
HETATM    7  C   UNK N   1      29.332  18.252   4.826  0.00  0.00     0.075 C 
HETATM    8  C   UNK N   1      29.116  17.041   5.764  0.00  0.00     0.231 C 
HETATM    9  C   UNK N   1      29.045  17.514   7.269  0.00  0.00     0.025 C 
HETATM   10  C   UNK N   1      28.677  18.993   7.466  0.00  0.00     0.049 C 
HETATM   11  N   UNK N   1      30.016  15.867   5.539  0.00  0.00     0.095 N 
HETATM   12  C   UNK N   1      31.233  15.822   6.370  0.00  0.00     0.298 C 
HETATM   13  C   UNK N   1      30.824  15.964   7.823  0.00  0.00     0.122 C 
HETATM   14  C   UNK N   1      30.372  17.388   7.959  0.00  0.00     0.034 C 
ENDROOT
BRANCH  13  15
HETATM   15  N   UNK N   1      31.882  15.701   8.799  0.00  0.00    -0.300 N 
HETATM   16  H   UNK N   1      31.910  16.027   9.765  0.00  0.00     0.173 HD
BRANCH  15  17
HETATM   17  S   UNK N   1      33.120  14.698   7.972  0.00  0.00     0.299 S 
HETATM   18  O   UNK N   1      32.266  13.863   8.940  0.00  0.00    -0.188 OA
HETATM   19  O   UNK N   1      33.977  13.796   8.873  0.00  0.00    -0.188 OA
BRANCH  17  20
HETATM   20  N   UNK N   1      34.047  16.007   8.831  0.00  0.00    -0.194 NA
BRANCH  20  21
HETATM   21  C   UNK N   1      34.613  16.863   7.793  0.00  0.00     0.104 C 
HETATM   22  C   UNK N   1      34.015  18.253   7.888  0.00  0.00     0.022 C 
ENDBRANCH  20  21
BRANCH  20  23
HETATM   23  C   UNK N   1      35.224  15.585   9.608  0.00  0.00     0.104 C 
HETATM   24  C   UNK N   1      35.344  16.439  10.860  0.00  0.00     0.022 C 
ENDBRANCH  20  23
ENDBRANCH  17  20
ENDBRANCH  15  17
ENDBRANCH  13  15
BRANCH  11  25
HETATM   25  C   UNK N   1      30.363  15.704   4.124  0.00  0.00     0.272 C 
BRANCH  25  26
HETATM   26  C   UNK N   1      29.562  14.582   3.481  0.00  0.00     0.026 C 
HETATM   27  C   UNK N   1      28.747  15.114   2.318  0.00  0.00     0.007 C 
ENDBRANCH  25  26
ENDBRANCH  11  25
BRANCH   6  28
HETATM   28  O   UNK N   1      26.393  20.633   7.912  0.00  0.00    -0.360 OA
HETATM   29  H   UNK N   1      25.731  21.267   8.107  0.00  0.00     0.217 HD
ENDBRANCH   6  28
TORSDOF 8
ENDMDL
MODEL 4
REMARK VINA RESULT:      -6.2     15.750     16.894
REMARK  8 active torsions:
REMARK  status: ('A' for Active; 'I' for Inactive)
REMARK    1  A    between atoms: C_6  and  O_15 
REMARK    2  A    between atoms: N_11  and  C_16 
REMARK    3  A    between atoms: C_13  and  N_19 
REMARK    4  A    between atoms: C_16  and  C_17 
REMARK    5  A    between atoms: N_19  and  S_20 
REMARK    6  A    between atoms: S_20  and  N_21 
REMARK    7  A    between atoms: N_21  and  C_22 
REMARK    8  A    between atoms: N_21  and  C_23 
ROOT
HETATM    1  C   UNK N   1      22.867  11.718  12.032  0.00  0.00     0.037 A 
HETATM    2  C   UNK N   1      21.559  12.018  11.631  0.00  0.00     0.003 A 
HETATM    3  C   UNK N   1      21.328  12.767  10.468  0.00  0.00     0.008 A 
HETATM    4  C   UNK N   1      22.411  13.224   9.710  0.00  0.00    -0.047 A 
HETATM    5  C   UNK N   1      23.717  12.900  10.106  0.00  0.00    -0.018 A 
HETATM    6  C   UNK N   1      23.950  12.158  11.267  0.00  0.00     0.072 A 
HETATM    7  C   UNK N   1      22.221  13.966   8.406  0.00  0.00     0.075 C 
HETATM    8  C   UNK N   1      23.034  13.180   7.349  0.00  0.00     0.231 C 
HETATM    9  C   UNK N   1      24.558  13.125   7.753  0.00  0.00     0.025 C 
HETATM   10  C   UNK N   1      24.841  13.351   9.247  0.00  0.00     0.049 C 
HETATM   11  N   UNK N   1      22.797  13.563   5.921  0.00  0.00     0.095 N 
HETATM   12  C   UNK N   1      23.732  14.556   5.360  0.00  0.00     0.298 C 
HETATM   13  C   UNK N   1      25.147  14.068   5.600  0.00  0.00     0.122 C 
HETATM   14  C   UNK N   1      25.356  14.203   7.078  0.00  0.00     0.034 C 
ENDROOT
BRANCH  13  15
HETATM   15  N   UNK N   1      26.193  14.812   4.897  0.00  0.00    -0.300 N 
HETATM   16  H   UNK N   1      27.151  14.958   5.214  0.00  0.00     0.173 HD
BRANCH  15  17
HETATM   17  S   UNK N   1      25.467  15.422   3.372  0.00  0.00     0.299 S 
HETATM   18  O   UNK N   1      26.519  14.333   3.105  0.00  0.00    -0.188 OA
HETATM   19  O   UNK N   1      26.451  15.824   2.263  0.00  0.00    -0.188 OA
BRANCH  17  20
HETATM   20  N   UNK N   1      26.183  16.881   4.189  0.00  0.00    -0.194 NA
BRANCH  20  21
HETATM   21  C   UNK N   1      25.400  18.030   3.745  0.00  0.00     0.104 C 
HETATM   22  C   UNK N   1      24.094  18.090   4.511  0.00  0.00     0.022 C 
ENDBRANCH  20  21
BRANCH  20  23
HETATM   23  C   UNK N   1      27.561  17.240   3.815  0.00  0.00     0.104 C 
HETATM   24  C   UNK N   1      27.814  18.703   4.136  0.00  0.00     0.022 C 
ENDBRANCH  20  23
ENDBRANCH  17  20
ENDBRANCH  15  17
ENDBRANCH  13  15
BRANCH  11  25
HETATM   25  C   UNK N   1      21.413  13.982   5.687  0.00  0.00     0.272 C 
BRANCH  25  26
HETATM   26  C   UNK N   1      21.349  15.368   5.063  0.00  0.00     0.026 C 
HETATM   27  C   UNK N   1      20.576  16.316   5.959  0.00  0.00     0.007 C 
ENDBRANCH  25  26
ENDBRANCH  11  25
BRANCH   6  28
HETATM   28  O   UNK N   1      25.206  11.866  11.649  0.00  0.00    -0.360 OA
HETATM   29  H   UNK N   1      25.405  11.614  12.529  0.00  0.00     0.217 HD
ENDBRANCH   6  28
TORSDOF 8
ENDMDL
MODEL 5
REMARK VINA RESULT:      -6.1     12.290     14.265
REMARK  8 active torsions:
REMARK  status: ('A' for Active; 'I' for Inactive)
REMARK    1  A    between atoms: C_6  and  O_15 
REMARK    2  A    between atoms: N_11  and  C_16 
REMARK    3  A    between atoms: C_13  and  N_19 
REMARK    4  A    between atoms: C_16  and  C_17 
REMARK    5  A    between atoms: N_19  and  S_20 
REMARK    6  A    between atoms: S_20  and  N_21 
REMARK    7  A    between atoms: N_21  and  C_22 
REMARK    8  A    between atoms: N_21  and  C_23 
ROOT
HETATM    1  C   UNK N   1      26.691  17.111   5.807  0.00  0.00     0.037 A 
HETATM    2  C   UNK N   1      26.974  17.108   4.435  0.00  0.00     0.003 A 
HETATM    3  C   UNK N   1      28.294  17.246   3.984  0.00  0.00     0.008 A 
HETATM    4  C   UNK N   1      29.332  17.395   4.909  0.00  0.00    -0.047 A 
HETATM    5  C   UNK N   1      29.043  17.373   6.281  0.00  0.00    -0.018 A 
HETATM    6  C   UNK N   1      27.727  17.242   6.734  0.00  0.00     0.072 A 
HETATM    7  C   UNK N   1      30.782  17.466   4.484  0.00  0.00     0.075 C 
HETATM    8  C   UNK N   1      31.511  16.354   5.274  0.00  0.00     0.231 C 
HETATM    9  C   UNK N   1      31.364  16.592   6.827  0.00  0.00     0.025 C 
HETATM   10  C   UNK N   1      30.175  17.476   7.237  0.00  0.00     0.049 C 
HETATM   11  N   UNK N   1      32.909  16.046   4.836  0.00  0.00     0.095 N 
HETATM   12  C   UNK N   1      33.979  16.750   5.566  0.00  0.00     0.298 C 
HETATM   13  C   UNK N   1      33.776  16.521   7.051  0.00  0.00     0.122 C 
HETATM   14  C   UNK N   1      32.550  17.312   7.398  0.00  0.00     0.034 C 
ENDROOT
BRANCH  13  15
HETATM   15  N   UNK N   1      34.882  16.949   7.907  0.00  0.00    -0.300 N 
HETATM   16  H   UNK N   1      35.809  17.244   7.599  0.00  0.00     0.173 HD
BRANCH  15  17
HETATM   17  S   UNK N   1      34.299  16.855   9.602  0.00  0.00     0.299 S 
HETATM   18  O   UNK N   1      35.179  18.094   9.373  0.00  0.00    -0.188 OA
HETATM   19  O   UNK N   1      35.362  17.023  10.698  0.00  0.00    -0.188 OA
BRANCH  17  20
HETATM   20  N   UNK N   1      35.208  15.306   9.312  0.00  0.00    -0.194 NA
BRANCH  20  21
HETATM   21  C   UNK N   1      34.361  14.228   9.815  0.00  0.00     0.104 C 
HETATM   22  C   UNK N   1      32.942  14.728   9.994  0.00  0.00     0.022 C 
ENDBRANCH  20  21
BRANCH  20  23
HETATM   23  C   UNK N   1      36.467  15.127  10.054  0.00  0.00     0.104 C 
HETATM   24  C   UNK N   1      36.711  13.647  10.299  0.00  0.00     0.022 C 
ENDBRANCH  20  23
ENDBRANCH  17  20
ENDBRANCH  15  17
ENDBRANCH  13  15
BRANCH  11  25
HETATM   25  C   UNK N   1      33.083  16.217   3.391  0.00  0.00     0.272 C 
BRANCH  25  26
HETATM   26  C   UNK N   1      33.698  14.979   2.755  0.00  0.00     0.026 C 
HETATM   27  C   UNK N   1      32.673  13.865   2.667  0.00  0.00     0.007 C 
ENDBRANCH  25  26
ENDBRANCH  11  25
BRANCH   6  28
HETATM   28  O   UNK N   1      27.457  17.240   8.051  0.00  0.00    -0.360 OA
HETATM   29  H   UNK N   1      28.011  16.799   8.665  0.00  0.00     0.217 HD
ENDBRANCH   6  28
TORSDOF 8
ENDMDL
MODEL 6
REMARK VINA RESULT:      -6.1     15.458     16.947
REMARK  8 active torsions:
REMARK  status: ('A' for Active; 'I' for Inactive)
REMARK    1  A    between atoms: C_6  and  O_15 
REMARK    2  A    between atoms: N_11  and  C_16 
REMARK    3  A    between atoms: C_13  and  N_19 
REMARK    4  A    between atoms: C_16  and  C_17 
REMARK    5  A    between atoms: N_19  and  S_20 
REMARK    6  A    between atoms: S_20  and  N_21 
REMARK    7  A    between atoms: N_21  and  C_22 
REMARK    8  A    between atoms: N_21  and  C_23 
ROOT
HETATM    1  C   UNK N   1      21.745  12.161  10.860  0.00  0.00     0.037 A 
HETATM    2  C   UNK N   1      23.015  11.695  10.499  0.00  0.00     0.003 A 
HETATM    3  C   UNK N   1      23.579  12.056   9.266  0.00  0.00     0.008 A 
HETATM    4  C   UNK N   1      22.863  12.879   8.391  0.00  0.00    -0.047 A 
HETATM    5  C   UNK N   1      21.602  13.360   8.770  0.00  0.00    -0.018 A 
HETATM    6  C   UNK N   1      21.035  12.998   9.995  0.00  0.00     0.072 A 
HETATM    7  C   UNK N   1      23.453  13.365   7.085  0.00  0.00     0.075 C 
HETATM    8  C   UNK N   1      23.340  14.908   7.118  0.00  0.00     0.231 C 
HETATM    9  C   UNK N   1      21.831  15.349   7.258  0.00  0.00     0.025 C 
HETATM   10  C   UNK N   1      20.895  14.278   7.841  0.00  0.00     0.049 C 
HETATM   11  N   UNK N   1      24.092  15.644   6.053  0.00  0.00     0.095 N 
HETATM   12  C   UNK N   1      23.322  15.985   4.843  0.00  0.00     0.298 C 
HETATM   13  C   UNK N   1      22.062  16.713   5.268  0.00  0.00     0.122 C 
HETATM   14  C   UNK N   1      21.214  15.665   5.926  0.00  0.00     0.034 C 
ENDROOT
BRANCH  13  15
HETATM   15  N   UNK N   1      21.301  17.333   4.183  0.00  0.00    -0.300 N 
HETATM   16  H   UNK N   1      20.606  16.878   3.592  0.00  0.00     0.173 HD
BRANCH  15  17
HETATM   17  S   UNK N   1      21.827  19.047   4.088  0.00  0.00     0.299 S 
HETATM   18  O   UNK N   1      20.892  18.805   5.283  0.00  0.00    -0.188 OA
HETATM   19  O   UNK N   1      20.718  20.106   4.181  0.00  0.00    -0.188 OA
BRANCH  17  20
HETATM   20  N   UNK N   1      21.012  18.699   2.500  0.00  0.00    -0.194 NA
BRANCH  20  21
HETATM   21  C   UNK N   1      20.303  19.918   2.121  0.00  0.00     0.104 C 
HETATM   22  C   UNK N   1      20.957  20.538   0.903  0.00  0.00     0.022 C 
ENDBRANCH  20  21
BRANCH  20  23
HETATM   23  C   UNK N   1      19.954  17.675   2.508  0.00  0.00     0.104 C 
HETATM   24  C   UNK N   1      19.842  17.043   1.130  0.00  0.00     0.022 C 
ENDBRANCH  20  23
ENDBRANCH  17  20
ENDBRANCH  15  17
ENDBRANCH  13  15
BRANCH  11  25
HETATM   25  C   UNK N   1      25.335  14.961   5.687  0.00  0.00     0.272 C 
BRANCH  25  26
HETATM   26  C   UNK N   1      25.557  14.980   4.182  0.00  0.00     0.026 C 
HETATM   27  C   UNK N   1      26.058  13.631   3.705  0.00  0.00     0.007 C 
ENDBRANCH  25  26
ENDBRANCH  11  25
BRANCH   6  28
HETATM   28  O   UNK N   1      19.818  13.449  10.344  0.00  0.00    -0.360 OA
HETATM   29  H   UNK N   1      19.263  12.966  10.923  0.00  0.00     0.217 HD
ENDBRANCH   6  28
TORSDOF 8
ENDMDL
MODEL 7
REMARK VINA RESULT:      -6.0     12.693     13.245
REMARK  8 active torsions:
REMARK  status: ('A' for Active; 'I' for Inactive)
REMARK    1  A    between atoms: C_6  and  O_15 
REMARK    2  A    between atoms: N_11  and  C_16 
REMARK    3  A    between atoms: C_13  and  N_19 
REMARK    4  A    between atoms: C_16  and  C_17 
REMARK    5  A    between atoms: N_19  and  S_20 
REMARK    6  A    between atoms: S_20  and  N_21 
REMARK    7  A    between atoms: N_21  and  C_22 
REMARK    8  A    between atoms: N_21  and  C_23 
ROOT
HETATM    1  C   UNK N   1      20.522  20.425   2.788  0.00  0.00     0.037 A 
HETATM    2  C   UNK N   1      19.703  19.297   2.925  0.00  0.00     0.003 A 
HETATM    3  C   UNK N   1      20.257  18.057   3.274  0.00  0.00     0.008 A 
HETATM    4  C   UNK N   1      21.636  17.946   3.478  0.00  0.00    -0.047 A 
HETATM    5  C   UNK N   1      22.446  19.084   3.361  0.00  0.00    -0.018 A 
HETATM    6  C   UNK N   1      21.897  20.321   3.008  0.00  0.00     0.072 A 
HETATM    7  C   UNK N   1      22.278  16.653   3.933  0.00  0.00     0.075 C 
HETATM    8  C   UNK N   1      23.075  17.005   5.212  0.00  0.00     0.231 C 
HETATM    9  C   UNK N   1      24.167  18.100   4.899  0.00  0.00     0.025 C 
HETATM   10  C   UNK N   1      23.897  18.943   3.641  0.00  0.00     0.049 C 
HETATM   11  N   UNK N   1      23.590  15.844   6.004  0.00  0.00     0.095 N 
HETATM   12  C   UNK N   1      24.972  15.425   5.705  0.00  0.00     0.298 C 
HETATM   13  C   UNK N   1      25.872  16.640   5.811  0.00  0.00     0.122 C 
HETATM   14  C   UNK N   1      25.512  17.490   4.629  0.00  0.00     0.034 C 
ENDROOT
BRANCH  13  15
HETATM   15  N   UNK N   1      27.308  16.359   5.780  0.00  0.00    -0.300 N 
HETATM   16  H   UNK N   1      27.758  15.475   6.016  0.00  0.00     0.173 HD
BRANCH  15  17
HETATM   17  S   UNK N   1      28.126  17.867   5.251  0.00  0.00     0.299 S 
HETATM   18  O   UNK N   1      28.942  16.619   4.881  0.00  0.00    -0.188 OA
HETATM   19  O   UNK N   1      29.607  18.008   5.632  0.00  0.00    -0.188 OA
BRANCH  17  20
HETATM   20  N   UNK N   1      27.909  18.035   7.049  0.00  0.00    -0.194 NA
BRANCH  20  21
HETATM   21  C   UNK N   1      28.046  19.457   7.352  0.00  0.00     0.104 C 
HETATM   22  C   UNK N   1      27.132  20.266   6.454  0.00  0.00     0.022 C 
ENDBRANCH  20  21
BRANCH  20  23
HETATM   23  C   UNK N   1      28.929  17.403   7.902  0.00  0.00     0.104 C 
HETATM   24  C   UNK N   1      28.709  17.808   9.350  0.00  0.00     0.022 C 
ENDBRANCH  20  23
ENDBRANCH  17  20
ENDBRANCH  15  17
ENDBRANCH  13  15
BRANCH  11  25
HETATM   25  C   UNK N   1      22.686  14.692   5.942  0.00  0.00     0.272 C 
BRANCH  25  26
HETATM   26  C   UNK N   1      21.594  14.785   6.997  0.00  0.00     0.026 C 
HETATM   27  C   UNK N   1      20.719  13.547   6.963  0.00  0.00     0.007 C 
ENDBRANCH  25  26
ENDBRANCH  11  25
BRANCH   6  28
HETATM   28  O   UNK N   1      22.683  21.404   2.882  0.00  0.00    -0.360 OA
HETATM   29  H   UNK N   1      23.014  21.860   3.630  0.00  0.00     0.217 HD
ENDBRANCH   6  28
TORSDOF 8
ENDMDL
MODEL 8
REMARK VINA RESULT:      -6.0      2.633      7.375
REMARK  8 active torsions:
REMARK  status: ('A' for Active; 'I' for Inactive)
REMARK    1  A    between atoms: C_6  and  O_15 
REMARK    2  A    between atoms: N_11  and  C_16 
REMARK    3  A    between atoms: C_13  and  N_19 
REMARK    4  A    between atoms: C_16  and  C_17 
REMARK    5  A    between atoms: N_19  and  S_20 
REMARK    6  A    between atoms: S_20  and  N_21 
REMARK    7  A    between atoms: N_21  and  C_22 
REMARK    8  A    between atoms: N_21  and  C_23 
ROOT
HETATM    1  C   UNK N   1      33.694  20.622  -3.089  0.00  0.00     0.037 A 
HETATM    2  C   UNK N   1      34.146  19.869  -4.180  0.00  0.00     0.003 A 
HETATM    3  C   UNK N   1      33.350  19.734  -5.327  0.00  0.00     0.008 A 
HETATM    4  C   UNK N   1      32.095  20.349  -5.377  0.00  0.00    -0.047 A 
HETATM    5  C   UNK N   1      31.659  21.120  -4.290  0.00  0.00    -0.018 A 
HETATM    6  C   UNK N   1      32.448  21.252  -3.143  0.00  0.00     0.072 A 
HETATM    7  C   UNK N   1      31.229  20.304  -6.616  0.00  0.00     0.075 C 
HETATM    8  C   UNK N   1      30.912  21.778  -6.963  0.00  0.00     0.231 C 
HETATM    9  C   UNK N   1      30.154  22.478  -5.768  0.00  0.00     0.025 C 
HETATM   10  C   UNK N   1      30.347  21.806  -4.399  0.00  0.00     0.049 C 
HETATM   11  N   UNK N   1      30.284  22.017  -8.302  0.00  0.00     0.095 N 
HETATM   12  C   UNK N   1      28.811  22.085  -8.317  0.00  0.00     0.298 C 
HETATM   13  C   UNK N   1      28.369  23.102  -7.283  0.00  0.00     0.122 C 
HETATM   14  C   UNK N   1      28.666  22.460  -5.961  0.00  0.00     0.034 C 
ENDROOT
BRANCH  13  15
HETATM   15  N   UNK N   1      26.953  23.469  -7.332  0.00  0.00    -0.300 N 
HETATM   16  H   UNK N   1      26.399  23.637  -8.171  0.00  0.00     0.173 HD
BRANCH  15  17
HETATM   17  S   UNK N   1      26.379  23.567  -5.634  0.00  0.00     0.299 S 
HETATM   18  O   UNK N   1      25.312  22.963  -6.561  0.00  0.00    -0.188 OA
HETATM   19  O   UNK N   1      24.997  24.202  -5.419  0.00  0.00    -0.188 OA
BRANCH  17  20
HETATM   20  N   UNK N   1      26.809  25.271  -6.103  0.00  0.00    -0.194 NA
BRANCH  20  21
HETATM   21  C   UNK N   1      27.050  25.996  -4.858  0.00  0.00     0.104 C 
HETATM   22  C   UNK N   1      28.072  25.254  -4.020  0.00  0.00     0.022 C 
ENDBRANCH  20  21
BRANCH  20  23
HETATM   23  C   UNK N   1      25.757  26.063  -6.762  0.00  0.00     0.104 C 
HETATM   24  C   UNK N   1      25.636  27.418  -6.085  0.00  0.00     0.022 C 
ENDBRANCH  20  23
ENDBRANCH  17  20
ENDBRANCH  15  17
ENDBRANCH  13  15
BRANCH  11  25
HETATM   25  C   UNK N   1      30.758  21.064  -9.309  0.00  0.00     0.272 C 
BRANCH  25  26
HETATM   26  C   UNK N   1      29.618  20.213  -9.848  0.00  0.00     0.026 C 
HETATM   27  C   UNK N   1      30.035  18.757  -9.926  0.00  0.00     0.007 C 
ENDBRANCH  25  26
ENDBRANCH  11  25
BRANCH   6  28
HETATM   28  O   UNK N   1      32.016  21.979  -2.098  0.00  0.00    -0.360 OA
HETATM   29  H   UNK N   1      31.435  22.705  -2.212  0.00  0.00     0.217 HD
ENDBRANCH   6  28
TORSDOF 8
ENDMDL
MODEL 9
REMARK VINA RESULT:      -5.9     11.968     12.445
REMARK  8 active torsions:
REMARK  status: ('A' for Active; 'I' for Inactive)
REMARK    1  A    between atoms: C_6  and  O_15 
REMARK    2  A    between atoms: N_11  and  C_16 
REMARK    3  A    between atoms: C_13  and  N_19 
REMARK    4  A    between atoms: C_16  and  C_17 
REMARK    5  A    between atoms: N_19  and  S_20 
REMARK    6  A    between atoms: S_20  and  N_21 
REMARK    7  A    between atoms: N_21  and  C_22 
REMARK    8  A    between atoms: N_21  and  C_23 
ROOT
HETATM    1  C   UNK N   1      20.123  20.008   2.917  0.00  0.00     0.037 A 
HETATM    2  C   UNK N   1      19.688  18.685   3.067  0.00  0.00     0.003 A 
HETATM    3  C   UNK N   1      20.610  17.660   3.321  0.00  0.00     0.008 A 
HETATM    4  C   UNK N   1      21.973  17.960   3.417  0.00  0.00    -0.047 A 
HETATM    5  C   UNK N   1      22.398  19.290   3.289  0.00  0.00    -0.018 A 
HETATM    6  C   UNK N   1      21.481  20.314   3.030  0.00  0.00     0.072 A 
HETATM    7  C   UNK N   1      23.003  16.909   3.769  0.00  0.00     0.075 C 
HETATM    8  C   UNK N   1      23.764  17.459   4.999  0.00  0.00     0.231 C 
HETATM    9  C   UNK N   1      24.455  18.835   4.651  0.00  0.00     0.025 C 
HETATM   10  C   UNK N   1      23.844  19.582   3.455  0.00  0.00     0.049 C 
HETATM   11  N   UNK N   1      24.663  16.489   5.701  0.00  0.00     0.095 N 
HETATM   12  C   UNK N   1      26.077  16.506   5.283  0.00  0.00     0.298 C 
HETATM   13  C   UNK N   1      26.585  17.932   5.372  0.00  0.00     0.122 C 
HETATM   14  C   UNK N   1      25.892  18.658   4.258  0.00  0.00     0.034 C 
ENDROOT
BRANCH  13  15
HETATM   15  N   UNK N   1      28.032  18.091   5.223  0.00  0.00    -0.300 N 
HETATM   16  H   UNK N   1      28.510  18.678   4.540  0.00  0.00     0.173 HD
BRANCH  15  17
HETATM   17  S   UNK N   1      28.804  17.055   6.470  0.00  0.00     0.299 S 
HETATM   18  O   UNK N   1      28.418  18.431   7.034  0.00  0.00    -0.188 OA
HETATM   19  O   UNK N   1      29.946  17.694   7.274  0.00  0.00    -0.188 OA
BRANCH  17  20
HETATM   20  N   UNK N   1      30.019  17.184   5.122  0.00  0.00    -0.194 NA
BRANCH  20  21
HETATM   21  C   UNK N   1      29.857  15.986   4.302  0.00  0.00     0.104 C 
HETATM   22  C   UNK N   1      29.715  14.768   5.191  0.00  0.00     0.022 C 
ENDBRANCH  20  21
BRANCH  20  23
HETATM   23  C   UNK N   1      31.440  17.148   5.505  0.00  0.00     0.104 C 
HETATM   24  C   UNK N   1      32.301  17.536   4.314  0.00  0.00     0.022 C 
ENDBRANCH  20  23
ENDBRANCH  17  20
ENDBRANCH  15  17
ENDBRANCH  13  15
BRANCH  11  25
HETATM   25  C   UNK N   1      24.138  15.122   5.657  0.00  0.00     0.272 C 
BRANCH  25  26
HETATM   26  C   UNK N   1      24.297  14.422   6.998  0.00  0.00     0.026 C 
HETATM   27  C   UNK N   1      23.789  12.996   6.915  0.00  0.00     0.007 C 
ENDBRANCH  25  26
ENDBRANCH  11  25
BRANCH   6  28
HETATM   28  O   UNK N   1      21.899  21.584   2.892  0.00  0.00    -0.360 OA
HETATM   29  H   UNK N   1      21.346  22.308   3.106  0.00  0.00     0.217 HD
ENDBRANCH   6  28
TORSDOF 8
ENDMDL
