MODEL 1
REMARK VINA RESULT:      -7.9      0.000      0.000
REMARK  7 active torsions:
REMARK  status: ('A' for Active; 'I' for Inactive)
REMARK    1  A    between atoms: C_13  and  C_9 
REMARK    2  A    between atoms: C_14  and  C_9 
REMARK    3  A    between atoms: C_12  and  C_10 
REMARK    4  A    between atoms: N_22  and  C_10 
REMARK    5  A    between atoms: C_14  and  O_24 
REMARK    6  A    between atoms: C_15  and  N_20 
REMARK    7  A    between atoms: C_19  and  C_16 
ROOT
HETATM    1  C   UNK N   1      34.939  14.372   7.932  0.00  0.00     0.113 C 
HETATM    2  C   UNK N   1      34.627  15.789   7.559  0.00  0.00    -0.024 C 
HETATM    3  C   UNK N   1      35.239  14.669  11.053  0.00  0.00     0.199 C 
HETATM    4  C   UNK N   1      34.387  16.686   8.561  0.00  0.00     0.101 C 
HETATM    5  C   UNK N   1      35.369  16.106  10.674  0.00  0.00     0.230 C 
HETATM    6  C   UNK N   1      33.862  14.854  10.272  0.00  0.00     0.164 C 
HETATM    7  N   UNK N   1      34.301  16.184   9.903  0.00  0.00    -0.195 NA
HETATM    8  O   UNK N   1      36.379  16.794  10.580  0.00  0.00    -0.277 OA
HETATM    9  S   UNK N   1      33.579  13.688   8.897  0.00  0.00    -0.141 SA
ENDROOT
BRANCH   3  10
HETATM   10  N   UNK N   1      35.104  14.270  12.435  0.00  0.00    -0.359 N 
HETATM   11  C   UNK N   1      36.124  13.790  13.074  0.00  0.00     0.116 C 
ATOM     12  HN  UNK N   1      34.205  14.366  12.908  1.00  0.00     0.162 HD
BRANCH  11  13
HETATM   13  C   UNK N   1      36.090  13.578  14.556  0.00  0.00     0.129 C 
BRANCH  13  14
HETATM   14  C   UNK N   1      35.442  12.335  15.062  0.00  0.00    -0.010 A 
HETATM   15  C   UNK N   1      34.366  11.715  14.437  0.00  0.00     0.015 A 
HETATM   16  C   UNK N   1      33.969  10.512  15.082  0.00  0.00     0.008 A 
HETATM   17  C   UNK N   1      34.737  10.187  16.210  0.00  0.00     0.050 A 
HETATM   18  S   UNK N   1      35.862  11.397  16.359  0.00  0.00    -0.106 SA
ENDBRANCH  13  14
ENDBRANCH  11  13
BRANCH  11  19
HETATM   19  O   UNK N   1      37.293  13.569  12.435  0.00  0.00    -0.349 OA
HETATM   20  H   UNK N   1      37.735  12.749  12.534  0.00  0.00     0.219 HD
ENDBRANCH  11  19
ENDBRANCH   3  10
BRANCH   4  21
HETATM   21  C   UNK N   1      34.211  18.146   8.317  0.00  0.00     0.222 C 
HETATM   22  O   UNK N   1      33.100  18.585   8.066  0.00  0.00    -0.643 OA
HETATM   23  O   UNK N   1      35.249  19.000   8.402  0.00  0.00    -0.643 OA
ENDBRANCH   4  21
BRANCH   2  24
HETATM   24  C   UNK N   1      34.661  16.122   6.085  0.00  0.00     0.164 C 
BRANCH  24  25
HETATM   25  N   UNK N   1      33.320  16.378   5.532  0.00  0.00    -0.362 N 
HETATM   26  C   UNK N   1      33.143  17.462   4.728  0.00  0.00     0.090 A 
HETATM   27  C   UNK N   1      31.891  17.731   4.162  0.00  0.00     0.017 A 
HETATM   28  C   UNK N   1      30.817  16.883   4.433  0.00  0.00     0.003 A 
HETATM   29  C   UNK N   1      31.007  15.773   5.249  0.00  0.00     0.017 A 
HETATM   30  C   UNK N   1      32.273  15.531   5.779  0.00  0.00     0.090 A 
ENDBRANCH  24  25
ENDBRANCH   2  24
TORSDOF 7
ENDMDL
MODEL 2
REMARK VINA RESULT:      -7.4      3.314      4.806
REMARK  7 active torsions:
REMARK  status: ('A' for Active; 'I' for Inactive)
REMARK    1  A    between atoms: C_13  and  C_9 
REMARK    2  A    between atoms: C_14  and  C_9 
REMARK    3  A    between atoms: C_12  and  C_10 
REMARK    4  A    between atoms: N_22  and  C_10 
REMARK    5  A    between atoms: C_14  and  O_24 
REMARK    6  A    between atoms: C_15  and  N_20 
REMARK    7  A    between atoms: C_19  and  C_16 
ROOT
HETATM    1  C   UNK N   1      29.917  16.980   8.285  0.00  0.00     0.113 C 
HETATM    2  C   UNK N   1      29.970  17.052   6.788  0.00  0.00    -0.024 C 
HETATM    3  C   UNK N   1      32.962  16.506   8.931  0.00  0.00     0.199 C 
HETATM    4  C   UNK N   1      31.195  17.089   6.185  0.00  0.00     0.101 C 
HETATM    5  C   UNK N   1      32.977  16.140   7.485  0.00  0.00     0.230 C 
HETATM    6  C   UNK N   1      32.385  17.859   8.318  0.00  0.00     0.164 C 
HETATM    7  N   UNK N   1      32.353  17.207   7.025  0.00  0.00    -0.195 NA
HETATM    8  O   UNK N   1      32.984  15.029   6.967  0.00  0.00    -0.277 OA
HETATM    9  S   UNK N   1      30.776  18.399   8.988  0.00  0.00    -0.141 SA
ENDROOT
BRANCH   3  10
HETATM   10  N   UNK N   1      34.191  16.653   9.677  0.00  0.00    -0.359 N 
HETATM   11  C   UNK N   1      34.436  15.872  10.682  0.00  0.00     0.116 C 
ATOM     12  HN  UNK N   1      34.865  17.372   9.413  1.00  0.00     0.162 HD
BRANCH  11  13
HETATM   13  C   UNK N   1      35.783  15.839  11.335  0.00  0.00     0.129 C 
BRANCH  13  14
HETATM   14  C   UNK N   1      36.174  14.591  12.050  0.00  0.00    -0.010 A 
HETATM   15  C   UNK N   1      36.154  14.457  13.434  0.00  0.00     0.015 A 
HETATM   16  C   UNK N   1      36.515  13.152  13.869  0.00  0.00     0.008 A 
HETATM   17  C   UNK N   1      36.811  12.263  12.825  0.00  0.00     0.050 A 
HETATM   18  S   UNK N   1      36.621  13.128  11.422  0.00  0.00    -0.106 SA
ENDBRANCH  13  14
ENDBRANCH  11  13
BRANCH  11  19
HETATM   19  O   UNK N   1      33.512  14.981  11.101  0.00  0.00    -0.349 OA
HETATM   20  H   UNK N   1      33.762  14.097  11.288  0.00  0.00     0.219 HD
ENDBRANCH  11  19
ENDBRANCH   3  10
BRANCH   4  21
HETATM   21  C   UNK N   1      31.373  17.014   4.706  0.00  0.00     0.222 C 
HETATM   22  O   UNK N   1      31.832  17.972   4.106  0.00  0.00    -0.643 OA
HETATM   23  O   UNK N   1      31.069  15.895   4.020  0.00  0.00    -0.643 OA
ENDBRANCH   4  21
BRANCH   2  24
HETATM   24  C   UNK N   1      28.645  17.019   6.064  0.00  0.00     0.164 C 
BRANCH  24  25
HETATM   25  N   UNK N   1      28.136  18.367   5.755  0.00  0.00    -0.362 N 
HETATM   26  C   UNK N   1      27.948  18.710   4.451  0.00  0.00     0.090 A 
HETATM   27  C   UNK N   1      27.444  19.972   4.113  0.00  0.00     0.017 A 
HETATM   28  C   UNK N   1      27.142  20.886   5.123  0.00  0.00     0.003 A 
HETATM   29  C   UNK N   1      27.330  20.525   6.453  0.00  0.00     0.017 A 
HETATM   30  C   UNK N   1      27.816  19.254   6.749  0.00  0.00     0.090 A 
ENDBRANCH  24  25
ENDBRANCH   2  24
TORSDOF 7
ENDMDL
MODEL 3
REMARK VINA RESULT:      -6.6      2.428      2.942
REMARK  7 active torsions:
REMARK  status: ('A' for Active; 'I' for Inactive)
REMARK    1  A    between atoms: C_13  and  C_9 
REMARK    2  A    between atoms: C_14  and  C_9 
REMARK    3  A    between atoms: C_12  and  C_10 
REMARK    4  A    between atoms: N_22  and  C_10 
REMARK    5  A    between atoms: C_14  and  O_24 
REMARK    6  A    between atoms: C_15  and  N_20 
REMARK    7  A    between atoms: C_19  and  C_16 
ROOT
HETATM    1  C   UNK N   1      33.942  13.944   8.847  0.00  0.00     0.113 C 
HETATM    2  C   UNK N   1      34.776  13.945   7.602  0.00  0.00    -0.024 C 
HETATM    3  C   UNK N   1      36.198  13.703  11.031  0.00  0.00     0.199 C 
HETATM    4  C   UNK N   1      36.133  14.032   7.731  0.00  0.00     0.101 C 
HETATM    5  C   UNK N   1      36.986  13.267   9.841  0.00  0.00     0.230 C 
HETATM    6  C   UNK N   1      35.994  14.984  10.104  0.00  0.00     0.164 C 
HETATM    7  N   UNK N   1      36.669  14.267   9.042  0.00  0.00    -0.195 NA
HETATM    8  O   UNK N   1      37.298  12.135   9.491  0.00  0.00    -0.277 OA
HETATM    9  S   UNK N   1      34.258  15.450   9.786  0.00  0.00    -0.141 SA
ENDROOT
BRANCH   3  10
HETATM   10  N   UNK N   1      36.842  13.967  12.297  0.00  0.00    -0.359 N 
HETATM   11  C   UNK N   1      36.152  13.940  13.394  0.00  0.00     0.116 C 
ATOM     12  HN  UNK N   1      37.841  14.174  12.329  1.00  0.00     0.162 HD
BRANCH  11  13
HETATM   13  C   UNK N   1      36.813  13.983  14.736  0.00  0.00     0.129 C 
BRANCH  13  14
HETATM   14  C   UNK N   1      36.274  13.091  15.802  0.00  0.00    -0.010 A 
HETATM   15  C   UNK N   1      35.589  13.552  16.920  0.00  0.00     0.015 A 
HETATM   16  C   UNK N   1      35.125  12.501  17.757  0.00  0.00     0.008 A 
HETATM   17  C   UNK N   1      35.443  11.217  17.292  0.00  0.00     0.050 A 
HETATM   18  S   UNK N   1      36.282  11.439  15.879  0.00  0.00    -0.106 SA
ENDBRANCH  13  14
ENDBRANCH  11  13
BRANCH  11  19
HETATM   19  O   UNK N   1      34.813  13.761  13.358  0.00  0.00    -0.349 OA
HETATM   20  H   UNK N   1      34.348  13.852  12.551  0.00  0.00     0.219 HD
ENDBRANCH  11  19
ENDBRANCH   3  10
BRANCH   4  21
HETATM   21  C   UNK N   1      37.068  13.895   6.577  0.00  0.00     0.222 C 
HETATM   22  O   UNK N   1      37.593  12.817   6.352  0.00  0.00    -0.643 OA
HETATM   23  O   UNK N   1      37.319  14.931   5.753  0.00  0.00    -0.643 OA
ENDBRANCH   4  21
BRANCH   2  24
HETATM   24  C   UNK N   1      34.036  13.790   6.294  0.00  0.00     0.164 C 
BRANCH  24  25
HETATM   25  N   UNK N   1      33.303  15.009   5.911  0.00  0.00    -0.362 N 
HETATM   26  C   UNK N   1      34.016  16.109   5.541  0.00  0.00     0.090 A 
HETATM   27  C   UNK N   1      33.361  17.282   5.148  0.00  0.00     0.017 A 
HETATM   28  C   UNK N   1      31.966  17.323   5.143  0.00  0.00     0.003 A 
HETATM   29  C   UNK N   1      31.245  16.194   5.515  0.00  0.00     0.017 A 
HETATM   30  C   UNK N   1      31.934  15.040   5.883  0.00  0.00     0.090 A 
ENDBRANCH  24  25
ENDBRANCH   2  24
TORSDOF 7
ENDMDL
MODEL 4
REMARK VINA RESULT:      -6.5      2.565      8.949
REMARK  7 active torsions:
REMARK  status: ('A' for Active; 'I' for Inactive)
REMARK    1  A    between atoms: C_13  and  C_9 
REMARK    2  A    between atoms: C_14  and  C_9 
REMARK    3  A    between atoms: C_12  and  C_10 
REMARK    4  A    between atoms: N_22  and  C_10 
REMARK    5  A    between atoms: C_14  and  O_24 
REMARK    6  A    between atoms: C_15  and  N_20 
REMARK    7  A    between atoms: C_19  and  C_16 
ROOT
HETATM    1  C   UNK N   1      36.875  13.469  12.140  0.00  0.00     0.113 C 
HETATM    2  C   UNK N   1      36.280  12.094  12.181  0.00  0.00    -0.024 C 
HETATM    3  C   UNK N   1      35.270  14.702   9.727  0.00  0.00     0.199 C 
HETATM    4  C   UNK N   1      35.196  11.834  11.393  0.00  0.00     0.101 C 
HETATM    5  C   UNK N   1      34.995  13.258   9.470  0.00  0.00     0.230 C 
HETATM    6  C   UNK N   1      34.611  14.313  11.126  0.00  0.00     0.164 C 
HETATM    7  N   UNK N   1      34.601  12.933  10.686  0.00  0.00    -0.195 NA
HETATM    8  O   UNK N   1      35.511  12.505   8.653  0.00  0.00    -0.277 OA
HETATM    9  S   UNK N   1      35.623  14.682  12.598  0.00  0.00    -0.141 SA
ENDROOT
BRANCH   3  10
HETATM   10  N   UNK N   1      34.576  15.737   8.996  0.00  0.00    -0.359 N 
HETATM   11  C   UNK N   1      34.827  16.984   9.242  0.00  0.00     0.116 C 
ATOM     12  HN  UNK N   1      33.888  15.486   8.286  1.00  0.00     0.162 HD
BRANCH  11  13
HETATM   13  C   UNK N   1      34.305  18.076   8.361  0.00  0.00     0.129 C 
BRANCH  13  14
HETATM   14  C   UNK N   1      33.313  17.704   7.313  0.00  0.00    -0.010 A 
HETATM   15  C   UNK N   1      33.637  17.525   5.973  0.00  0.00     0.015 A 
HETATM   16  C   UNK N   1      32.527  17.114   5.184  0.00  0.00     0.008 A 
HETATM   17  C   UNK N   1      31.335  16.967   5.908  0.00  0.00     0.050 A 
HETATM   18  S   UNK N   1      31.705  17.353   7.478  0.00  0.00    -0.106 SA
ENDBRANCH  13  14
ENDBRANCH  11  13
BRANCH  11  19
HETATM   19  O   UNK N   1      35.665  17.332  10.244  0.00  0.00    -0.349 OA
HETATM   20  H   UNK N   1      36.465  16.862  10.372  0.00  0.00     0.219 HD
ENDBRANCH  11  19
ENDBRANCH   3  10
BRANCH   4  21
HETATM   21  C   UNK N   1      34.612  10.470  11.241  0.00  0.00     0.222 C 
HETATM   22  O   UNK N   1      33.630  10.160  11.895  0.00  0.00    -0.643 OA
HETATM   23  O   UNK N   1      35.127   9.581  10.369  0.00  0.00    -0.643 OA
ENDBRANCH   4  21
BRANCH   2  24
HETATM   24  C   UNK N   1      36.977  11.084  13.062  0.00  0.00     0.164 C 
BRANCH  24  25
HETATM   25  N   UNK N   1      36.331  10.939  14.378  0.00  0.00    -0.362 N 
HETATM   26  C   UNK N   1      35.728   9.758  14.682  0.00  0.00     0.090 A 
HETATM   27  C   UNK N   1      35.121   9.569  15.930  0.00  0.00     0.017 A 
HETATM   28  C   UNK N   1      35.130  10.606  16.863  0.00  0.00     0.003 A 
HETATM   29  C   UNK N   1      35.755  11.807  16.548  0.00  0.00     0.017 A 
HETATM   30  C   UNK N   1      36.362  11.949  15.302  0.00  0.00     0.090 A 
ENDBRANCH  24  25
ENDBRANCH   2  24
TORSDOF 7
ENDMDL
MODEL 5
REMARK VINA RESULT:      -6.5      9.318     12.954
REMARK  7 active torsions:
REMARK  status: ('A' for Active; 'I' for Inactive)
REMARK    1  A    between atoms: C_13  and  C_9 
REMARK    2  A    between atoms: C_14  and  C_9 
REMARK    3  A    between atoms: C_12  and  C_10 
REMARK    4  A    between atoms: N_22  and  C_10 
REMARK    5  A    between atoms: C_14  and  O_24 
REMARK    6  A    between atoms: C_15  and  N_20 
REMARK    7  A    between atoms: C_19  and  C_16 
ROOT
HETATM    1  C   UNK N   1      22.781  16.918   3.443  0.00  0.00     0.113 C 
HETATM    2  C   UNK N   1      21.755  17.974   3.161  0.00  0.00    -0.024 C 
HETATM    3  C   UNK N   1      25.278  18.724   4.096  0.00  0.00     0.199 C 
HETATM    4  C   UNK N   1      22.076  19.275   3.423  0.00  0.00     0.101 C 
HETATM    5  C   UNK N   1      24.431  19.745   3.411  0.00  0.00     0.230 C 
HETATM    6  C   UNK N   1      23.978  18.640   5.015  0.00  0.00     0.164 C 
HETATM    7  N   UNK N   1      23.320  19.538   4.091  0.00  0.00    -0.195 NA
HETATM    8  O   UNK N   1      24.508  20.172   2.265  0.00  0.00    -0.277 OA
HETATM    9  S   UNK N   1      23.245  16.977   5.183  0.00  0.00    -0.141 SA
ENDROOT
BRANCH   3  10
HETATM   10  N   UNK N   1      26.488  19.100   4.788  0.00  0.00    -0.359 N 
HETATM   11  C   UNK N   1      27.279  18.186   5.254  0.00  0.00     0.116 C 
ATOM     12  HN  UNK N   1      26.720  20.086   4.910  1.00  0.00     0.162 HD
BRANCH  11  13
HETATM   13  C   UNK N   1      28.643  18.522   5.773  0.00  0.00     0.129 C 
BRANCH  13  14
HETATM   14  C   UNK N   1      28.952  18.166   7.187  0.00  0.00    -0.010 A 
HETATM   15  C   UNK N   1      28.181  18.570   8.271  0.00  0.00     0.015 A 
HETATM   16  C   UNK N   1      28.651  18.051   9.509  0.00  0.00     0.008 A 
HETATM   17  C   UNK N   1      29.787  17.237   9.393  0.00  0.00     0.050 A 
HETATM   18  S   UNK N   1      30.159  17.200   7.777  0.00  0.00    -0.106 SA
ENDBRANCH  13  14
ENDBRANCH  11  13
BRANCH  11  19
HETATM   19  O   UNK N   1      26.938  16.881   5.183  0.00  0.00    -0.349 OA
HETATM   20  H   UNK N   1      27.180  16.372   4.435  0.00  0.00     0.219 HD
ENDBRANCH  11  19
ENDBRANCH   3  10
BRANCH   4  21
HETATM   21  C   UNK N   1      21.195  20.419   3.048  0.00  0.00     0.222 C 
HETATM   22  O   UNK N   1      21.376  20.996   1.989  0.00  0.00    -0.643 OA
HETATM   23  O   UNK N   1      20.177  20.807   3.841  0.00  0.00    -0.643 OA
ENDBRANCH   4  21
BRANCH   2  24
HETATM   24  C   UNK N   1      20.456  17.505   2.549  0.00  0.00     0.164 C 
BRANCH  24  25
HETATM   25  N   UNK N   1      19.907  16.318   3.228  0.00  0.00    -0.362 N 
HETATM   26  C   UNK N   1      19.385  16.464   4.477  0.00  0.00     0.090 A 
HETATM   27  C   UNK N   1      18.832  15.368   5.149  0.00  0.00     0.017 A 
HETATM   28  C   UNK N   1      18.826  14.115   4.534  0.00  0.00     0.003 A 
HETATM   29  C   UNK N   1      19.354  13.975   3.256  0.00  0.00     0.017 A 
HETATM   30  C   UNK N   1      19.879  15.095   2.613  0.00  0.00     0.090 A 
ENDBRANCH  24  25
ENDBRANCH   2  24
TORSDOF 7
ENDMDL
MODEL 6
REMARK VINA RESULT:      -6.3      3.689      6.146
REMARK  7 active torsions:
REMARK  status: ('A' for Active; 'I' for Inactive)
REMARK    1  A    between atoms: C_13  and  C_9 
REMARK    2  A    between atoms: C_14  and  C_9 
REMARK    3  A    between atoms: C_12  and  C_10 
REMARK    4  A    between atoms: N_22  and  C_10 
REMARK    5  A    between atoms: C_14  and  O_24 
REMARK    6  A    between atoms: C_15  and  N_20 
REMARK    7  A    between atoms: C_19  and  C_16 
ROOT
HETATM    1  C   UNK N   1      30.968  17.575   4.724  0.00  0.00     0.113 C 
HETATM    2  C   UNK N   1      29.573  17.039   4.834  0.00  0.00    -0.024 C 
HETATM    3  C   UNK N   1      31.949  17.197   7.693  0.00  0.00     0.199 C 
HETATM    4  C   UNK N   1      29.206  16.421   5.995  0.00  0.00     0.101 C 
HETATM    5  C   UNK N   1      30.479  17.080   7.922  0.00  0.00     0.230 C 
HETATM    6  C   UNK N   1      31.629  15.989   6.703  0.00  0.00     0.164 C 
HETATM    7  N   UNK N   1      30.223  16.190   6.983  0.00  0.00    -0.195 NA
HETATM    8  O   UNK N   1      29.694  17.914   8.359  0.00  0.00    -0.277 OA
HETATM    9  S   UNK N   1      32.150  16.237   4.971  0.00  0.00    -0.141 SA
ENDROOT
BRANCH   3  10
HETATM   10  N   UNK N   1      32.895  16.889   8.740  0.00  0.00    -0.359 N 
HETATM   11  C   UNK N   1      34.135  17.242   8.617  0.00  0.00     0.116 C 
ATOM     12  HN  UNK N   1      32.586  16.393   9.577  1.00  0.00     0.162 HD
BRANCH  11  13
HETATM   13  C   UNK N   1      35.093  17.147   9.764  0.00  0.00     0.129 C 
BRANCH  13  14
HETATM   14  C   UNK N   1      35.376  15.793  10.319  0.00  0.00    -0.010 A 
HETATM   15  C   UNK N   1      34.603  15.184  11.301  0.00  0.00     0.015 A 
HETATM   16  C   UNK N   1      35.044  13.870  11.618  0.00  0.00     0.008 A 
HETATM   17  C   UNK N   1      36.159  13.448  10.879  0.00  0.00     0.050 A 
HETATM   18  S   UNK N   1      36.549  14.712   9.879  0.00  0.00    -0.106 SA
ENDBRANCH  13  14
ENDBRANCH  11  13
BRANCH  11  19
HETATM   19  O   UNK N   1      34.577  17.814   7.476  0.00  0.00    -0.349 OA
HETATM   20  H   UNK N   1      33.968  18.187   6.871  0.00  0.00     0.219 HD
ENDBRANCH  11  19
ENDBRANCH   3  10
BRANCH   4  21
HETATM   21  C   UNK N   1      27.808  15.980   6.273  0.00  0.00     0.222 C 
HETATM   22  O   UNK N   1      27.069  16.699   6.926  0.00  0.00    -0.643 OA
HETATM   23  O   UNK N   1      27.331  14.818   5.787  0.00  0.00    -0.643 OA
ENDBRANCH   4  21
BRANCH   2  24
HETATM   24  C   UNK N   1      28.661  17.282   3.654  0.00  0.00     0.164 C 
BRANCH  24  25
HETATM   25  N   UNK N   1      27.627  18.292   3.937  0.00  0.00    -0.362 N 
HETATM   26  C   UNK N   1      28.009  19.484   4.473  0.00  0.00     0.090 A 
HETATM   27  C   UNK N   1      27.062  20.481   4.738  0.00  0.00     0.017 A 
HETATM   28  C   UNK N   1      25.715  20.244   4.456  0.00  0.00     0.003 A 
HETATM   29  C   UNK N   1      25.334  19.027   3.903  0.00  0.00     0.017 A 
HETATM   30  C   UNK N   1      26.309  18.067   3.638  0.00  0.00     0.090 A 
ENDBRANCH  24  25
ENDBRANCH   2  24
TORSDOF 7
ENDMDL
MODEL 7
REMARK VINA RESULT:      -6.3     16.279     19.192
REMARK  7 active torsions:
REMARK  status: ('A' for Active; 'I' for Inactive)
REMARK    1  A    between atoms: C_13  and  C_9 
REMARK    2  A    between atoms: C_14  and  C_9 
REMARK    3  A    between atoms: C_12  and  C_10 
REMARK    4  A    between atoms: N_22  and  C_10 
REMARK    5  A    between atoms: C_14  and  O_24 
REMARK    6  A    between atoms: C_15  and  N_20 
REMARK    7  A    between atoms: C_19  and  C_16 
ROOT
HETATM    1  C   UNK N   1      29.819  24.108  -5.898  0.00  0.00     0.113 C 
HETATM    2  C   UNK N   1      29.426  24.164  -4.453  0.00  0.00    -0.024 C 
HETATM    3  C   UNK N   1      31.340  21.351  -5.959  0.00  0.00     0.199 C 
HETATM    4  C   UNK N   1      29.629  23.055  -3.683  0.00  0.00     0.101 C 
HETATM    5  C   UNK N   1      31.351  21.586  -4.485  0.00  0.00     0.230 C 
HETATM    6  C   UNK N   1      29.772  21.495  -5.709  0.00  0.00     0.164 C 
HETATM    7  N   UNK N   1      30.069  21.855  -4.338  0.00  0.00    -0.195 NA
HETATM    8  O   UNK N   1      32.261  21.994  -3.772  0.00  0.00    -0.277 OA
HETATM    9  S   UNK N   1      28.933  22.767  -6.713  0.00  0.00    -0.141 SA
ENDROOT
BRANCH   3  10
HETATM   10  N   UNK N   1      31.752  20.084  -6.517  0.00  0.00    -0.359 N 
HETATM   11  C   UNK N   1      31.936  19.968  -7.794  0.00  0.00     0.116 C 
ATOM     12  HN  UNK N   1      31.899  19.281  -5.905  1.00  0.00     0.162 HD
BRANCH  11  13
HETATM   13  C   UNK N   1      32.575  18.750  -8.385  0.00  0.00     0.129 C 
BRANCH  13  14
HETATM   14  C   UNK N   1      32.026  18.234  -9.671  0.00  0.00    -0.010 A 
HETATM   15  C   UNK N   1      30.794  17.600  -9.784  0.00  0.00     0.015 A 
HETATM   16  C   UNK N   1      30.471  17.254 -11.125  0.00  0.00     0.008 A 
HETATM   17  C   UNK N   1      31.446  17.624 -12.062  0.00  0.00     0.050 A 
HETATM   18  S   UNK N   1      32.659  18.350 -11.195  0.00  0.00    -0.106 SA
ENDBRANCH  13  14
ENDBRANCH  11  13
BRANCH  11  19
HETATM   19  O   UNK N   1      31.654  20.995  -8.625  0.00  0.00    -0.349 OA
HETATM   20  H   UNK N   1      31.884  20.943  -9.532  0.00  0.00     0.219 HD
ENDBRANCH  11  19
ENDBRANCH   3  10
BRANCH   4  21
HETATM   21  C   UNK N   1      29.414  23.041  -2.207  0.00  0.00     0.222 C 
HETATM   22  O   UNK N   1      30.373  23.135  -1.458  0.00  0.00    -0.643 OA
HETATM   23  O   UNK N   1      28.177  22.963  -1.681  0.00  0.00    -0.643 OA
ENDBRANCH   4  21
BRANCH   2  24
HETATM   24  C   UNK N   1      28.883  25.482  -3.952  0.00  0.00     0.164 C 
BRANCH  24  25
HETATM   25  N   UNK N   1      27.635  25.874  -4.629  0.00  0.00    -0.362 N 
HETATM   26  C   UNK N   1      27.587  27.078  -5.262  0.00  0.00     0.090 A 
HETATM   27  C   UNK N   1      26.428  27.481  -5.938  0.00  0.00     0.017 A 
HETATM   28  C   UNK N   1      25.313  26.642  -5.952  0.00  0.00     0.003 A 
HETATM   29  C   UNK N   1      25.372  25.411  -5.309  0.00  0.00     0.017 A 
HETATM   30  C   UNK N   1      26.549  25.039  -4.663  0.00  0.00     0.090 A 
ENDBRANCH  24  25
ENDBRANCH   2  24
TORSDOF 7
ENDMDL
MODEL 8
REMARK VINA RESULT:      -6.2      3.358      5.684
REMARK  7 active torsions:
REMARK  status: ('A' for Active; 'I' for Inactive)
REMARK    1  A    between atoms: C_13  and  C_9 
REMARK    2  A    between atoms: C_14  and  C_9 
REMARK    3  A    between atoms: C_12  and  C_10 
REMARK    4  A    between atoms: N_22  and  C_10 
REMARK    5  A    between atoms: C_14  and  O_24 
REMARK    6  A    between atoms: C_15  and  N_20 
REMARK    7  A    between atoms: C_19  and  C_16 
ROOT
HETATM    1  C   UNK N   1      31.084  17.331   4.828  0.00  0.00     0.113 C 
HETATM    2  C   UNK N   1      29.762  17.598   5.481  0.00  0.00    -0.024 C 
HETATM    3  C   UNK N   1      32.692  16.172   7.275  0.00  0.00     0.199 C 
HETATM    4  C   UNK N   1      29.563  17.142   6.752  0.00  0.00     0.101 C 
HETATM    5  C   UNK N   1      31.575  16.820   8.023  0.00  0.00     0.230 C 
HETATM    6  C   UNK N   1      31.459  15.428   6.591  0.00  0.00     0.164 C 
HETATM    7  N   UNK N   1      30.577  16.306   7.331  0.00  0.00    -0.195 NA
HETATM    8  O   UNK N   1      31.563  17.888   8.624  0.00  0.00    -0.277 OA
HETATM    9  S   UNK N   1      31.381  15.554   4.772  0.00  0.00    -0.141 SA
ENDROOT
BRANCH   3  10
HETATM   10  N   UNK N   1      33.632  15.300   7.942  0.00  0.00    -0.359 N 
HETATM   11  C   UNK N   1      34.853  15.218   7.518  0.00  0.00     0.116 C 
ATOM     12  HN  UNK N   1      33.333  14.750   8.748  1.00  0.00     0.162 HD
BRANCH  11  13
HETATM   13  C   UNK N   1      35.909  14.510   8.308  0.00  0.00     0.129 C 
BRANCH  13  14
HETATM   14  C   UNK N   1      35.786  14.521   9.794  0.00  0.00    -0.010 A 
HETATM   15  C   UNK N   1      36.107  15.617  10.587  0.00  0.00     0.015 A 
HETATM   16  C   UNK N   1      35.847  15.397  11.967  0.00  0.00     0.008 A 
HETATM   17  C   UNK N   1      35.317  14.130  12.254  0.00  0.00     0.050 A 
HETATM   18  S   UNK N   1      35.201  13.344  10.798  0.00  0.00    -0.106 SA
ENDBRANCH  13  14
ENDBRANCH  11  13
BRANCH  11  19
HETATM   19  O   UNK N   1      35.237  15.867   6.397  0.00  0.00    -0.349 OA
HETATM   20  H   UNK N   1      36.065  16.303   6.367  0.00  0.00     0.219 HD
ENDBRANCH  11  19
ENDBRANCH   3  10
BRANCH   4  21
HETATM   21  C   UNK N   1      28.349  17.474   7.552  0.00  0.00     0.222 C 
HETATM   22  O   UNK N   1      27.399  16.708   7.549  0.00  0.00    -0.643 OA
HETATM   23  O   UNK N   1      28.291  18.587   8.308  0.00  0.00    -0.643 OA
ENDBRANCH   4  21
BRANCH   2  24
HETATM   24  C   UNK N   1      28.769  18.412   4.684  0.00  0.00     0.164 C 
BRANCH  24  25
HETATM   25  N   UNK N   1      27.731  17.577   4.054  0.00  0.00    -0.362 N 
HETATM   26  C   UNK N   1      26.424  17.910   4.242  0.00  0.00     0.090 A 
HETATM   27  C   UNK N   1      25.406  17.158   3.643  0.00  0.00     0.017 A 
HETATM   28  C   UNK N   1      25.737  16.055   2.855  0.00  0.00     0.003 A 
HETATM   29  C   UNK N   1      27.074  15.726   2.661  0.00  0.00     0.017 A 
HETATM   30  C   UNK N   1      28.058  16.510   3.260  0.00  0.00     0.090 A 
ENDBRANCH  24  25
ENDBRANCH   2  24
TORSDOF 7
ENDMDL
MODEL 9
REMARK VINA RESULT:      -6.2     10.094     13.961
REMARK  7 active torsions:
REMARK  status: ('A' for Active; 'I' for Inactive)
REMARK    1  A    between atoms: C_13  and  C_9 
REMARK    2  A    between atoms: C_14  and  C_9 
REMARK    3  A    between atoms: C_12  and  C_10 
REMARK    4  A    between atoms: N_22  and  C_10 
REMARK    5  A    between atoms: C_14  and  O_24 
REMARK    6  A    between atoms: C_15  and  N_20 
REMARK    7  A    between atoms: C_19  and  C_16 
ROOT
HETATM    1  C   UNK N   1      21.406  16.229   3.236  0.00  0.00     0.113 C 
HETATM    2  C   UNK N   1      20.543  15.594   4.284  0.00  0.00    -0.024 C 
HETATM    3  C   UNK N   1      23.380  17.873   5.058  0.00  0.00     0.199 C 
HETATM    4  C   UNK N   1      20.914  15.719   5.592  0.00  0.00     0.101 C 
HETATM    5  C   UNK N   1      22.301  17.623   6.058  0.00  0.00     0.230 C 
HETATM    6  C   UNK N   1      23.342  16.280   5.002  0.00  0.00     0.164 C 
HETATM    7  N   UNK N   1      22.186  16.322   5.874  0.00  0.00    -0.195 NA
HETATM    8  O   UNK N   1      21.419  18.377   6.451  0.00  0.00    -0.277 OA
HETATM    9  S   UNK N   1      23.077  15.561   3.346  0.00  0.00    -0.141 SA
ENDROOT
BRANCH   3  10
HETATM   10  N   UNK N   1      24.650  18.436   5.453  0.00  0.00    -0.359 N 
HETATM   11  C   UNK N   1      25.213  19.345   4.720  0.00  0.00     0.116 C 
ATOM     12  HN  UNK N   1      25.104  18.119   6.310  1.00  0.00     0.162 HD
BRANCH  11  13
HETATM   13  C   UNK N   1      26.404  20.111   5.203  0.00  0.00     0.129 C 
BRANCH  13  14
HETATM   14  C   UNK N   1      27.450  19.363   5.957  0.00  0.00    -0.010 A 
HETATM   15  C   UNK N   1      27.737  19.580   7.300  0.00  0.00     0.015 A 
HETATM   16  C   UNK N   1      28.733  18.699   7.803  0.00  0.00     0.008 A 
HETATM   17  C   UNK N   1      29.222  17.788   6.855  0.00  0.00     0.050 A 
HETATM   18  S   UNK N   1      28.409  18.116   5.447  0.00  0.00    -0.106 SA
ENDBRANCH  13  14
ENDBRANCH  11  13
BRANCH  11  19
HETATM   19  O   UNK N   1      24.670  19.706   3.537  0.00  0.00    -0.349 OA
HETATM   20  H   UNK N   1      24.688  20.602   3.266  0.00  0.00     0.219 HD
ENDBRANCH  11  19
ENDBRANCH   3  10
BRANCH   4  21
HETATM   21  C   UNK N   1      20.060  15.258   6.725  0.00  0.00     0.222 C 
HETATM   22  O   UNK N   1      19.210  16.004   7.180  0.00  0.00    -0.643 OA
HETATM   23  O   UNK N   1      20.185  14.017   7.235  0.00  0.00    -0.643 OA
ENDBRANCH   4  21
BRANCH   2  24
HETATM   24  C   UNK N   1      19.286  14.910   3.799  0.00  0.00     0.164 C 
BRANCH  24  25
HETATM   25  N   UNK N   1      19.549  13.943   2.718  0.00  0.00    -0.362 N 
HETATM   26  C   UNK N   1      20.273  12.826   3.005  0.00  0.00     0.090 A 
HETATM   27  C   UNK N   1      20.528  11.870   2.014  0.00  0.00     0.017 A 
HETATM   28  C   UNK N   1      20.042  12.072   0.721  0.00  0.00     0.003 A 
HETATM   29  C   UNK N   1      19.298  13.212   0.438  0.00  0.00     0.017 A 
HETATM   30  C   UNK N   1      19.051  14.131   1.456  0.00  0.00     0.090 A 
ENDBRANCH  24  25
ENDBRANCH   2  24
TORSDOF 7
ENDMDL
