MODEL 1
REMARK VINA RESULT:      -8.5      0.000      0.000
REMARK  7 active torsions:
REMARK  status: ('A' for Active; 'I' for Inactive)
REMARK    1  A    between atoms: C_6  and  C_9 
REMARK    2  A    between atoms: C_12  and  C_16 
REMARK    3  A    between atoms: C_19  and  N_23 
REMARK    4  A    between atoms: C_25  and  C_26 
REMARK    5  A    between atoms: C_26  and  O_27 
REMARK    6  A    between atoms: O_27  and  P_28 
REMARK    7  A    between atoms: P_28  and  O_31 
ROOT
HETATM    1  P   UNK N   1      35.914  13.807  12.423  0.00  0.00     0.390 P 
HETATM    2  O   UNK N   1      36.261  14.652  13.677  0.00  0.00    -0.632 OA
HETATM    3  O   UNK N   1      37.257  13.924  11.332  0.00  0.00    -0.307 OA
HETATM    4  H   UNK N   1      37.958  13.872  10.663  0.00  0.00     0.222 HD
ENDROOT
BRANCH   1   5
HETATM    5  O   UNK N   1      34.478  14.494  11.705  0.00  0.00    -0.294 OA
BRANCH   5   6
HETATM    6  C   UNK N   1      34.855  15.743  11.207  0.00  0.00     0.214 C 
BRANCH   6   7
HETATM    7  C   UNK N   1      34.960  15.714   9.689  0.00  0.00     0.176 A 
HETATM    8  C   UNK N   1      33.532  15.500   9.129  0.00  0.00     0.169 A 
HETATM    9  N   UNK N   1      33.290  16.725   8.426  0.00  0.00    -0.291 N 
HETATM   10  C   UNK N   1      34.378  17.499   8.493  0.00  0.00     0.368 A 
HETATM   11  O   UNK N   1      35.356  16.953   9.211  0.00  0.00    -0.294 OA
HETATM   12  O   UNK N   1      34.473  18.597   7.967  0.00  0.00    -0.238 OA
BRANCH   9  13
HETATM   13  C   UNK N   1      32.053  17.026   7.782  0.00  0.00     0.042 A 
HETATM   14  C   UNK N   1      31.863  16.668   6.441  0.00  0.00     0.031 A 
HETATM   15  C   UNK N   1      30.670  16.973   5.789  0.00  0.00     0.017 A 
HETATM   16  C   UNK N   1      29.633  17.635   6.464  0.00  0.00     0.014 A 
HETATM   17  C   UNK N   1      29.815  17.970   7.827  0.00  0.00     0.129 A 
HETATM   18  C   UNK N   1      31.016  17.667   8.467  0.00  0.00     0.073 A 
HETATM   19  F   UNK N   1      28.853  18.608   8.539  0.00  0.00    -0.205 F 
BRANCH  16  20
HETATM   20  C   UNK N   1      28.410  18.021   5.710  0.00  0.00    -0.007 A 
HETATM   21  C   UNK N   1      28.454  19.055   4.761  0.00  0.00     0.016 A 
HETATM   22  C   UNK N   1      27.281  19.495   4.149  0.00  0.00     0.034 A 
HETATM   23  C   UNK N   1      26.064  18.901   4.495  0.00  0.00     0.079 A 
HETATM   24  N   UNK N   1      26.040  17.882   5.394  0.00  0.00    -0.362 N 
HETATM   25  C   UNK N   1      27.170  17.436   5.997  0.00  0.00     0.100 A 
ATOM     26  HN  UNK N   1      25.148  17.441   5.623  1.00  0.00     0.165 HD
BRANCH  23  27
HETATM   27  C   UNK N   1      24.803  19.411   3.951  0.00  0.00     0.161 A 
HETATM   28  N   UNK N   1      24.656  20.572   3.283  0.00  0.00    -0.265 N 
HETATM   29  N   UNK N   1      23.359  20.674   3.029  0.00  0.00    -0.003 NA
ATOM     30  HN  UNK N   1      25.388  21.234   3.026  1.00  0.00     0.186 HD
HETATM   31  N   UNK N   1      22.746  19.616   3.528  0.00  0.00    -0.221 N 
HETATM   32  C   UNK N   1      21.315  19.381   3.464  0.00  0.00     0.197 C 
HETATM   33  N   UNK N   1      23.611  18.807   4.111  0.00  0.00    -0.268 N 
ATOM     34  HN  UNK N   1      23.418  17.921   4.578  1.00  0.00     0.190 HD
ENDBRANCH  23  27
ENDBRANCH  16  20
ENDBRANCH   9  13
ENDBRANCH   6   7
ENDBRANCH   5   6
ENDBRANCH   1   5
BRANCH   1  35
HETATM   35  O   UNK N   1      35.685  12.168  12.961  0.00  0.00    -0.307 OA
HETATM   36  H   UNK N   1      36.194  11.432  12.585  0.00  0.00     0.222 HD
ENDBRANCH   1  35
TORSDOF 7
ENDMDL
MODEL 2
REMARK VINA RESULT:      -8.3      7.888     11.886
REMARK  7 active torsions:
REMARK  status: ('A' for Active; 'I' for Inactive)
REMARK    1  A    between atoms: C_6  and  C_9 
REMARK    2  A    between atoms: C_12  and  C_16 
REMARK    3  A    between atoms: C_19  and  N_23 
REMARK    4  A    between atoms: C_25  and  C_26 
REMARK    5  A    between atoms: C_26  and  O_27 
REMARK    6  A    between atoms: O_27  and  P_28 
REMARK    7  A    between atoms: P_28  and  O_31 
ROOT
HETATM    1  P   UNK N   1      20.572  16.144   1.346  0.00  0.00     0.390 P 
HETATM    2  O   UNK N   1      20.199  16.962   0.082  0.00  0.00    -0.632 OA
HETATM    3  O   UNK N   1      19.158  15.264   1.828  0.00  0.00    -0.307 OA
HETATM    4  H   UNK N   1      18.455  14.687   2.168  0.00  0.00     0.222 HD
ENDROOT
BRANCH   1   5
HETATM    5  O   UNK N   1      21.044  17.277   2.588  0.00  0.00    -0.294 OA
BRANCH   5   6
HETATM    6  C   UNK N   1      20.909  18.548   2.023  0.00  0.00     0.214 C 
BRANCH   6   7
HETATM    7  C   UNK N   1      21.392  19.624   2.984  0.00  0.00     0.176 A 
HETATM    8  C   UNK N   1      22.352  18.949   3.994  0.00  0.00     0.169 A 
HETATM    9  N   UNK N   1      23.603  19.582   3.702  0.00  0.00    -0.291 N 
HETATM   10  C   UNK N   1      23.424  20.502   2.749  0.00  0.00     0.368 A 
HETATM   11  O   UNK N   1      22.168  20.555   2.311  0.00  0.00    -0.294 OA
HETATM   12  O   UNK N   1      24.311  21.218   2.310  0.00  0.00    -0.238 OA
BRANCH   9  13
HETATM   13  C   UNK N   1      24.826  19.234   4.349  0.00  0.00     0.042 A 
HETATM   14  C   UNK N   1      25.206  17.889   4.441  0.00  0.00     0.031 A 
HETATM   15  C   UNK N   1      26.386  17.530   5.088  0.00  0.00     0.017 A 
HETATM   16  C   UNK N   1      27.220  18.506   5.653  0.00  0.00     0.014 A 
HETATM   17  C   UNK N   1      26.850  19.867   5.534  0.00  0.00     0.129 A 
HETATM   18  C   UNK N   1      25.663  20.215   4.890  0.00  0.00     0.073 A 
HETATM   19  F   UNK N   1      27.612  20.860   6.055  0.00  0.00    -0.205 F 
BRANCH  16  20
HETATM   20  C   UNK N   1      28.425  18.076   6.412  0.00  0.00    -0.007 A 
HETATM   21  C   UNK N   1      28.562  18.394   7.773  0.00  0.00     0.016 A 
HETATM   22  C   UNK N   1      29.747  18.098   8.447  0.00  0.00     0.034 A 
HETATM   23  C   UNK N   1      30.796  17.489   7.751  0.00  0.00     0.079 A 
HETATM   24  N   UNK N   1      30.640  17.163   6.441  0.00  0.00    -0.362 N 
HETATM   25  C   UNK N   1      29.494  17.437   5.769  0.00  0.00     0.100 A 
ATOM     26  HN  UNK N   1      31.405  16.699   5.950  1.00  0.00     0.165 HD
BRANCH  23  27
HETATM   27  C   UNK N   1      32.089  17.262   8.400  0.00  0.00     0.161 A 
HETATM   28  N   UNK N   1      33.145  18.098   8.345  0.00  0.00    -0.265 N 
HETATM   29  N   UNK N   1      34.116  17.486   9.008  0.00  0.00    -0.003 NA
ATOM     30  HN  UNK N   1      33.189  19.010   7.889  1.00  0.00     0.186 HD
HETATM   31  N   UNK N   1      33.665  16.325   9.444  0.00  0.00    -0.221 N 
HETATM   32  C   UNK N   1      34.448  15.362  10.197  0.00  0.00     0.197 C 
HETATM   33  N   UNK N   1      32.407  16.148   9.084  0.00  0.00    -0.268 N 
ATOM     34  HN  UNK N   1      31.810  15.345   9.281  1.00  0.00     0.190 HD
ENDBRANCH  23  27
ENDBRANCH  16  20
ENDBRANCH   9  13
ENDBRANCH   6   7
ENDBRANCH   5   6
ENDBRANCH   1   5
BRANCH   1  35
HETATM   35  O   UNK N   1      21.858  15.064   0.891  0.00  0.00    -0.307 OA
HETATM   36  H   UNK N   1      21.681  14.155   0.600  0.00  0.00     0.222 HD
ENDBRANCH   1  35
TORSDOF 7
ENDMDL
MODEL 3
REMARK VINA RESULT:      -8.2      8.915     14.483
REMARK  7 active torsions:
REMARK  status: ('A' for Active; 'I' for Inactive)
REMARK    1  A    between atoms: C_6  and  C_9 
REMARK    2  A    between atoms: C_12  and  C_16 
REMARK    3  A    between atoms: C_19  and  N_23 
REMARK    4  A    between atoms: C_25  and  C_26 
REMARK    5  A    between atoms: C_26  and  O_27 
REMARK    6  A    between atoms: O_27  and  P_28 
REMARK    7  A    between atoms: P_28  and  O_31 
ROOT
HETATM    1  P   UNK N   1      34.201  17.775   8.312  0.00  0.00     0.390 P 
HETATM    2  O   UNK N   1      34.740  16.941   7.121  0.00  0.00    -0.632 OA
HETATM    3  O   UNK N   1      35.235  19.156   8.487  0.00  0.00    -0.307 OA
HETATM    4  H   UNK N   1      35.706  19.988   8.655  0.00  0.00     0.222 HD
ENDROOT
BRANCH   1   5
HETATM    5  O   UNK N   1      34.275  16.768   9.738  0.00  0.00    -0.294 OA
BRANCH   5   6
HETATM    6  C   UNK N   1      35.128  15.709   9.418  0.00  0.00     0.214 C 
BRANCH   6   7
HETATM    7  C   UNK N   1      36.329  15.677  10.353  0.00  0.00     0.176 A 
HETATM    8  C   UNK N   1      35.788  15.568  11.800  0.00  0.00     0.169 A 
HETATM    9  N   UNK N   1      36.271  14.283  12.212  0.00  0.00    -0.291 N 
HETATM   10  C   UNK N   1      37.009  13.750  11.234  0.00  0.00     0.368 A 
HETATM   11  O   UNK N   1      37.064  14.520  10.150  0.00  0.00    -0.294 OA
HETATM   12  O   UNK N   1      37.569  12.667  11.309  0.00  0.00    -0.238 OA
BRANCH   9  13
HETATM   13  C   UNK N   1      35.968  13.704  13.480  0.00  0.00     0.042 A 
HETATM   14  C   UNK N   1      36.728  14.054  14.604  0.00  0.00     0.031 A 
HETATM   15  C   UNK N   1      36.460  13.483  15.846  0.00  0.00     0.017 A 
HETATM   16  C   UNK N   1      35.420  12.554  15.998  0.00  0.00     0.014 A 
HETATM   17  C   UNK N   1      34.633  12.224  14.869  0.00  0.00     0.129 A 
HETATM   18  C   UNK N   1      34.915  12.796  13.629  0.00  0.00     0.073 A 
HETATM   19  F   UNK N   1      33.612  11.336  14.947  0.00  0.00    -0.205 F 
BRANCH  16  20
HETATM   20  C   UNK N   1      35.222  11.901  17.320  0.00  0.00    -0.007 A 
HETATM   21  C   UNK N   1      35.145  12.671  18.492  0.00  0.00     0.016 A 
HETATM   22  C   UNK N   1      35.084  12.048  19.739  0.00  0.00     0.034 A 
HETATM   23  C   UNK N   1      35.108  10.652  19.808  0.00  0.00     0.079 A 
HETATM   24  N   UNK N   1      35.155   9.919  18.664  0.00  0.00    -0.362 N 
HETATM   25  C   UNK N   1      35.209  10.505  17.442  0.00  0.00     0.100 A 
ATOM     26  HN  UNK N   1      35.149   8.900  18.726  1.00  0.00     0.165 HD
BRANCH  23  27
HETATM   27  C   UNK N   1      35.153   9.970  21.103  0.00  0.00     0.161 A 
HETATM   28  N   UNK N   1      35.851   8.847  21.368  0.00  0.00    -0.265 N 
HETATM   29  N   UNK N   1      35.565   8.541  22.625  0.00  0.00    -0.003 NA
ATOM     30  HN  UNK N   1      36.469   8.340  20.734  1.00  0.00     0.186 HD
HETATM   31  N   UNK N   1      34.725   9.441  23.100  0.00  0.00    -0.221 N 
HETATM   32  C   UNK N   1      34.168   9.429  24.440  0.00  0.00     0.197 C 
HETATM   33  N   UNK N   1      34.443  10.347  22.182  0.00  0.00    -0.268 N 
ATOM     34  HN  UNK N   1      33.824  11.153  22.271  1.00  0.00     0.190 HD
ENDBRANCH  23  27
ENDBRANCH  16  20
ENDBRANCH   9  13
ENDBRANCH   6   7
ENDBRANCH   5   6
ENDBRANCH   1   5
BRANCH   1  35
HETATM   35  O   UNK N   1      32.579  18.254   7.905  0.00  0.00    -0.307 OA
HETATM   36  H   UNK N   1      32.399  18.901   7.204  0.00  0.00     0.222 HD
ENDBRANCH   1  35
TORSDOF 7
ENDMDL
MODEL 4
REMARK VINA RESULT:      -8.1      2.086      2.775
REMARK  7 active torsions:
REMARK  status: ('A' for Active; 'I' for Inactive)
REMARK    1  A    between atoms: C_6  and  C_9 
REMARK    2  A    between atoms: C_12  and  C_16 
REMARK    3  A    between atoms: C_19  and  N_23 
REMARK    4  A    between atoms: C_25  and  C_26 
REMARK    5  A    between atoms: C_26  and  O_27 
REMARK    6  A    between atoms: O_27  and  P_28 
REMARK    7  A    between atoms: P_28  and  O_31 
ROOT
HETATM    1  P   UNK N   1      33.392  14.881  10.181  0.00  0.00     0.390 P 
HETATM    2  O   UNK N   1      34.100  16.213   9.818  0.00  0.00    -0.632 OA
HETATM    3  O   UNK N   1      34.177  14.246  11.592  0.00  0.00    -0.307 OA
HETATM    4  H   UNK N   1      34.499  13.816  12.400  0.00  0.00     0.222 HD
ENDROOT
BRANCH   1   5
HETATM    5  O   UNK N   1      33.587  13.793   8.828  0.00  0.00    -0.294 OA
BRANCH   5   6
HETATM    6  C   UNK N   1      34.862  14.042   8.314  0.00  0.00     0.214 C 
BRANCH   6   7
HETATM    7  C   UNK N   1      34.786  14.468   6.855  0.00  0.00     0.176 A 
HETATM    8  C   UNK N   1      33.289  14.516   6.463  0.00  0.00     0.169 A 
HETATM    9  N   UNK N   1      33.086  15.908   6.190  0.00  0.00    -0.291 N 
HETATM   10  C   UNK N   1      34.244  16.561   6.328  0.00  0.00     0.368 A 
HETATM   11  O   UNK N   1      35.242  15.768   6.710  0.00  0.00    -0.294 OA
HETATM   12  O   UNK N   1      34.383  17.759   6.137  0.00  0.00    -0.238 OA
BRANCH   9  13
HETATM   13  C   UNK N   1      31.818  16.460   5.842  0.00  0.00     0.042 A 
HETATM   14  C   UNK N   1      31.007  17.021   6.838  0.00  0.00     0.031 A 
HETATM   15  C   UNK N   1      29.757  17.547   6.520  0.00  0.00     0.017 A 
HETATM   16  C   UNK N   1      29.288  17.532   5.198  0.00  0.00     0.014 A 
HETATM   17  C   UNK N   1      30.120  16.992   4.188  0.00  0.00     0.129 A 
HETATM   18  C   UNK N   1      31.367  16.463   4.518  0.00  0.00     0.073 A 
HETATM   19  F   UNK N   1      29.729  16.950   2.890  0.00  0.00    -0.205 F 
BRANCH  16  20
HETATM   20  C   UNK N   1      27.912  18.022   4.913  0.00  0.00    -0.007 A 
HETATM   21  C   UNK N   1      26.922  17.138   4.455  0.00  0.00     0.016 A 
HETATM   22  C   UNK N   1      25.671  17.624   4.071  0.00  0.00     0.034 A 
HETATM   23  C   UNK N   1      25.420  18.997   4.142  0.00  0.00     0.079 A 
HETATM   24  N   UNK N   1      26.379  19.838   4.613  0.00  0.00    -0.362 N 
HETATM   25  C   UNK N   1      27.599  19.384   4.996  0.00  0.00     0.100 A 
ATOM     26  HN  UNK N   1      26.176  20.836   4.681  1.00  0.00     0.165 HD
BRANCH  23  27
HETATM   27  C   UNK N   1      24.158  19.551   3.647  0.00  0.00     0.161 A 
HETATM   28  N   UNK N   1      24.015  20.749   3.044  0.00  0.00    -0.265 N 
HETATM   29  N   UNK N   1      22.716  20.880   2.818  0.00  0.00    -0.003 NA
ATOM     30  HN  UNK N   1      24.753  21.414   2.811  1.00  0.00     0.186 HD
HETATM   31  N   UNK N   1      22.097  19.805   3.270  0.00  0.00    -0.221 N 
HETATM   32  C   UNK N   1      20.663  19.592   3.219  0.00  0.00     0.197 C 
HETATM   33  N   UNK N   1      22.960  18.955   3.795  0.00  0.00    -0.268 N 
ATOM     34  HN  UNK N   1      22.763  18.048   4.218  1.00  0.00     0.190 HD
ENDBRANCH  23  27
ENDBRANCH  16  20
ENDBRANCH   9  13
ENDBRANCH   6   7
ENDBRANCH   5   6
ENDBRANCH   1   5
BRANCH   1  35
HETATM   35  O   UNK N   1      31.727  15.263  10.510  0.00  0.00    -0.307 OA
HETATM   36  H   UNK N   1      31.475  15.877  11.217  0.00  0.00     0.222 HD
ENDBRANCH   1  35
TORSDOF 7
ENDMDL
MODEL 5
REMARK VINA RESULT:      -7.8      7.607     11.844
REMARK  7 active torsions:
REMARK  status: ('A' for Active; 'I' for Inactive)
REMARK    1  A    between atoms: C_6  and  C_9 
REMARK    2  A    between atoms: C_12  and  C_16 
REMARK    3  A    between atoms: C_19  and  N_23 
REMARK    4  A    between atoms: C_25  and  C_26 
REMARK    5  A    between atoms: C_26  and  O_27 
REMARK    6  A    between atoms: O_27  and  P_28 
REMARK    7  A    between atoms: P_28  and  O_31 
ROOT
HETATM    1  P   UNK N   1      20.867  19.881   2.417  0.00  0.00     0.390 P 
HETATM    2  O   UNK N   1      22.357  19.655   2.786  0.00  0.00    -0.632 OA
HETATM    3  O   UNK N   1      20.346  21.322   3.229  0.00  0.00    -0.307 OA
HETATM    4  H   UNK N   1      19.951  22.133   3.588  0.00  0.00     0.222 HD
ENDROOT
BRANCH   1   5
HETATM    5  O   UNK N   1      19.966  18.496   2.985  0.00  0.00    -0.294 OA
BRANCH   5   6
HETATM    6  C   UNK N   1      20.656  17.372   2.524  0.00  0.00     0.214 C 
BRANCH   6   7
HETATM    7  C   UNK N   1      21.076  16.479   3.682  0.00  0.00     0.176 A 
HETATM    8  C   UNK N   1      22.612  16.300   3.596  0.00  0.00     0.169 A 
HETATM    9  N   UNK N   1      23.065  16.941   4.794  0.00  0.00    -0.291 N 
HETATM   10  C   UNK N   1      22.010  17.368   5.497  0.00  0.00     0.368 A 
HETATM   11  O   UNK N   1      20.852  17.122   4.890  0.00  0.00    -0.294 OA
HETATM   12  O   UNK N   1      22.088  17.934   6.576  0.00  0.00    -0.238 OA
BRANCH   9  13
HETATM   13  C   UNK N   1      24.443  17.087   5.130  0.00  0.00     0.042 A 
HETATM   14  C   UNK N   1      25.114  16.044   5.783  0.00  0.00     0.031 A 
HETATM   15  C   UNK N   1      26.454  16.177   6.138  0.00  0.00     0.017 A 
HETATM   16  C   UNK N   1      27.161  17.352   5.842  0.00  0.00     0.014 A 
HETATM   17  C   UNK N   1      26.492  18.393   5.156  0.00  0.00     0.129 A 
HETATM   18  C   UNK N   1      25.148  18.253   4.812  0.00  0.00     0.073 A 
HETATM   19  F   UNK N   1      27.117  19.553   4.837  0.00  0.00    -0.205 F 
BRANCH  16  20
HETATM   20  C   UNK N   1      28.565  17.489   6.315  0.00  0.00    -0.007 A 
HETATM   21  C   UNK N   1      29.636  17.122   5.485  0.00  0.00     0.016 A 
HETATM   22  C   UNK N   1      30.942  17.135   5.977  0.00  0.00     0.034 A 
HETATM   23  C   UNK N   1      31.169  17.512   7.304  0.00  0.00     0.079 A 
HETATM   24  N   UNK N   1      30.125  17.891   8.088  0.00  0.00    -0.362 N 
HETATM   25  C   UNK N   1      28.850  17.890   7.627  0.00  0.00     0.100 A 
ATOM     26  HN  UNK N   1      30.306  18.185   9.049  1.00  0.00     0.165 HD
BRANCH  23  27
HETATM   27  C   UNK N   1      32.512  17.434   7.882  0.00  0.00     0.161 A 
HETATM   28  N   UNK N   1      33.650  17.811   7.263  0.00  0.00    -0.265 N 
HETATM   29  N   UNK N   1      34.627  17.516   8.108  0.00  0.00    -0.003 NA
ATOM     30  HN  UNK N   1      33.739  18.233   6.339  1.00  0.00     0.186 HD
HETATM   31  N   UNK N   1      34.101  16.979   9.194  0.00  0.00    -0.221 N 
HETATM   32  C   UNK N   1      34.862  16.509  10.337  0.00  0.00     0.197 C 
HETATM   33  N   UNK N   1      32.787  16.910   9.090  0.00  0.00    -0.268 N 
ATOM     34  HN  UNK N   1      32.127  16.541   9.775  1.00  0.00     0.190 HD
ENDBRANCH  23  27
ENDBRANCH  16  20
ENDBRANCH   9  13
ENDBRANCH   6   7
ENDBRANCH   5   6
ENDBRANCH   1   5
BRANCH   1  35
HETATM   35  O   UNK N   1      20.794  20.074   0.689  0.00  0.00    -0.307 OA
HETATM   36  H   UNK N   1      21.506  20.512   0.195  0.00  0.00     0.222 HD
ENDBRANCH   1  35
TORSDOF 7
ENDMDL
MODEL 6
REMARK VINA RESULT:      -7.5      8.045     12.022
REMARK  7 active torsions:
REMARK  status: ('A' for Active; 'I' for Inactive)
REMARK    1  A    between atoms: C_6  and  C_9 
REMARK    2  A    between atoms: C_12  and  C_16 
REMARK    3  A    between atoms: C_19  and  N_23 
REMARK    4  A    between atoms: C_25  and  C_26 
REMARK    5  A    between atoms: C_26  and  O_27 
REMARK    6  A    between atoms: O_27  and  P_28 
REMARK    7  A    between atoms: P_28  and  O_31 
ROOT
HETATM    1  P   UNK N   1      19.909  16.533   1.281  0.00  0.00     0.390 P 
HETATM    2  O   UNK N   1      21.112  15.850   0.579  0.00  0.00    -0.632 OA
HETATM    3  O   UNK N   1      18.684  16.783   0.078  0.00  0.00    -0.307 OA
HETATM    4  H   UNK N   1      17.908  16.932  -0.486  0.00  0.00     0.222 HD
ENDROOT
BRANCH   1   5
HETATM    5  O   UNK N   1      20.466  18.061   1.916  0.00  0.00    -0.294 OA
BRANCH   5   6
HETATM    6  C   UNK N   1      20.328  17.975   3.304  0.00  0.00     0.214 C 
BRANCH   6   7
HETATM    7  C   UNK N   1      21.037  19.132   3.993  0.00  0.00     0.176 A 
HETATM    8  C   UNK N   1      22.204  18.536   4.819  0.00  0.00     0.169 A 
HETATM    9  N   UNK N   1      23.355  19.087   4.169  0.00  0.00    -0.291 N 
HETATM   10  C   UNK N   1      22.963  19.904   3.186  0.00  0.00     0.368 A 
HETATM   11  O   UNK N   1      21.639  19.954   3.054  0.00  0.00    -0.294 OA
HETATM   12  O   UNK N   1      23.726  20.534   2.471  0.00  0.00    -0.238 OA
BRANCH   9  13
HETATM   13  C   UNK N   1      24.694  18.768   4.545  0.00  0.00     0.042 A 
HETATM   14  C   UNK N   1      25.593  19.797   4.852  0.00  0.00     0.031 A 
HETATM   15  C   UNK N   1      26.910  19.506   5.201  0.00  0.00     0.017 A 
HETATM   16  C   UNK N   1      27.359  18.178   5.259  0.00  0.00     0.014 A 
HETATM   17  C   UNK N   1      26.441  17.138   4.978  0.00  0.00     0.129 A 
HETATM   18  C   UNK N   1      25.128  17.441   4.623  0.00  0.00     0.073 A 
HETATM   19  F   UNK N   1      26.809  15.833   5.019  0.00  0.00    -0.205 F 
BRANCH  16  20
HETATM   20  C   UNK N   1      28.794  17.912   5.549  0.00  0.00    -0.007 A 
HETATM   21  C   UNK N   1      29.727  17.818   4.504  0.00  0.00     0.016 A 
HETATM   22  C   UNK N   1      31.045  17.446   4.771  0.00  0.00     0.034 A 
HETATM   23  C   UNK N   1      31.422  17.161   6.087  0.00  0.00     0.079 A 
HETATM   24  N   UNK N   1      30.515  17.282   7.092  0.00  0.00    -0.362 N 
HETATM   25  C   UNK N   1      29.230  17.648   6.854  0.00  0.00     0.100 A 
ATOM     26  HN  UNK N   1      30.807  17.093   8.052  1.00  0.00     0.165 HD
BRANCH  23  27
HETATM   27  C   UNK N   1      32.767  16.665   6.387  0.00  0.00     0.161 A 
HETATM   28  N   UNK N   1      33.893  17.029   5.742  0.00  0.00    -0.265 N 
HETATM   29  N   UNK N   1      34.861  16.305   6.283  0.00  0.00    -0.003 NA
ATOM     30  HN  UNK N   1      33.981  17.718   4.995  1.00  0.00     0.186 HD
HETATM   31  N   UNK N   1      34.340  15.530   7.217  0.00  0.00    -0.221 N 
HETATM   32  C   UNK N   1      35.089  14.580   8.018  0.00  0.00     0.197 C 
HETATM   33  N   UNK N   1      33.038  15.725   7.311  0.00  0.00    -0.268 N 
ATOM     34  HN  UNK N   1      32.383  15.264   7.943  1.00  0.00     0.190 HD
ENDBRANCH  23  27
ENDBRANCH  16  20
ENDBRANCH   9  13
ENDBRANCH   6   7
ENDBRANCH   5   6
ENDBRANCH   1   5
BRANCH   1  35
HETATM   35  O   UNK N   1      19.357  15.444   2.520  0.00  0.00    -0.307 OA
HETATM   36  H   UNK N   1      19.356  14.482   2.390  0.00  0.00     0.222 HD
ENDBRANCH   1  35
TORSDOF 7
ENDMDL
MODEL 7
REMARK VINA RESULT:      -7.4      7.742     11.617
REMARK  7 active torsions:
REMARK  status: ('A' for Active; 'I' for Inactive)
REMARK    1  A    between atoms: C_6  and  C_9 
REMARK    2  A    between atoms: C_12  and  C_16 
REMARK    3  A    between atoms: C_19  and  N_23 
REMARK    4  A    between atoms: C_25  and  C_26 
REMARK    5  A    between atoms: C_26  and  O_27 
REMARK    6  A    between atoms: O_27  and  P_28 
REMARK    7  A    between atoms: P_28  and  O_31 
ROOT
HETATM    1  P   UNK N   1      19.399  15.965   4.647  0.00  0.00     0.390 P 
HETATM    2  O   UNK N   1      19.248  14.863   3.566  0.00  0.00    -0.632 OA
HETATM    3  O   UNK N   1      17.998  15.884   5.667  0.00  0.00    -0.307 OA
HETATM    4  H   UNK N   1      17.293  15.907   6.333  0.00  0.00     0.222 HD
ENDROOT
BRANCH   1   5
HETATM    5  O   UNK N   1      19.472  17.505   3.825  0.00  0.00    -0.294 OA
BRANCH   5   6
HETATM    6  C   UNK N   1      20.800  17.664   3.422  0.00  0.00     0.214 C 
BRANCH   6   7
HETATM    7  C   UNK N   1      21.452  18.832   4.147  0.00  0.00     0.176 A 
HETATM    8  C   UNK N   1      22.712  18.289   4.864  0.00  0.00     0.169 A 
HETATM    9  N   UNK N   1      23.772  18.977   4.190  0.00  0.00    -0.291 N 
HETATM   10  C   UNK N   1      23.254  19.816   3.288  0.00  0.00     0.368 A 
HETATM   11  O   UNK N   1      21.925  19.761   3.234  0.00  0.00    -0.294 OA
HETATM   12  O   UNK N   1      23.918  20.554   2.576  0.00  0.00    -0.238 OA
BRANCH   9  13
HETATM   13  C   UNK N   1      25.152  18.752   4.469  0.00  0.00     0.042 A 
HETATM   14  C   UNK N   1      25.792  17.620   3.945  0.00  0.00     0.031 A 
HETATM   15  C   UNK N   1      27.134  17.373   4.224  0.00  0.00     0.017 A 
HETATM   16  C   UNK N   1      27.874  18.254   5.027  0.00  0.00     0.014 A 
HETATM   17  C   UNK N   1      27.235  19.413   5.530  0.00  0.00     0.129 A 
HETATM   18  C   UNK N   1      25.890  19.647   5.251  0.00  0.00     0.073 A 
HETATM   19  F   UNK N   1      27.892  20.307   6.309  0.00  0.00    -0.205 F 
BRANCH  16  20
HETATM   20  C   UNK N   1      29.279  17.910   5.374  0.00  0.00    -0.007 A 
HETATM   21  C   UNK N   1      30.258  17.818   4.372  0.00  0.00     0.016 A 
HETATM   22  C   UNK N   1      31.543  17.375   4.686  0.00  0.00     0.034 A 
HETATM   23  C   UNK N   1      31.841  17.017   6.005  0.00  0.00     0.079 A 
HETATM   24  N   UNK N   1      30.890  17.137   6.969  0.00  0.00    -0.362 N 
HETATM   25  C   UNK N   1      29.637  17.572   6.685  0.00  0.00     0.100 A 
ATOM     26  HN  UNK N   1      31.126  16.895   7.932  1.00  0.00     0.165 HD
BRANCH  23  27
HETATM   27  C   UNK N   1      33.146  16.448   6.347  0.00  0.00     0.161 A 
HETATM   28  N   UNK N   1      34.216  16.403   5.528  0.00  0.00    -0.265 N 
HETATM   29  N   UNK N   1      35.154  15.757   6.205  0.00  0.00    -0.003 NA
ATOM     30  HN  UNK N   1      34.288  16.787   4.585  1.00  0.00     0.186 HD
HETATM   31  N   UNK N   1      34.668  15.420   7.386  0.00  0.00    -0.221 N 
HETATM   32  C   UNK N   1      35.397  14.681   8.400  0.00  0.00     0.197 C 
HETATM   33  N   UNK N   1      33.420  15.832   7.511  0.00  0.00    -0.268 N 
ATOM     34  HN  UNK N   1      32.802  15.709   8.314  1.00  0.00     0.190 HD
ENDBRANCH  23  27
ENDBRANCH  16  20
ENDBRANCH   9  13
ENDBRANCH   6   7
ENDBRANCH   5   6
ENDBRANCH   1   5
BRANCH   1  35
HETATM   35  O   UNK N   1      20.847  15.605   5.541  0.00  0.00    -0.307 OA
HETATM   36  H   UNK N   1      21.565  16.251   5.631  0.00  0.00     0.222 HD
ENDBRANCH   1  35
TORSDOF 7
ENDMDL
MODEL 8
REMARK VINA RESULT:      -7.2      1.677      2.593
REMARK  7 active torsions:
REMARK  status: ('A' for Active; 'I' for Inactive)
REMARK    1  A    between atoms: C_6  and  C_9 
REMARK    2  A    between atoms: C_12  and  C_16 
REMARK    3  A    between atoms: C_19  and  N_23 
REMARK    4  A    between atoms: C_25  and  C_26 
REMARK    5  A    between atoms: C_26  and  O_27 
REMARK    6  A    between atoms: O_27  and  P_28 
REMARK    7  A    between atoms: P_28  and  O_31 
ROOT
HETATM    1  P   UNK N   1      35.348  11.713  12.439  0.00  0.00     0.390 P 
HETATM    2  O   UNK N   1      36.474  10.646  12.409  0.00  0.00    -0.632 OA
HETATM    3  O   UNK N   1      33.834  10.866  12.460  0.00  0.00    -0.307 OA
HETATM    4  H   UNK N   1      32.933  10.512  12.523  0.00  0.00     0.222 HD
ENDROOT
BRANCH   1   5
HETATM    5  O   UNK N   1      35.493  12.674  10.987  0.00  0.00    -0.294 OA
BRANCH   5   6
HETATM    6  C   UNK N   1      36.624  13.475  11.167  0.00  0.00     0.214 C 
BRANCH   6   7
HETATM    7  C   UNK N   1      36.757  14.488  10.039  0.00  0.00     0.176 A 
HETATM    8  C   UNK N   1      35.478  14.389   9.173  0.00  0.00     0.169 A 
HETATM    9  N   UNK N   1      34.874  15.673   9.365  0.00  0.00    -0.291 N 
HETATM   10  C   UNK N   1      35.662  16.423  10.142  0.00  0.00     0.368 A 
HETATM   11  O   UNK N   1      36.751  15.777  10.549  0.00  0.00    -0.294 OA
HETATM   12  O   UNK N   1      35.415  17.576  10.460  0.00  0.00    -0.238 OA
BRANCH   9  13
HETATM   13  C   UNK N   1      33.616  16.039   8.801  0.00  0.00     0.042 A 
HETATM   14  C   UNK N   1      32.866  15.086   8.099  0.00  0.00     0.031 A 
HETATM   15  C   UNK N   1      31.644  15.431   7.523  0.00  0.00     0.017 A 
HETATM   16  C   UNK N   1      31.138  16.734   7.642  0.00  0.00     0.014 A 
HETATM   17  C   UNK N   1      31.882  17.687   8.377  0.00  0.00     0.129 A 
HETATM   18  C   UNK N   1      33.106  17.334   8.943  0.00  0.00     0.073 A 
HETATM   19  F   UNK N   1      31.449  18.963   8.532  0.00  0.00    -0.205 F 
BRANCH  16  20
HETATM   20  C   UNK N   1      29.875  17.085   6.940  0.00  0.00    -0.007 A 
HETATM   21  C   UNK N   1      29.856  17.247   5.545  0.00  0.00     0.016 A 
HETATM   22  C   UNK N   1      28.700  17.698   4.907  0.00  0.00     0.034 A 
HETATM   23  C   UNK N   1      27.566  17.991   5.671  0.00  0.00     0.079 A 
HETATM   24  N   UNK N   1      27.590  17.802   7.017  0.00  0.00    -0.362 N 
HETATM   25  C   UNK N   1      28.702  17.360   7.655  0.00  0.00     0.100 A 
ATOM     26  HN  UNK N   1      26.749  17.999   7.561  1.00  0.00     0.165 HD
BRANCH  23  27
HETATM   27  C   UNK N   1      26.373  18.566   5.045  0.00  0.00     0.161 A 
HETATM   28  N   UNK N   1      25.101  18.231   5.341  0.00  0.00    -0.265 N 
HETATM   29  N   UNK N   1      24.347  18.935   4.509  0.00  0.00    -0.003 NA
ATOM     30  HN  UNK N   1      24.785  17.575   6.055  1.00  0.00     0.186 HD
HETATM   31  N   UNK N   1      25.134  19.664   3.738  0.00  0.00    -0.221 N 
HETATM   32  C   UNK N   1      24.671  20.552   2.688  0.00  0.00     0.197 C 
HETATM   33  N   UNK N   1      26.402  19.460   4.041  0.00  0.00    -0.268 N 
ATOM     34  HN  UNK N   1      27.222  19.887   3.609  1.00  0.00     0.190 HD
ENDBRANCH  23  27
ENDBRANCH  16  20
ENDBRANCH   9  13
ENDBRANCH   6   7
ENDBRANCH   5   6
ENDBRANCH   1   5
BRANCH   1  35
HETATM   35  O   UNK N   1      35.566  12.643  13.893  0.00  0.00    -0.307 OA
HETATM   36  H   UNK N   1      36.404  13.091  14.090  0.00  0.00     0.222 HD
ENDBRANCH   1  35
TORSDOF 7
ENDMDL
MODEL 9
REMARK VINA RESULT:      -7.2      7.447     11.459
REMARK  7 active torsions:
REMARK  status: ('A' for Active; 'I' for Inactive)
REMARK    1  A    between atoms: C_6  and  C_9 
REMARK    2  A    between atoms: C_12  and  C_16 
REMARK    3  A    between atoms: C_19  and  N_23 
REMARK    4  A    between atoms: C_25  and  C_26 
REMARK    5  A    between atoms: C_26  and  O_27 
REMARK    6  A    between atoms: O_27  and  P_28 
REMARK    7  A    between atoms: P_28  and  O_31 
ROOT
HETATM    1  P   UNK N   1      19.709  15.766   6.012  0.00  0.00     0.390 P 
HETATM    2  O   UNK N   1      18.220  16.077   6.315  0.00  0.00    -0.632 OA
HETATM    3  O   UNK N   1      20.662  16.975   6.812  0.00  0.00    -0.307 OA
HETATM    4  H   UNK N   1      21.302  17.560   7.248  0.00  0.00     0.222 HD
ENDROOT
BRANCH   1   5
HETATM    5  O   UNK N   1      19.926  15.858   4.282  0.00  0.00    -0.294 OA
BRANCH   5   6
HETATM    6  C   UNK N   1      20.235  17.192   4.002  0.00  0.00     0.214 C 
BRANCH   6   7
HETATM    7  C   UNK N   1      21.457  17.289   3.099  0.00  0.00     0.176 A 
HETATM    8  C   UNK N   1      22.614  17.874   3.945  0.00  0.00     0.169 A 
HETATM    9  N   UNK N   1      23.549  16.790   3.980  0.00  0.00    -0.291 N 
HETATM   10  C   UNK N   1      23.081  15.774   3.249  0.00  0.00     0.368 A 
HETATM   11  O   UNK N   1      21.881  16.023   2.729  0.00  0.00    -0.294 OA
HETATM   12  O   UNK N   1      23.674  14.720   3.078  0.00  0.00    -0.238 OA
BRANCH   9  13
HETATM   13  C   UNK N   1      24.773  16.837   4.712  0.00  0.00     0.042 A 
HETATM   14  C   UNK N   1      25.780  17.731   4.325  0.00  0.00     0.031 A 
HETATM   15  C   UNK N   1      26.990  17.775   5.014  0.00  0.00     0.017 A 
HETATM   16  C   UNK N   1      27.221  16.933   6.112  0.00  0.00     0.014 A 
HETATM   17  C   UNK N   1      26.192  16.051   6.520  0.00  0.00     0.129 A 
HETATM   18  C   UNK N   1      24.988  16.010   5.819  0.00  0.00     0.073 A 
HETATM   19  F   UNK N   1      26.349  15.213   7.575  0.00  0.00    -0.205 F 
BRANCH  16  20
HETATM   20  C   UNK N   1      28.557  16.948   6.767  0.00  0.00    -0.007 A 
HETATM   21  C   UNK N   1      28.724  17.533   8.032  0.00  0.00     0.016 A 
HETATM   22  C   UNK N   1      29.999  17.655   8.586  0.00  0.00     0.034 A 
HETATM   23  C   UNK N   1      31.105  17.196   7.864  0.00  0.00     0.079 A 
HETATM   24  N   UNK N   1      30.926  16.608   6.652  0.00  0.00    -0.362 N 
HETATM   25  C   UNK N   1      29.694  16.474   6.099  0.00  0.00     0.100 A 
ATOM     26  HN  UNK N   1      31.739  16.256   6.145  1.00  0.00     0.165 HD
BRANCH  23  27
HETATM   27  C   UNK N   1      32.464  17.406   8.368  0.00  0.00     0.161 A 
HETATM   28  N   UNK N   1      33.327  18.338   7.917  0.00  0.00    -0.265 N 
HETATM   29  N   UNK N   1      34.448  18.141   8.596  0.00  0.00    -0.003 NA
ATOM     30  HN  UNK N   1      33.154  19.047   7.204  1.00  0.00     0.186 HD
HETATM   31  N   UNK N   1      34.271  17.127   9.422  0.00  0.00    -0.221 N 
HETATM   32  C   UNK N   1      35.284  16.602  10.318  0.00  0.00     0.197 C 
HETATM   33  N   UNK N   1      33.049  16.642   9.309  0.00  0.00    -0.268 N 
ATOM     34  HN  UNK N   1      32.639  15.860   9.821  1.00  0.00     0.190 HD
ENDBRANCH  23  27
ENDBRANCH  16  20
ENDBRANCH   9  13
ENDBRANCH   6   7
ENDBRANCH   5   6
ENDBRANCH   1   5
BRANCH   1  35
HETATM   35  O   UNK N   1      20.039  14.183   6.654  0.00  0.00    -0.307 OA
HETATM   36  H   UNK N   1      20.453  14.061   7.523  0.00  0.00     0.222 HD
ENDBRANCH   1  35
TORSDOF 7
ENDMDL
