MODEL 1
REMARK VINA RESULT:      -6.0      0.000      0.000
REMARK  10 active torsions:
REMARK  status: ('A' for Active; 'I' for Inactive)
REMARK    1  A    between atoms: C_2  and  C_4 
REMARK    2  A    between atoms: C_5  and  C_6 
REMARK    3  A    between atoms: C_6  and  C_7 
REMARK    4  A    between atoms: C_7  and  C_8 
REMARK    5  A    between atoms: C_8  and  C_9 
REMARK    6  A    between atoms: C_9  and  C_10 
REMARK       I    between atoms: C_10  and  N_12 
REMARK    7  A    between atoms: N_12  and  C_13 
REMARK    8  A    between atoms: C_13  and  C_14 
REMARK    9  A    between atoms: C_17  and  O_22 
REMARK   10  A    between atoms: C_18  and  O_20 
ROOT
HETATM    1  C   UNK N   1      27.969  21.838  -7.437  0.00  0.00     0.217 C 
HETATM    2  O   UNK N   1      27.694  20.910  -8.179  0.00  0.00    -0.274 OA
HETATM    3  N   UNK N   1      29.029  21.771  -6.601  0.00  0.00    -0.357 N 
HETATM    4  H   UNK N   1      29.219  22.553  -6.035  0.00  0.00     0.162 HD
ENDROOT
BRANCH   3   5
HETATM    5  C   UNK N   1      29.903  20.624  -6.487  0.00  0.00     0.161 C 
BRANCH   5   6
HETATM    6  C   UNK N   1      30.796  20.792  -5.291  0.00  0.00    -0.038 A 
HETATM    7  C   UNK N   1      32.054  20.184  -5.258  0.00  0.00     0.012 A 
HETATM    8  C   UNK N   1      32.872  20.335  -4.133  0.00  0.00     0.040 A 
HETATM    9  C   UNK N   1      32.445  21.098  -3.038  0.00  0.00     0.099 A 
HETATM   10  C   UNK N   1      31.174  21.724  -3.070  0.00  0.00     0.101 A 
HETATM   11  C   UNK N   1      30.372  21.555  -4.196  0.00  0.00     0.048 A 
BRANCH   9  12
HETATM   12  O   UNK N   1      33.259  21.219  -1.976  0.00  0.00    -0.358 OA
HETATM   13  H   UNK N   1      33.965  20.616  -1.854  0.00  0.00     0.217 HD
ENDBRANCH   9  12
BRANCH  10  14
HETATM   14  O   UNK N   1      30.678  22.489  -2.062  0.00  0.00    -0.353 OA
HETATM   15  C   UNK N   1      29.411  23.019  -2.011  0.00  0.00     0.210 C 
ENDBRANCH  10  14
ENDBRANCH   5   6
ENDBRANCH   3   5
BRANCH   1  16
HETATM   16  C   UNK N   1      27.118  23.064  -7.407  0.00  0.00     0.103 C 
BRANCH  16  17
HETATM   17  C   UNK N   1      25.913  22.891  -6.502  0.00  0.00     0.010 C 
BRANCH  17  18
HETATM   18  C   UNK N   1      25.862  24.037  -5.505  0.00  0.00     0.004 C 
BRANCH  18  19
HETATM   19  C   UNK N   1      26.449  25.306  -6.103  0.00  0.00     0.027 C 
BRANCH  19  20
HETATM   20  C   UNK N   1      25.374  26.339  -6.233  0.00  0.00    -0.030 C 
HETATM   21  C   UNK N   1      25.365  27.478  -5.527  0.00  0.00    -0.027 C 
BRANCH  21  22
HETATM   22  C   UNK N   1      26.415  27.854  -4.524  0.00  0.00    -0.001 C 
HETATM   23  C   UNK N   1      26.746  29.322  -4.691  0.00  0.00     0.013 C 
HETATM   24  C   UNK N   1      25.921  27.630  -3.106  0.00  0.00     0.013 C 
ENDBRANCH  21  22
ENDBRANCH  19  20
ENDBRANCH  18  19
ENDBRANCH  17  18
ENDBRANCH  16  17
ENDBRANCH   1  16
TORSDOF 10
ENDMDL
MODEL 2
REMARK VINA RESULT:      -6.0     15.093     19.267
REMARK  10 active torsions:
REMARK  status: ('A' for Active; 'I' for Inactive)
REMARK    1  A    between atoms: C_2  and  C_4 
REMARK    2  A    between atoms: C_5  and  C_6 
REMARK    3  A    between atoms: C_6  and  C_7 
REMARK    4  A    between atoms: C_7  and  C_8 
REMARK    5  A    between atoms: C_8  and  C_9 
REMARK    6  A    between atoms: C_9  and  C_10 
REMARK       I    between atoms: C_10  and  N_12 
REMARK    7  A    between atoms: N_12  and  C_13 
REMARK    8  A    between atoms: C_13  and  C_14 
REMARK    9  A    between atoms: C_17  and  O_22 
REMARK   10  A    between atoms: C_18  and  O_20 
ROOT
HETATM    1  C   UNK N   1      34.945  16.646   9.992  0.00  0.00     0.217 C 
HETATM    2  O   UNK N   1      35.529  17.657  10.345  0.00  0.00    -0.274 OA
HETATM    3  N   UNK N   1      34.398  16.553   8.760  0.00  0.00    -0.357 N 
HETATM    4  H   UNK N   1      33.952  15.710   8.517  0.00  0.00     0.162 HD
ENDROOT
BRANCH   3   5
HETATM    5  C   UNK N   1      34.427  17.611   7.775  0.00  0.00     0.161 C 
BRANCH   5   6
HETATM    6  C   UNK N   1      33.256  17.463   6.845  0.00  0.00    -0.038 A 
HETATM    7  C   UNK N   1      33.437  17.552   5.463  0.00  0.00     0.012 A 
HETATM    8  C   UNK N   1      32.338  17.427   4.606  0.00  0.00     0.040 A 
HETATM    9  C   UNK N   1      31.054  17.204   5.121  0.00  0.00     0.099 A 
HETATM   10  C   UNK N   1      30.867  17.104   6.523  0.00  0.00     0.101 A 
HETATM   11  C   UNK N   1      31.973  17.239   7.358  0.00  0.00     0.048 A 
BRANCH   9  12
HETATM   12  O   UNK N   1      30.023  17.090   4.267  0.00  0.00    -0.358 OA
HETATM   13  H   UNK N   1      30.106  16.557   3.501  0.00  0.00     0.217 HD
ENDBRANCH   9  12
BRANCH  10  14
HETATM   14  O   UNK N   1      29.664  16.882   7.114  0.00  0.00    -0.353 OA
HETATM   15  C   UNK N   1      28.971  17.788   7.882  0.00  0.00     0.210 C 
ENDBRANCH  10  14
ENDBRANCH   5   6
ENDBRANCH   3   5
BRANCH   1  16
HETATM   16  C   UNK N   1      34.788  15.494  10.928  0.00  0.00     0.103 C 
BRANCH  16  17
HETATM   17  C   UNK N   1      36.131  14.921  11.344  0.00  0.00     0.010 C 
BRANCH  17  18
HETATM   18  C   UNK N   1      35.926  13.536  11.935  0.00  0.00     0.004 C 
BRANCH  18  19
HETATM   19  C   UNK N   1      35.381  13.622  13.351  0.00  0.00     0.027 C 
BRANCH  19  20
HETATM   20  C   UNK N   1      36.473  14.046  14.282  0.00  0.00    -0.030 C 
HETATM   21  C   UNK N   1      36.520  13.682  15.570  0.00  0.00    -0.027 C 
BRANCH  21  22
HETATM   22  C   UNK N   1      35.492  12.816  16.237  0.00  0.00    -0.001 C 
HETATM   23  C   UNK N   1      36.075  11.433  16.440  0.00  0.00     0.013 C 
HETATM   24  C   UNK N   1      35.101  13.378  17.592  0.00  0.00     0.013 C 
ENDBRANCH  21  22
ENDBRANCH  19  20
ENDBRANCH  18  19
ENDBRANCH  17  18
ENDBRANCH  16  17
ENDBRANCH   1  16
TORSDOF 10
ENDMDL
MODEL 3
REMARK VINA RESULT:      -6.0      2.373      8.199
REMARK  10 active torsions:
REMARK  status: ('A' for Active; 'I' for Inactive)
REMARK    1  A    between atoms: C_2  and  C_4 
REMARK    2  A    between atoms: C_5  and  C_6 
REMARK    3  A    between atoms: C_6  and  C_7 
REMARK    4  A    between atoms: C_7  and  C_8 
REMARK    5  A    between atoms: C_8  and  C_9 
REMARK    6  A    between atoms: C_9  and  C_10 
REMARK       I    between atoms: C_10  and  N_12 
REMARK    7  A    between atoms: N_12  and  C_13 
REMARK    8  A    between atoms: C_13  and  C_14 
REMARK    9  A    between atoms: C_17  and  O_22 
REMARK   10  A    between atoms: C_18  and  O_20 
ROOT
HETATM    1  C   UNK N   1      29.919  22.940  -2.535  0.00  0.00     0.217 C 
HETATM    2  O   UNK N   1      30.054  23.092  -1.332  0.00  0.00    -0.274 OA
HETATM    3  N   UNK N   1      28.800  23.356  -3.168  0.00  0.00    -0.357 N 
HETATM    4  H   UNK N   1      28.748  23.227  -4.143  0.00  0.00     0.162 HD
ENDROOT
BRANCH   3   5
HETATM    5  C   UNK N   1      27.676  23.980  -2.507  0.00  0.00     0.161 C 
BRANCH   5   6
HETATM    6  C   UNK N   1      26.907  24.807  -3.498  0.00  0.00    -0.038 A 
HETATM    7  C   UNK N   1      26.672  26.162  -3.255  0.00  0.00     0.012 A 
HETATM    8  C   UNK N   1      25.943  26.921  -4.178  0.00  0.00     0.040 A 
HETATM    9  C   UNK N   1      25.451  26.334  -5.352  0.00  0.00     0.099 A 
HETATM   10  C   UNK N   1      25.695  24.961  -5.607  0.00  0.00     0.101 A 
HETATM   11  C   UNK N   1      26.416  24.223  -4.672  0.00  0.00     0.048 A 
BRANCH   9  12
HETATM   12  O   UNK N   1      24.754  27.094  -6.214  0.00  0.00    -0.358 OA
HETATM   13  H   UNK N   1      25.197  27.545  -6.905  0.00  0.00     0.217 HD
ENDBRANCH   9  12
BRANCH  10  14
HETATM   14  O   UNK N   1      25.265  24.308  -6.719  0.00  0.00    -0.353 OA
HETATM   15  C   UNK N   1      25.969  24.181  -7.893  0.00  0.00     0.210 C 
ENDBRANCH  10  14
ENDBRANCH   5   6
ENDBRANCH   3   5
BRANCH   1  16
HETATM   16  C   UNK N   1      30.978  22.259  -3.337  0.00  0.00     0.103 C 
BRANCH  16  17
HETATM   17  C   UNK N   1      30.459  20.990  -3.989  0.00  0.00     0.010 C 
BRANCH  17  18
HETATM   18  C   UNK N   1      30.501  21.147  -5.501  0.00  0.00     0.004 C 
BRANCH  18  19
HETATM   19  C   UNK N   1      31.197  19.964  -6.154  0.00  0.00     0.027 C 
BRANCH  19  20
HETATM   20  C   UNK N   1      32.563  20.376  -6.604  0.00  0.00    -0.030 C 
HETATM   21  C   UNK N   1      33.662  20.209  -5.856  0.00  0.00    -0.027 C 
BRANCH  21  22
HETATM   22  C   UNK N   1      33.661  19.601  -4.484  0.00  0.00    -0.001 C 
HETATM   23  C   UNK N   1      34.528  18.360  -4.500  0.00  0.00     0.013 C 
HETATM   24  C   UNK N   1      34.221  20.568  -3.458  0.00  0.00     0.013 C 
ENDBRANCH  21  22
ENDBRANCH  19  20
ENDBRANCH  18  19
ENDBRANCH  17  18
ENDBRANCH  16  17
ENDBRANCH   1  16
TORSDOF 10
ENDMDL
MODEL 4
REMARK VINA RESULT:      -5.9      1.277      2.370
REMARK  10 active torsions:
REMARK  status: ('A' for Active; 'I' for Inactive)
REMARK    1  A    between atoms: C_2  and  C_4 
REMARK    2  A    between atoms: C_5  and  C_6 
REMARK    3  A    between atoms: C_6  and  C_7 
REMARK    4  A    between atoms: C_7  and  C_8 
REMARK    5  A    between atoms: C_8  and  C_9 
REMARK    6  A    between atoms: C_9  and  C_10 
REMARK       I    between atoms: C_10  and  N_12 
REMARK    7  A    between atoms: N_12  and  C_13 
REMARK    8  A    between atoms: C_13  and  C_14 
REMARK    9  A    between atoms: C_17  and  O_22 
REMARK   10  A    between atoms: C_18  and  O_20 
ROOT
HETATM    1  C   UNK N   1      28.174  21.026  -7.838  0.00  0.00     0.217 C 
HETATM    2  O   UNK N   1      28.421  19.832  -7.871  0.00  0.00    -0.274 OA
HETATM    3  N   UNK N   1      29.046  21.902  -7.292  0.00  0.00    -0.357 N 
HETATM    4  H   UNK N   1      28.808  22.857  -7.306  0.00  0.00     0.162 HD
ENDROOT
BRANCH   3   5
HETATM    5  C   UNK N   1      30.307  21.527  -6.692  0.00  0.00     0.161 C 
BRANCH   5   6
HETATM    6  C   UNK N   1      30.319  21.950  -5.250  0.00  0.00    -0.038 A 
HETATM    7  C   UNK N   1      29.346  22.826  -4.762  0.00  0.00     0.012 A 
HETATM    8  C   UNK N   1      29.375  23.224  -3.421  0.00  0.00     0.040 A 
HETATM    9  C   UNK N   1      30.370  22.747  -2.557  0.00  0.00     0.099 A 
HETATM   10  C   UNK N   1      31.354  21.850  -3.045  0.00  0.00     0.101 A 
HETATM   11  C   UNK N   1      31.311  21.473  -4.384  0.00  0.00     0.048 A 
BRANCH   9  12
HETATM   12  O   UNK N   1      30.366  23.153  -1.276  0.00  0.00    -0.358 OA
HETATM   13  H   UNK N   1      29.728  23.773  -0.982  0.00  0.00     0.217 HD
ENDBRANCH   9  12
BRANCH  10  14
HETATM   14  O   UNK N   1      32.350  21.329  -2.282  0.00  0.00    -0.353 OA
HETATM   15  C   UNK N   1      33.607  20.994  -2.729  0.00  0.00     0.210 C 
ENDBRANCH  10  14
ENDBRANCH   5   6
ENDBRANCH   3   5
BRANCH   1  16
HETATM   16  C   UNK N   1      26.882  21.549  -8.371  0.00  0.00     0.103 C 
BRANCH  16  17
HETATM   17  C   UNK N   1      26.005  22.113  -7.268  0.00  0.00     0.010 C 
BRANCH  17  18
HETATM   18  C   UNK N   1      25.727  23.581  -7.546  0.00  0.00     0.004 C 
BRANCH  18  19
HETATM   19  C   UNK N   1      26.534  24.474  -6.618  0.00  0.00     0.027 C 
BRANCH  19  20
HETATM   20  C   UNK N   1      26.071  24.277  -5.209  0.00  0.00    -0.030 C 
HETATM   21  C   UNK N   1      26.104  25.246  -4.285  0.00  0.00    -0.027 C 
BRANCH  21  22
HETATM   22  C   UNK N   1      26.611  26.635  -4.541  0.00  0.00    -0.001 C 
HETATM   23  C   UNK N   1      25.734  27.620  -3.796  0.00  0.00     0.013 C 
HETATM   24  C   UNK N   1      28.039  26.795  -4.052  0.00  0.00     0.013 C 
ENDBRANCH  21  22
ENDBRANCH  19  20
ENDBRANCH  18  19
ENDBRANCH  17  18
ENDBRANCH  16  17
ENDBRANCH   1  16
TORSDOF 10
ENDMDL
MODEL 5
REMARK VINA RESULT:      -5.9      2.031      3.482
REMARK  10 active torsions:
REMARK  status: ('A' for Active; 'I' for Inactive)
REMARK    1  A    between atoms: C_2  and  C_4 
REMARK    2  A    between atoms: C_5  and  C_6 
REMARK    3  A    between atoms: C_6  and  C_7 
REMARK    4  A    between atoms: C_7  and  C_8 
REMARK    5  A    between atoms: C_8  and  C_9 
REMARK    6  A    between atoms: C_9  and  C_10 
REMARK       I    between atoms: C_10  and  N_12 
REMARK    7  A    between atoms: N_12  and  C_13 
REMARK    8  A    between atoms: C_13  and  C_14 
REMARK    9  A    between atoms: C_17  and  O_22 
REMARK   10  A    between atoms: C_18  and  O_20 
ROOT
HETATM    1  C   UNK N   1      26.728  24.313  -4.178  0.00  0.00     0.217 C 
HETATM    2  O   UNK N   1      26.427  24.211  -3.001  0.00  0.00    -0.274 OA
HETATM    3  N   UNK N   1      28.020  24.422  -4.560  0.00  0.00    -0.357 N 
HETATM    4  H   UNK N   1      28.211  24.484  -5.524  0.00  0.00     0.162 HD
ENDROOT
BRANCH   3   5
HETATM    5  C   UNK N   1      29.138  24.451  -3.644  0.00  0.00     0.161 C 
BRANCH   5   6
HETATM    6  C   UNK N   1      29.922  23.176  -3.771  0.00  0.00    -0.038 A 
HETATM    7  C   UNK N   1      30.834  22.807  -2.779  0.00  0.00     0.012 A 
HETATM    8  C   UNK N   1      31.570  21.624  -2.912  0.00  0.00     0.040 A 
HETATM    9  C   UNK N   1      31.396  20.799  -4.032  0.00  0.00     0.099 A 
HETATM   10  C   UNK N   1      30.465  21.164  -5.036  0.00  0.00     0.101 A 
HETATM   11  C   UNK N   1      29.748  22.349  -4.887  0.00  0.00     0.048 A 
BRANCH   9  12
HETATM   12  O   UNK N   1      32.121  19.671  -4.126  0.00  0.00    -0.358 OA
HETATM   13  H   UNK N   1      32.373  19.344  -4.966  0.00  0.00     0.217 HD
ENDBRANCH   9  12
BRANCH  10  14
HETATM   14  O   UNK N   1      30.222  20.426  -6.151  0.00  0.00    -0.353 OA
HETATM   15  C   UNK N   1      30.970  20.449  -7.304  0.00  0.00     0.210 C 
ENDBRANCH  10  14
ENDBRANCH   5   6
ENDBRANCH   3   5
BRANCH   1  16
HETATM   16  C   UNK N   1      25.670  24.355  -5.231  0.00  0.00     0.103 C 
BRANCH  16  17
HETATM   17  C   UNK N   1      25.714  25.650  -6.022  0.00  0.00     0.010 C 
BRANCH  17  18
HETATM   18  C   UNK N   1      24.693  26.622  -5.454  0.00  0.00     0.004 C 
BRANCH  18  19
HETATM   19  C   UNK N   1      25.355  27.922  -5.030  0.00  0.00     0.027 C 
BRANCH  19  20
HETATM   20  C   UNK N   1      25.805  27.812  -3.607  0.00  0.00    -0.030 C 
HETATM   21  C   UNK N   1      27.073  28.015  -3.222  0.00  0.00    -0.027 C 
BRANCH  21  22
HETATM   22  C   UNK N   1      28.190  28.367  -4.160  0.00  0.00    -0.001 C 
HETATM   23  C   UNK N   1      28.101  29.841  -4.492  0.00  0.00     0.013 C 
HETATM   24  C   UNK N   1      29.542  28.096  -3.524  0.00  0.00     0.013 C 
ENDBRANCH  21  22
ENDBRANCH  19  20
ENDBRANCH  18  19
ENDBRANCH  17  18
ENDBRANCH  16  17
ENDBRANCH   1  16
TORSDOF 10
ENDMDL
MODEL 6
REMARK VINA RESULT:      -5.9      2.529      7.376
REMARK  10 active torsions:
REMARK  status: ('A' for Active; 'I' for Inactive)
REMARK    1  A    between atoms: C_2  and  C_4 
REMARK    2  A    between atoms: C_5  and  C_6 
REMARK    3  A    between atoms: C_6  and  C_7 
REMARK    4  A    between atoms: C_7  and  C_8 
REMARK    5  A    between atoms: C_8  and  C_9 
REMARK    6  A    between atoms: C_9  and  C_10 
REMARK       I    between atoms: C_10  and  N_12 
REMARK    7  A    between atoms: N_12  and  C_13 
REMARK    8  A    between atoms: C_13  and  C_14 
REMARK    9  A    between atoms: C_17  and  O_22 
REMARK   10  A    between atoms: C_18  and  O_20 
ROOT
HETATM    1  C   UNK N   1      27.828  24.135  -3.201  0.00  0.00     0.217 C 
HETATM    2  O   UNK N   1      26.769  24.226  -2.604  0.00  0.00    -0.274 OA
HETATM    3  N   UNK N   1      28.082  24.895  -4.289  0.00  0.00    -0.357 N 
HETATM    4  H   UNK N   1      28.959  24.797  -4.725  0.00  0.00     0.162 HD
ENDROOT
BRANCH   3   5
HETATM    5  C   UNK N   1      27.149  25.846  -4.851  0.00  0.00     0.161 C 
BRANCH   5   6
HETATM    6  C   UNK N   1      26.595  25.302  -6.138  0.00  0.00    -0.038 A 
HETATM    7  C   UNK N   1      26.284  26.165  -7.192  0.00  0.00     0.012 A 
HETATM    8  C   UNK N   1      25.755  25.650  -8.382  0.00  0.00     0.040 A 
HETATM    9  C   UNK N   1      25.540  24.273  -8.529  0.00  0.00     0.099 A 
HETATM   10  C   UNK N   1      25.864  23.393  -7.465  0.00  0.00     0.101 A 
HETATM   11  C   UNK N   1      26.382  23.927  -6.289  0.00  0.00     0.048 A 
BRANCH   9  12
HETATM   12  O   UNK N   1      25.030  23.816  -9.685  0.00  0.00    -0.358 OA
HETATM   13  H   UNK N   1      25.525  23.889 -10.477  0.00  0.00     0.217 HD
ENDBRANCH   9  12
BRANCH  10  14
HETATM   14  O   UNK N   1      25.699  22.046  -7.519  0.00  0.00    -0.353 OA
HETATM   15  C   UNK N   1      24.556  21.366  -7.170  0.00  0.00     0.210 C 
ENDBRANCH  10  14
ENDBRANCH   5   6
ENDBRANCH   3   5
BRANCH   1  16
HETATM   16  C   UNK N   1      28.864  23.152  -2.765  0.00  0.00     0.103 C 
BRANCH  16  17
HETATM   17  C   UNK N   1      30.267  23.712  -2.909  0.00  0.00     0.010 C 
BRANCH  17  18
HETATM   18  C   UNK N   1      31.259  22.565  -3.017  0.00  0.00     0.004 C 
BRANCH  18  19
HETATM   19  C   UNK N   1      30.558  21.272  -3.399  0.00  0.00     0.027 C 
BRANCH  19  20
HETATM   20  C   UNK N   1      31.265  20.647  -4.560  0.00  0.00    -0.030 C 
HETATM   21  C   UNK N   1      30.828  20.746  -5.823  0.00  0.00    -0.027 C 
BRANCH  21  22
HETATM   22  C   UNK N   1      29.585  21.482  -6.227  0.00  0.00    -0.001 C 
HETATM   23  C   UNK N   1      29.957  22.904  -6.594  0.00  0.00     0.013 C 
HETATM   24  C   UNK N   1      28.930  20.830  -7.431  0.00  0.00     0.013 C 
ENDBRANCH  21  22
ENDBRANCH  19  20
ENDBRANCH  18  19
ENDBRANCH  17  18
ENDBRANCH  16  17
ENDBRANCH   1  16
TORSDOF 10
ENDMDL
MODEL 7
REMARK VINA RESULT:      -5.9      2.535      4.596
REMARK  10 active torsions:
REMARK  status: ('A' for Active; 'I' for Inactive)
REMARK    1  A    between atoms: C_2  and  C_4 
REMARK    2  A    between atoms: C_5  and  C_6 
REMARK    3  A    between atoms: C_6  and  C_7 
REMARK    4  A    between atoms: C_7  and  C_8 
REMARK    5  A    between atoms: C_8  and  C_9 
REMARK    6  A    between atoms: C_9  and  C_10 
REMARK       I    between atoms: C_10  and  N_12 
REMARK    7  A    between atoms: N_12  and  C_13 
REMARK    8  A    between atoms: C_13  and  C_14 
REMARK    9  A    between atoms: C_17  and  O_22 
REMARK   10  A    between atoms: C_18  and  O_20 
ROOT
HETATM    1  C   UNK N   1      28.880  27.769  -4.499  0.00  0.00     0.217 C 
HETATM    2  O   UNK N   1      29.534  28.510  -5.213  0.00  0.00    -0.274 OA
HETATM    3  N   UNK N   1      29.170  26.452  -4.410  0.00  0.00    -0.357 N 
HETATM    4  H   UNK N   1      28.623  25.900  -3.806  0.00  0.00     0.162 HD
ENDROOT
BRANCH   3   5
HETATM    5  C   UNK N   1      30.234  25.804  -5.143  0.00  0.00     0.161 C 
BRANCH   5   6
HETATM    6  C   UNK N   1      30.714  24.606  -4.373  0.00  0.00    -0.038 A 
HETATM    7  C   UNK N   1      30.033  24.183  -3.229  0.00  0.00     0.012 A 
HETATM    8  C   UNK N   1      30.497  23.075  -2.510  0.00  0.00     0.040 A 
HETATM    9  C   UNK N   1      31.637  22.378  -2.932  0.00  0.00     0.099 A 
HETATM   10  C   UNK N   1      32.327  22.798  -4.098  0.00  0.00     0.101 A 
HETATM   11  C   UNK N   1      31.852  23.907  -4.793  0.00  0.00     0.048 A 
BRANCH   9  12
HETATM   12  O   UNK N   1      32.053  21.320  -2.216  0.00  0.00    -0.358 OA
HETATM   13  H   UNK N   1      32.584  21.447  -1.456  0.00  0.00     0.217 HD
ENDBRANCH   9  12
BRANCH  10  14
HETATM   14  O   UNK N   1      33.434  22.182  -4.588  0.00  0.00    -0.353 OA
HETATM   15  C   UNK N   1      33.437  21.101  -5.438  0.00  0.00     0.210 C 
ENDBRANCH  10  14
ENDBRANCH   5   6
ENDBRANCH   3   5
BRANCH   1  16
HETATM   16  C   UNK N   1      27.714  28.293  -3.728  0.00  0.00     0.103 C 
BRANCH  16  17
HETATM   17  C   UNK N   1      26.566  28.686  -4.641  0.00  0.00     0.010 C 
BRANCH  17  18
HETATM   18  C   UNK N   1      25.357  27.818  -4.331  0.00  0.00     0.004 C 
BRANCH  18  19
HETATM   19  C   UNK N   1      24.793  27.195  -5.597  0.00  0.00     0.027 C 
BRANCH  19  20
HETATM   20  C   UNK N   1      25.915  26.689  -6.446  0.00  0.00    -0.030 C 
HETATM   21  C   UNK N   1      26.320  25.412  -6.439  0.00  0.00    -0.027 C 
BRANCH  21  22
HETATM   22  C   UNK N   1      25.710  24.341  -5.583  0.00  0.00    -0.001 C 
HETATM   23  C   UNK N   1      25.808  23.018  -6.312  0.00  0.00     0.013 C 
HETATM   24  C   UNK N   1      26.442  24.217  -4.259  0.00  0.00     0.013 C 
ENDBRANCH  21  22
ENDBRANCH  19  20
ENDBRANCH  18  19
ENDBRANCH  17  18
ENDBRANCH  16  17
ENDBRANCH   1  16
TORSDOF 10
ENDMDL
MODEL 8
REMARK VINA RESULT:      -5.9      2.481      7.073
REMARK  10 active torsions:
REMARK  status: ('A' for Active; 'I' for Inactive)
REMARK    1  A    between atoms: C_2  and  C_4 
REMARK    2  A    between atoms: C_5  and  C_6 
REMARK    3  A    between atoms: C_6  and  C_7 
REMARK    4  A    between atoms: C_7  and  C_8 
REMARK    5  A    between atoms: C_8  and  C_9 
REMARK    6  A    between atoms: C_9  and  C_10 
REMARK       I    between atoms: C_10  and  N_12 
REMARK    7  A    between atoms: N_12  and  C_13 
REMARK    8  A    between atoms: C_13  and  C_14 
REMARK    9  A    between atoms: C_17  and  O_22 
REMARK   10  A    between atoms: C_18  and  O_20 
ROOT
HETATM    1  C   UNK N   1      30.539  22.693  -2.633  0.00  0.00     0.217 C 
HETATM    2  O   UNK N   1      30.592  22.973  -1.447  0.00  0.00    -0.274 OA
HETATM    3  N   UNK N   1      29.493  23.083  -3.394  0.00  0.00    -0.357 N 
HETATM    4  H   UNK N   1      29.506  22.847  -4.350  0.00  0.00     0.162 HD
ENDROOT
BRANCH   3   5
HETATM    5  C   UNK N   1      28.358  23.826  -2.896  0.00  0.00     0.161 C 
BRANCH   5   6
HETATM    6  C   UNK N   1      27.522  24.299  -4.053  0.00  0.00    -0.038 A 
HETATM    7  C   UNK N   1      27.455  23.547  -5.228  0.00  0.00     0.012 A 
HETATM    8  C   UNK N   1      26.685  24.003  -6.305  0.00  0.00     0.040 A 
HETATM    9  C   UNK N   1      25.974  25.207  -6.213  0.00  0.00     0.099 A 
HETATM   10  C   UNK N   1      26.032  25.969  -5.018  0.00  0.00     0.101 A 
HETATM   11  C   UNK N   1      26.809  25.500  -3.962  0.00  0.00     0.048 A 
BRANCH   9  12
HETATM   12  O   UNK N   1      25.246  25.612  -7.267  0.00  0.00    -0.358 OA
HETATM   13  H   UNK N   1      25.459  26.413  -7.704  0.00  0.00     0.217 HD
ENDBRANCH   9  12
BRANCH  10  14
HETATM   14  O   UNK N   1      25.371  27.141  -4.833  0.00  0.00    -0.353 OA
HETATM   15  C   UNK N   1      25.575  28.018  -3.794  0.00  0.00     0.210 C 
ENDBRANCH  10  14
ENDBRANCH   5   6
ENDBRANCH   3   5
BRANCH   1  16
HETATM   16  C   UNK N   1      31.617  21.879  -3.269  0.00  0.00     0.103 C 
BRANCH  16  17
HETATM   17  C   UNK N   1      31.065  20.615  -3.906  0.00  0.00     0.010 C 
BRANCH  17  18
HETATM   18  C   UNK N   1      31.313  20.658  -5.405  0.00  0.00     0.004 C 
BRANCH  18  19
HETATM   19  C   UNK N   1      30.035  20.982  -6.160  0.00  0.00     0.027 C 
BRANCH  19  20
HETATM   20  C   UNK N   1      29.726  19.875  -7.117  0.00  0.00    -0.030 C 
HETATM   21  C   UNK N   1      28.783  19.967  -8.065  0.00  0.00    -0.027 C 
BRANCH  21  22
HETATM   22  C   UNK N   1      27.922  21.177  -8.279  0.00  0.00    -0.001 C 
HETATM   23  C   UNK N   1      28.240  21.769  -9.636  0.00  0.00     0.013 C 
HETATM   24  C   UNK N   1      26.449  20.813  -8.245  0.00  0.00     0.013 C 
ENDBRANCH  21  22
ENDBRANCH  19  20
ENDBRANCH  18  19
ENDBRANCH  17  18
ENDBRANCH  16  17
ENDBRANCH   1  16
TORSDOF 10
ENDMDL
MODEL 9
REMARK VINA RESULT:      -5.8     14.019     17.116
REMARK  10 active torsions:
REMARK  status: ('A' for Active; 'I' for Inactive)
REMARK    1  A    between atoms: C_2  and  C_4 
REMARK    2  A    between atoms: C_5  and  C_6 
REMARK    3  A    between atoms: C_6  and  C_7 
REMARK    4  A    between atoms: C_7  and  C_8 
REMARK    5  A    between atoms: C_8  and  C_9 
REMARK    6  A    between atoms: C_9  and  C_10 
REMARK       I    between atoms: C_10  and  N_12 
REMARK    7  A    between atoms: N_12  and  C_13 
REMARK    8  A    between atoms: C_13  and  C_14 
REMARK    9  A    between atoms: C_17  and  O_22 
REMARK   10  A    between atoms: C_18  and  O_20 
ROOT
HETATM    1  C   UNK N   1      34.497  18.077   8.322  0.00  0.00     0.217 C 
HETATM    2  O   UNK N   1      35.233  19.033   8.497  0.00  0.00    -0.274 OA
HETATM    3  N   UNK N   1      34.491  17.035   9.182  0.00  0.00    -0.357 N 
HETATM    4  H   UNK N   1      33.865  16.296   9.005  0.00  0.00     0.162 HD
ENDROOT
BRANCH   3   5
HETATM    5  C   UNK N   1      35.343  16.937  10.345  0.00  0.00     0.161 C 
BRANCH   5   6
HETATM    6  C   UNK N   1      35.600  15.490  10.657  0.00  0.00    -0.038 A 
HETATM    7  C   UNK N   1      36.302  14.687   9.755  0.00  0.00     0.012 A 
HETATM    8  C   UNK N   1      36.524  13.337  10.048  0.00  0.00     0.040 A 
HETATM    9  C   UNK N   1      36.054  12.781  11.246  0.00  0.00     0.099 A 
HETATM   10  C   UNK N   1      35.349  13.594  12.169  0.00  0.00     0.101 A 
HETATM   11  C   UNK N   1      35.133  14.933  11.854  0.00  0.00     0.048 A 
BRANCH   9  12
HETATM   12  O   UNK N   1      36.286  11.481  11.492  0.00  0.00    -0.358 OA
HETATM   13  H   UNK N   1      35.642  10.965  11.936  0.00  0.00     0.217 HD
ENDBRANCH   9  12
BRANCH  10  14
HETATM   14  O   UNK N   1      34.863  13.147  13.356  0.00  0.00    -0.353 OA
HETATM   15  C   UNK N   1      35.439  13.362  14.587  0.00  0.00     0.210 C 
ENDBRANCH  10  14
ENDBRANCH   5   6
ENDBRANCH   3   5
BRANCH   1  16
HETATM   16  C   UNK N   1      33.602  18.018   7.128  0.00  0.00     0.103 C 
BRANCH  16  17
HETATM   17  C   UNK N   1      33.951  16.852   6.220  0.00  0.00     0.010 C 
BRANCH  17  18
HETATM   18  C   UNK N   1      32.676  16.276   5.628  0.00  0.00     0.004 C 
BRANCH  18  19
HETATM   19  C   UNK N   1      31.498  17.208   5.857  0.00  0.00     0.027 C 
BRANCH  19  20
HETATM   20  C   UNK N   1      30.346  16.430   6.410  0.00  0.00    -0.030 C 
HETATM   21  C   UNK N   1      29.485  16.933   7.305  0.00  0.00    -0.027 C 
BRANCH  21  22
HETATM   22  C   UNK N   1      29.569  18.323   7.863  0.00  0.00    -0.001 C 
HETATM   23  C   UNK N   1      28.177  18.781   8.244  0.00  0.00     0.013 C 
HETATM   24  C   UNK N   1      30.445  18.362   9.102  0.00  0.00     0.013 C 
ENDBRANCH  21  22
ENDBRANCH  19  20
ENDBRANCH  18  19
ENDBRANCH  17  18
ENDBRANCH  16  17
ENDBRANCH   1  16
TORSDOF 10
ENDMDL
