MODEL 1
REMARK VINA RESULT:      -5.5      0.000      0.000
REMARK  9 active torsions:
REMARK  status: ('A' for Active; 'I' for Inactive)
REMARK    1  A    between atoms: N_19  and  C_4 
REMARK    2  A    between atoms: N_19  and  C_5 
REMARK    3  A    between atoms: C_7  and  C_6 
REMARK    4  A    between atoms: N_17  and  C_6 
REMARK    5  A    between atoms: N_19  and  C_7 
REMARK    6  A    between atoms: C_14  and  C_10 
REMARK    7  A    between atoms: N_16  and  C_12 
REMARK    8  A    between atoms: O_21  and  C_13 
REMARK    9  A    between atoms: O_20  and  C_14 
ROOT
HETATM    1  C   UNK N   1      32.072  17.876   8.399  0.00  0.00     0.040 A 
HETATM    2  C   UNK N   1      32.242  16.755   5.866  0.00  0.00     0.068 A 
HETATM    3  C   UNK N   1      33.347  17.578   7.890  0.00  0.00     0.049 A 
HETATM    4  C   UNK N   1      30.908  17.627   7.676  0.00  0.00     0.038 A 
HETATM    5  C   UNK N   1      30.996  17.079   6.394  0.00  0.00     0.046 A 
HETATM    6  C   UNK N   1      33.421  16.973   6.589  0.00  0.00     0.085 A 
HETATM    7 Br   UNK N   1      29.219  18.080   8.448  0.00  0.00    -0.049 Br
ENDROOT
BRANCH   3   8
HETATM    8  C   UNK N   1      34.572  17.990   8.678  0.00  0.00     0.149 C 
HETATM    9  N   UNK N   1      35.100  17.275   9.623  0.00  0.00    -0.369 N 
ATOM     10  HN  UNK N   1      35.891  17.693  10.114  1.00  0.00     0.161 HD
BRANCH   9  11
HETATM   11  C   UNK N   1      34.700  15.961  10.063  0.00  0.00     0.152 C 
BRANCH  11  12
HETATM   12  C   UNK N   1      35.831  14.966   9.820  0.00  0.00     0.292 C 
BRANCH  12  13
HETATM   13  N   UNK N   1      36.626  14.793  11.029  0.00  0.00     0.089 N 
BRANCH  13  14
HETATM   14  C   UNK N   1      35.713  14.824  12.161  0.00  0.00     0.268 C 
HETATM   15  C   UNK N   1      36.324  14.089  13.340  0.00  0.00     0.037 C 
ENDBRANCH  13  14
BRANCH  13  16
HETATM   16  C   UNK N   1      37.214  13.460  10.969  0.00  0.00     0.268 C 
HETATM   17  C   UNK N   1      38.481  13.486  10.135  0.00  0.00     0.037 C 
ENDBRANCH  13  16
ENDBRANCH  12  13
ENDBRANCH  11  12
ENDBRANCH   9  11
BRANCH   8  18
HETATM   18  O   UNK N   1      35.125  19.192   8.451  0.00  0.00    -0.346 OA
HETATM   19  H   UNK N   1      35.717  19.599   9.052  0.00  0.00     0.219 HD
ENDBRANCH   8  18
ENDBRANCH   3   8
BRANCH   6  20
HETATM   20  O   UNK N   1      34.576  16.595   5.991  0.00  0.00    -0.355 OA
HETATM   21  C   UNK N   1      35.097  15.324   6.080  0.00  0.00     0.210 C 
ENDBRANCH   6  20
BRANCH   5  22
HETATM   22  N   UNK N   1      29.833  16.850   5.630  0.00  0.00    -0.398 N 
HETATM   23  H   UNK N   1      29.233  16.097   5.836  0.00  0.00     0.156 HD
HETATM   24  H   UNK N   1      29.619  17.450   4.880  0.00  0.00     0.156 HD
ENDBRANCH   5  22
TORSDOF 9
ENDMDL
MODEL 2
REMARK VINA RESULT:      -5.5      2.480      3.605
REMARK  9 active torsions:
REMARK  status: ('A' for Active; 'I' for Inactive)
REMARK    1  A    between atoms: N_19  and  C_4 
REMARK    2  A    between atoms: N_19  and  C_5 
REMARK    3  A    between atoms: C_7  and  C_6 
REMARK    4  A    between atoms: N_17  and  C_6 
REMARK    5  A    between atoms: N_19  and  C_7 
REMARK    6  A    between atoms: C_14  and  C_10 
REMARK    7  A    between atoms: N_16  and  C_12 
REMARK    8  A    between atoms: O_21  and  C_13 
REMARK    9  A    between atoms: O_20  and  C_14 
ROOT
HETATM    1  C   UNK N   1      33.545  17.428   6.061  0.00  0.00     0.040 A 
HETATM    2  C   UNK N   1      30.892  17.243   6.855  0.00  0.00     0.068 A 
HETATM    3  C   UNK N   1      33.225  17.757   7.389  0.00  0.00     0.049 A 
HETATM    4  C   UNK N   1      32.578  17.017   5.146  0.00  0.00     0.038 A 
HETATM    5  C   UNK N   1      31.247  16.908   5.551  0.00  0.00     0.046 A 
HETATM    6  C   UNK N   1      31.845  17.683   7.781  0.00  0.00     0.085 A 
HETATM    7 Br   UNK N   1      33.113  16.578   3.364  0.00  0.00    -0.049 Br
ENDROOT
BRANCH   3   8
HETATM    8  C   UNK N   1      34.341  18.074   8.361  0.00  0.00     0.149 C 
HETATM    9  N   UNK N   1      34.708  17.288   9.326  0.00  0.00    -0.369 N 
ATOM     10  HN  UNK N   1      35.436  17.645   9.945  1.00  0.00     0.161 HD
BRANCH   9  11
HETATM   11  C   UNK N   1      34.206  15.969   9.627  0.00  0.00     0.152 C 
BRANCH  11  12
HETATM   12  C   UNK N   1      35.270  14.924   9.305  0.00  0.00     0.292 C 
BRANCH  12  13
HETATM   13  N   UNK N   1      34.782  13.995   8.294  0.00  0.00     0.089 N 
BRANCH  13  14
HETATM   14  C   UNK N   1      33.335  14.137   8.232  0.00  0.00     0.268 C 
HETATM   15  C   UNK N   1      32.837  13.756   6.849  0.00  0.00     0.037 C 
ENDBRANCH  13  14
BRANCH  13  16
HETATM   16  C   UNK N   1      35.327  14.429   7.012  0.00  0.00     0.268 C 
HETATM   17  C   UNK N   1      36.753  13.935   6.859  0.00  0.00     0.037 C 
ENDBRANCH  13  16
ENDBRANCH  12  13
ENDBRANCH  11  12
ENDBRANCH   9  11
BRANCH   8  18
HETATM   18  O   UNK N   1      34.961  19.263   8.285  0.00  0.00    -0.346 OA
HETATM   19  H   UNK N   1      35.597  19.544   8.912  0.00  0.00     0.219 HD
ENDBRANCH   8  18
ENDBRANCH   3   8
BRANCH   6  20
HETATM   20  O   UNK N   1      31.386  18.010   9.014  0.00  0.00    -0.355 OA
HETATM   21  C   UNK N   1      30.191  18.654   9.233  0.00  0.00     0.210 C 
ENDBRANCH   6  20
BRANCH   5  22
HETATM   22  N   UNK N   1      30.256  16.461   4.652  0.00  0.00    -0.398 N 
HETATM   23  H   UNK N   1      30.223  16.800   3.728  0.00  0.00     0.156 HD
HETATM   24  H   UNK N   1      29.589  15.803   4.952  0.00  0.00     0.156 HD
ENDBRANCH   5  22
TORSDOF 9
ENDMDL
MODEL 3
REMARK VINA RESULT:      -5.5      3.337      5.041
REMARK  9 active torsions:
REMARK  status: ('A' for Active; 'I' for Inactive)
REMARK    1  A    between atoms: N_19  and  C_4 
REMARK    2  A    between atoms: N_19  and  C_5 
REMARK    3  A    between atoms: C_7  and  C_6 
REMARK    4  A    between atoms: N_17  and  C_6 
REMARK    5  A    between atoms: N_19  and  C_7 
REMARK    6  A    between atoms: C_14  and  C_10 
REMARK    7  A    between atoms: N_16  and  C_12 
REMARK    8  A    between atoms: O_21  and  C_13 
REMARK    9  A    between atoms: O_20  and  C_14 
ROOT
HETATM    1  C   UNK N   1      27.952  19.314   7.461  0.00  0.00     0.040 A 
HETATM    2  C   UNK N   1      28.681  17.962   5.150  0.00  0.00     0.068 A 
HETATM    3  C   UNK N   1      28.608  18.079   7.595  0.00  0.00     0.049 A 
HETATM    4  C   UNK N   1      27.662  19.869   6.217  0.00  0.00     0.038 A 
HETATM    5  C   UNK N   1      28.045  19.196   5.055  0.00  0.00     0.046 A 
HETATM    6  C   UNK N   1      28.957  17.376   6.391  0.00  0.00     0.085 A 
HETATM    7 Br   UNK N   1      26.777  21.562   6.138  0.00  0.00    -0.049 Br
ENDROOT
BRANCH   3   8
HETATM    8  C   UNK N   1      29.003  17.597   8.974  0.00  0.00     0.149 C 
HETATM    9  N   UNK N   1      30.216  17.626   9.433  0.00  0.00    -0.369 N 
ATOM     10  HN  UNK N   1      30.357  17.218  10.357  1.00  0.00     0.161 HD
BRANCH   9  11
HETATM   11  C   UNK N   1      31.389  18.164   8.789  0.00  0.00     0.152 C 
BRANCH  11  12
HETATM   12  C   UNK N   1      32.329  17.029   8.392  0.00  0.00     0.292 C 
BRANCH  12  13
HETATM   13  N   UNK N   1      33.681  17.534   8.192  0.00  0.00     0.089 N 
BRANCH  13  14
HETATM   14  C   UNK N   1      34.499  17.041   9.289  0.00  0.00     0.268 C 
HETATM   15  C   UNK N   1      34.751  15.554   9.118  0.00  0.00     0.037 C 
ENDBRANCH  13  14
BRANCH  13  16
HETATM   16  C   UNK N   1      34.184  16.938   6.959  0.00  0.00     0.268 C 
HETATM   17  C   UNK N   1      33.367  17.420   5.776  0.00  0.00     0.037 C 
ENDBRANCH  13  16
ENDBRANCH  12  13
ENDBRANCH  11  12
ENDBRANCH   9  11
BRANCH   8  18
HETATM   18  O   UNK N   1      28.073  17.039   9.766  0.00  0.00    -0.346 OA
HETATM   19  H   UNK N   1      27.596  17.526  10.408  0.00  0.00     0.219 HD
ENDBRANCH   8  18
ENDBRANCH   3   8
BRANCH   6  20
HETATM   20  O   UNK N   1      29.554  16.160   6.367  0.00  0.00    -0.355 OA
HETATM   21  C   UNK N   1      30.046  15.577   5.222  0.00  0.00     0.210 C 
ENDBRANCH   6  20
BRANCH   5  22
HETATM   22  N   UNK N   1      27.792  19.755   3.785  0.00  0.00    -0.398 N 
HETATM   23  H   UNK N   1      28.179  19.357   2.972  0.00  0.00     0.156 HD
HETATM   24  H   UNK N   1      27.221  20.553   3.710  0.00  0.00     0.156 HD
ENDBRANCH   5  22
TORSDOF 9
ENDMDL
MODEL 4
REMARK VINA RESULT:      -5.4      1.936      2.700
REMARK  9 active torsions:
REMARK  status: ('A' for Active; 'I' for Inactive)
REMARK    1  A    between atoms: N_19  and  C_4 
REMARK    2  A    between atoms: N_19  and  C_5 
REMARK    3  A    between atoms: C_7  and  C_6 
REMARK    4  A    between atoms: N_17  and  C_6 
REMARK    5  A    between atoms: N_19  and  C_7 
REMARK    6  A    between atoms: C_14  and  C_10 
REMARK    7  A    between atoms: N_16  and  C_12 
REMARK    8  A    between atoms: O_21  and  C_13 
REMARK    9  A    between atoms: O_20  and  C_14 
ROOT
HETATM    1  C   UNK N   1      33.614  17.308   6.022  0.00  0.00     0.040 A 
HETATM    2  C   UNK N   1      30.952  17.227   6.799  0.00  0.00     0.068 A 
HETATM    3  C   UNK N   1      33.298  17.668   7.343  0.00  0.00     0.049 A 
HETATM    4  C   UNK N   1      32.640  16.917   5.106  0.00  0.00     0.038 A 
HETATM    5  C   UNK N   1      31.303  16.859   5.504  0.00  0.00     0.046 A 
HETATM    6  C   UNK N   1      31.913  17.648   7.726  0.00  0.00     0.085 A 
HETATM    7 Br   UNK N   1      33.172  16.432   3.335  0.00  0.00    -0.049 Br
ENDROOT
BRANCH   3   8
HETATM    8  C   UNK N   1      34.417  17.961   8.317  0.00  0.00     0.149 C 
HETATM    9  N   UNK N   1      34.846  17.118   9.206  0.00  0.00    -0.369 N 
ATOM     10  HN  UNK N   1      35.568  17.460   9.839  1.00  0.00     0.161 HD
BRANCH   9  11
HETATM   11  C   UNK N   1      34.418  15.754   9.403  0.00  0.00     0.152 C 
BRANCH  11  12
HETATM   12  C   UNK N   1      34.560  15.375  10.874  0.00  0.00     0.292 C 
BRANCH  12  13
HETATM   13  N   UNK N   1      35.955  15.112  11.201  0.00  0.00     0.089 N 
BRANCH  13  14
HETATM   14  C   UNK N   1      36.009  14.704  12.596  0.00  0.00     0.268 C 
HETATM   15  C   UNK N   1      35.318  13.364  12.770  0.00  0.00     0.037 C 
ENDBRANCH  13  14
BRANCH  13  16
HETATM   16  C   UNK N   1      36.380  13.977  10.389  0.00  0.00     0.268 C 
HETATM   17  C   UNK N   1      37.793  14.199   9.883  0.00  0.00     0.037 C 
ENDBRANCH  13  16
ENDBRANCH  12  13
ENDBRANCH  11  12
ENDBRANCH   9  11
BRANCH   8  18
HETATM   18  O   UNK N   1      34.974  19.184   8.331  0.00  0.00    -0.346 OA
HETATM   19  H   UNK N   1      34.668  19.873   8.886  0.00  0.00     0.219 HD
ENDBRANCH   8  18
ENDBRANCH   3   8
BRANCH   6  20
HETATM   20  O   UNK N   1      31.458  18.009   8.950  0.00  0.00    -0.355 OA
HETATM   21  C   UNK N   1      30.247  18.630   9.157  0.00  0.00     0.210 C 
ENDBRANCH   6  20
BRANCH   5  22
HETATM   22  N   UNK N   1      30.304  16.434   4.604  0.00  0.00    -0.398 N 
HETATM   23  H   UNK N   1      30.520  15.827   3.859  0.00  0.00     0.156 HD
HETATM   24  H   UNK N   1      29.379  16.747   4.722  0.00  0.00     0.156 HD
ENDBRANCH   5  22
TORSDOF 9
ENDMDL
MODEL 5
REMARK VINA RESULT:      -5.3      9.317     12.459
REMARK  9 active torsions:
REMARK  status: ('A' for Active; 'I' for Inactive)
REMARK    1  A    between atoms: N_19  and  C_4 
REMARK    2  A    between atoms: N_19  and  C_5 
REMARK    3  A    between atoms: C_7  and  C_6 
REMARK    4  A    between atoms: N_17  and  C_6 
REMARK    5  A    between atoms: N_19  and  C_7 
REMARK    6  A    between atoms: C_14  and  C_10 
REMARK    7  A    between atoms: N_16  and  C_12 
REMARK    8  A    between atoms: O_21  and  C_13 
REMARK    9  A    between atoms: O_20  and  C_14 
ROOT
HETATM    1  C   UNK N   1      21.324  16.634   3.846  0.00  0.00     0.040 A 
HETATM    2  C   UNK N   1      20.621  18.744   2.185  0.00  0.00     0.068 A 
HETATM    3  C   UNK N   1      21.855  17.905   4.126  0.00  0.00     0.049 A 
HETATM    4  C   UNK N   1      20.467  16.410   2.771  0.00  0.00     0.038 A 
HETATM    5  C   UNK N   1      20.100  17.475   1.947  0.00  0.00     0.046 A 
HETATM    6  C   UNK N   1      21.505  18.983   3.244  0.00  0.00     0.085 A 
HETATM    7 Br   UNK N   1      19.786  14.648   2.478  0.00  0.00    -0.049 Br
ENDROOT
BRANCH   3   8
HETATM    8  C   UNK N   1      22.678  18.101   5.381  0.00  0.00     0.149 C 
HETATM    9  N   UNK N   1      23.962  17.923   5.442  0.00  0.00    -0.369 N 
ATOM     10  HN  UNK N   1      24.388  18.033   6.361  1.00  0.00     0.161 HD
BRANCH   9  11
HETATM   11  C   UNK N   1      24.856  17.584   4.362  0.00  0.00     0.152 C 
BRANCH  11  12
HETATM   12  C   UNK N   1      25.839  18.727   4.125  0.00  0.00     0.292 C 
BRANCH  12  13
HETATM   13  N   UNK N   1      26.239  19.325   5.393  0.00  0.00     0.089 N 
BRANCH  13  14
HETATM   14  C   UNK N   1      27.426  18.620   5.853  0.00  0.00     0.268 C 
HETATM   15  C   UNK N   1      28.502  18.666   4.784  0.00  0.00     0.037 C 
ENDBRANCH  13  14
BRANCH  13  16
HETATM   16  C   UNK N   1      26.621  20.705   5.115  0.00  0.00     0.268 C 
HETATM   17  C   UNK N   1      26.638  21.509   6.402  0.00  0.00     0.037 C 
ENDBRANCH  13  16
ENDBRANCH  12  13
ENDBRANCH  11  12
ENDBRANCH   9  11
BRANCH   8  18
HETATM   18  O   UNK N   1      22.059  18.413   6.531  0.00  0.00    -0.346 OA
HETATM   19  H   UNK N   1      21.802  19.288   6.747  0.00  0.00     0.219 HD
ENDBRANCH   8  18
ENDBRANCH   3   8
BRANCH   6  20
HETATM   20  O   UNK N   1      21.973  20.249   3.367  0.00  0.00    -0.355 OA
HETATM   21  C   UNK N   1      23.141  20.687   2.785  0.00  0.00     0.210 C 
ENDBRANCH   6  20
BRANCH   5  22
HETATM   22  N   UNK N   1      19.207  17.279   0.873  0.00  0.00    -0.398 N 
HETATM   23  H   UNK N   1      18.605  18.000   0.579  0.00  0.00     0.156 HD
HETATM   24  H   UNK N   1      19.185  16.410   0.413  0.00  0.00     0.156 HD
ENDBRANCH   5  22
TORSDOF 9
ENDMDL
MODEL 6
REMARK VINA RESULT:      -5.3      2.973      6.675
REMARK  9 active torsions:
REMARK  status: ('A' for Active; 'I' for Inactive)
REMARK    1  A    between atoms: N_19  and  C_4 
REMARK    2  A    between atoms: N_19  and  C_5 
REMARK    3  A    between atoms: C_7  and  C_6 
REMARK    4  A    between atoms: N_17  and  C_6 
REMARK    5  A    between atoms: N_19  and  C_7 
REMARK    6  A    between atoms: C_14  and  C_10 
REMARK    7  A    between atoms: N_16  and  C_12 
REMARK    8  A    between atoms: O_21  and  C_13 
REMARK    9  A    between atoms: O_20  and  C_14 
ROOT
HETATM    1  C   UNK N   1      35.830  15.107  12.187  0.00  0.00     0.040 A 
HETATM    2  C   UNK N   1      37.060  13.235  10.549  0.00  0.00     0.068 A 
HETATM    3  C   UNK N   1      35.830  15.336  10.800  0.00  0.00     0.049 A 
HETATM    4  C   UNK N   1      36.423  13.981  12.751  0.00  0.00     0.038 A 
HETATM    5  C   UNK N   1      37.027  13.031  11.925  0.00  0.00     0.046 A 
HETATM    6  C   UNK N   1      36.493  14.373   9.965  0.00  0.00     0.085 A 
HETATM    7 Br   UNK N   1      36.360  13.751  14.648  0.00  0.00    -0.049 Br
ENDROOT
BRANCH   3   8
HETATM    8  C   UNK N   1      35.059  16.515  10.246  0.00  0.00     0.149 C 
HETATM    9  N   UNK N   1      33.884  16.423   9.703  0.00  0.00    -0.369 N 
ATOM     10  HN  UNK N   1      33.497  17.284   9.318  1.00  0.00     0.161 HD
BRANCH   9  11
HETATM   11  C   UNK N   1      33.061  15.244   9.579  0.00  0.00     0.152 C 
BRANCH  11  12
HETATM   12  C   UNK N   1      32.237  15.321   8.297  0.00  0.00     0.292 C 
BRANCH  12  13
HETATM   13  N   UNK N   1      32.019  16.710   7.914  0.00  0.00     0.089 N 
BRANCH  13  14
HETATM   14  C   UNK N   1      32.196  16.800   6.473  0.00  0.00     0.268 C 
HETATM   15  C   UNK N   1      33.586  17.320   6.155  0.00  0.00     0.037 C 
ENDBRANCH  13  14
BRANCH  13  16
HETATM   16  C   UNK N   1      30.625  17.024   8.211  0.00  0.00     0.268 C 
HETATM   17  C   UNK N   1      30.537  18.331   8.976  0.00  0.00     0.037 C 
ENDBRANCH  13  16
ENDBRANCH  12  13
ENDBRANCH  11  12
ENDBRANCH   9  11
BRANCH   8  18
HETATM   18  O   UNK N   1      35.630  17.730  10.242  0.00  0.00    -0.346 OA
HETATM   19  H   UNK N   1      36.028  18.100   9.479  0.00  0.00     0.219 HD
ENDBRANCH   8  18
ENDBRANCH   3   8
BRANCH   6  20
HETATM   20  O   UNK N   1      36.607  14.485   8.619  0.00  0.00    -0.355 OA
HETATM   21  C   UNK N   1      35.828  13.781   7.730  0.00  0.00     0.210 C 
ENDBRANCH   6  20
BRANCH   5  22
HETATM   22  N   UNK N   1      37.604  11.866  12.472  0.00  0.00    -0.398 N 
HETATM   23  H   UNK N   1      38.455  11.908  12.966  0.00  0.00     0.156 HD
HETATM   24  H   UNK N   1      37.151  11.000  12.359  0.00  0.00     0.156 HD
ENDBRANCH   5  22
TORSDOF 9
ENDMDL
MODEL 7
REMARK VINA RESULT:      -5.2      5.063      8.965
REMARK  9 active torsions:
REMARK  status: ('A' for Active; 'I' for Inactive)
REMARK    1  A    between atoms: N_19  and  C_4 
REMARK    2  A    between atoms: N_19  and  C_5 
REMARK    3  A    between atoms: C_7  and  C_6 
REMARK    4  A    between atoms: N_17  and  C_6 
REMARK    5  A    between atoms: N_19  and  C_7 
REMARK    6  A    between atoms: C_14  and  C_10 
REMARK    7  A    between atoms: N_16  and  C_12 
REMARK    8  A    between atoms: O_21  and  C_13 
REMARK    9  A    between atoms: O_20  and  C_14 
ROOT
HETATM    1  C   UNK N   1      30.429  17.945   8.204  0.00  0.00     0.040 A 
HETATM    2  C   UNK N   1      30.095  16.170   6.097  0.00  0.00     0.068 A 
HETATM    3  C   UNK N   1      29.136  17.772   7.682  0.00  0.00     0.049 A 
HETATM    4  C   UNK N   1      31.531  17.260   7.699  0.00  0.00     0.038 A 
HETATM    5  C   UNK N   1      31.359  16.354   6.651  0.00  0.00     0.046 A 
HETATM    6  C   UNK N   1      28.980  16.870   6.574  0.00  0.00     0.085 A 
HETATM    7 Br   UNK N   1      33.248  17.554   8.485  0.00  0.00    -0.049 Br
ENDROOT
BRANCH   3   8
HETATM    8  C   UNK N   1      27.967  18.453   8.360  0.00  0.00     0.149 C 
HETATM    9  N   UNK N   1      27.368  19.504   7.891  0.00  0.00    -0.369 N 
ATOM     10  HN  UNK N   1      26.631  19.899   8.473  1.00  0.00     0.161 HD
BRANCH   9  11
HETATM   11  C   UNK N   1      27.626  20.181   6.643  0.00  0.00     0.152 C 
BRANCH  11  12
HETATM   12  C   UNK N   1      26.334  20.293   5.838  0.00  0.00     0.292 C 
BRANCH  12  13
HETATM   13  N   UNK N   1      26.137  19.101   5.023  0.00  0.00     0.089 N 
BRANCH  13  14
HETATM   14  C   UNK N   1      24.708  18.960   4.792  0.00  0.00     0.268 C 
HETATM   15  C   UNK N   1      24.390  17.537   4.369  0.00  0.00     0.037 C 
ENDBRANCH  13  14
BRANCH  13  16
HETATM   16  C   UNK N   1      26.773  19.352   3.734  0.00  0.00     0.268 C 
HETATM   17  C   UNK N   1      26.226  20.629   3.124  0.00  0.00     0.037 C 
ENDBRANCH  13  16
ENDBRANCH  12  13
ENDBRANCH  11  12
ENDBRANCH   9  11
BRANCH   8  18
HETATM   18  O   UNK N   1      27.547  18.004   9.554  0.00  0.00    -0.346 OA
HETATM   19  H   UNK N   1      26.650  18.036   9.820  0.00  0.00     0.219 HD
ENDBRANCH   8  18
ENDBRANCH   3   8
BRANCH   6  20
HETATM   20  O   UNK N   1      27.803  16.636   5.944  0.00  0.00    -0.355 OA
HETATM   21  C   UNK N   1      26.986  15.568   6.234  0.00  0.00     0.210 C 
ENDBRANCH   6  20
BRANCH   5  22
HETATM   22  N   UNK N   1      32.454  15.623   6.145  0.00  0.00    -0.398 N 
HETATM   23  H   UNK N   1      32.315  14.842   5.563  0.00  0.00     0.156 HD
HETATM   24  H   UNK N   1      33.370  15.897   6.378  0.00  0.00     0.156 HD
ENDBRANCH   5  22
TORSDOF 9
ENDMDL
MODEL 8
REMARK VINA RESULT:      -5.1      4.435      6.211
REMARK  9 active torsions:
REMARK  status: ('A' for Active; 'I' for Inactive)
REMARK    1  A    between atoms: N_19  and  C_4 
REMARK    2  A    between atoms: N_19  and  C_5 
REMARK    3  A    between atoms: C_7  and  C_6 
REMARK    4  A    between atoms: N_17  and  C_6 
REMARK    5  A    between atoms: N_19  and  C_7 
REMARK    6  A    between atoms: C_14  and  C_10 
REMARK    7  A    between atoms: N_16  and  C_12 
REMARK    8  A    between atoms: O_21  and  C_13 
REMARK    9  A    between atoms: O_20  and  C_14 
ROOT
HETATM    1  C   UNK N   1      28.326  16.589   6.821  0.00  0.00     0.040 A 
HETATM    2  C   UNK N   1      27.697  18.646   5.067  0.00  0.00     0.068 A 
HETATM    3  C   UNK N   1      28.263  17.898   7.329  0.00  0.00     0.049 A 
HETATM    4  C   UNK N   1      28.084  16.303   5.479  0.00  0.00     0.038 A 
HETATM    5  C   UNK N   1      27.751  17.336   4.602  0.00  0.00     0.046 A 
HETATM    6  C   UNK N   1      27.963  18.958   6.406  0.00  0.00     0.085 A 
HETATM    7 Br   UNK N   1      28.181  14.488   4.886  0.00  0.00    -0.049 Br
ENDROOT
BRANCH   3   8
HETATM    8  C   UNK N   1      28.413  18.121   8.818  0.00  0.00     0.149 C 
HETATM    9  N   UNK N   1      29.526  18.460   9.392  0.00  0.00    -0.369 N 
ATOM     10  HN  UNK N   1      29.506  18.523  10.410  1.00  0.00     0.161 HD
BRANCH   9  11
HETATM   11  C   UNK N   1      30.788  18.757   8.761  0.00  0.00     0.152 C 
BRANCH  11  12
HETATM   12  C   UNK N   1      31.573  17.466   8.540  0.00  0.00     0.292 C 
BRANCH  12  13
HETATM   13  N   UNK N   1      32.396  17.569   7.343  0.00  0.00     0.089 N 
BRANCH  13  14
HETATM   14  C   UNK N   1      33.750  17.178   7.707  0.00  0.00     0.268 C 
HETATM   15  C   UNK N   1      34.527  18.390   8.188  0.00  0.00     0.037 C 
ENDBRANCH  13  14
BRANCH  13  16
HETATM   16  C   UNK N   1      31.892  16.588   6.388  0.00  0.00     0.268 C 
HETATM   17  C   UNK N   1      31.641  17.249   5.046  0.00  0.00     0.037 C 
ENDBRANCH  13  16
ENDBRANCH  12  13
ENDBRANCH  11  12
ENDBRANCH   9  11
BRANCH   8  18
HETATM   18  O   UNK N   1      27.364  17.894   9.625  0.00  0.00    -0.346 OA
HETATM   19  H   UNK N   1      26.497  17.750   9.301  0.00  0.00     0.219 HD
ENDBRANCH   8  18
ENDBRANCH   3   8
BRANCH   6  20
HETATM   20  O   UNK N   1      27.910  20.269   6.745  0.00  0.00    -0.355 OA
HETATM   21  C   UNK N   1      27.250  21.220   6.002  0.00  0.00     0.210 C 
ENDBRANCH   6  20
BRANCH   5  22
HETATM   22  N   UNK N   1      27.469  17.065   3.247  0.00  0.00    -0.398 N 
HETATM   23  H   UNK N   1      27.577  16.158   2.880  0.00  0.00     0.156 HD
HETATM   24  H   UNK N   1      27.161  17.792   2.660  0.00  0.00     0.156 HD
ENDBRANCH   5  22
TORSDOF 9
ENDMDL
MODEL 9
REMARK VINA RESULT:      -5.1      3.181      4.464
REMARK  9 active torsions:
REMARK  status: ('A' for Active; 'I' for Inactive)
REMARK    1  A    between atoms: N_19  and  C_4 
REMARK    2  A    between atoms: N_19  and  C_5 
REMARK    3  A    between atoms: C_7  and  C_6 
REMARK    4  A    between atoms: N_17  and  C_6 
REMARK    5  A    between atoms: N_19  and  C_7 
REMARK    6  A    between atoms: C_14  and  C_10 
REMARK    7  A    between atoms: N_16  and  C_12 
REMARK    8  A    between atoms: O_21  and  C_13 
REMARK    9  A    between atoms: O_20  and  C_14 
ROOT
HETATM    1  C   UNK N   1      34.737  16.041   9.563  0.00  0.00     0.040 A 
HETATM    2  C   UNK N   1      33.523  13.716   8.655  0.00  0.00     0.068 A 
HETATM    3  C   UNK N   1      35.265  14.809   9.985  0.00  0.00     0.049 A 
HETATM    4  C   UNK N   1      33.636  16.124   8.714  0.00  0.00     0.038 A 
HETATM    5  C   UNK N   1      33.038  14.954   8.243  0.00  0.00     0.046 A 
HETATM    6  C   UNK N   1      34.612  13.613   9.529  0.00  0.00     0.085 A 
HETATM    7 Br   UNK N   1      32.999  17.847   8.185  0.00  0.00    -0.049 Br
ENDROOT
BRANCH   3   8
HETATM    8  C   UNK N   1      36.536  14.792  10.806  0.00  0.00     0.149 C 
HETATM    9  N   UNK N   1      36.588  14.446  12.055  0.00  0.00    -0.369 N 
ATOM     10  HN  UNK N   1      37.497  14.533  12.508  1.00  0.00     0.161 HD
BRANCH   9  11
HETATM   11  C   UNK N   1      35.510  13.957  12.880  0.00  0.00     0.152 C 
BRANCH  11  12
HETATM   12  C   UNK N   1      36.000  13.763  14.312  0.00  0.00     0.292 C 
BRANCH  12  13
HETATM   13  N   UNK N   1      35.469  12.525  14.868  0.00  0.00     0.089 N 
BRANCH  13  14
HETATM   14  C   UNK N   1      34.523  12.885  15.913  0.00  0.00     0.268 C 
HETATM   15  C   UNK N   1      35.234  12.962  17.251  0.00  0.00     0.037 C 
ENDBRANCH  13  14
BRANCH  13  16
HETATM   16  C   UNK N   1      34.725  11.859  13.804  0.00  0.00     0.268 C 
HETATM   17  C   UNK N   1      33.733  10.877  14.398  0.00  0.00     0.037 C 
ENDBRANCH  13  16
ENDBRANCH  12  13
ENDBRANCH  11  12
ENDBRANCH   9  11
BRANCH   8  18
HETATM   18  O   UNK N   1      37.682  15.219  10.251  0.00  0.00    -0.346 OA
HETATM   19  H   UNK N   1      38.438  15.441  10.758  0.00  0.00     0.219 HD
ENDBRANCH   8  18
ENDBRANCH   3   8
BRANCH   6  20
HETATM   20  O   UNK N   1      34.984  12.360   9.887  0.00  0.00    -0.355 OA
HETATM   21  C   UNK N   1      34.102  11.310  10.006  0.00  0.00     0.210 C 
ENDBRANCH   6  20
BRANCH   5  22
HETATM   22  N   UNK N   1      31.944  15.014   7.355  0.00  0.00    -0.398 N 
HETATM   23  H   UNK N   1      31.741  14.262   6.752  0.00  0.00     0.156 HD
HETATM   24  H   UNK N   1      31.375  15.816   7.338  0.00  0.00     0.156 HD
ENDBRANCH   5  22
TORSDOF 9
ENDMDL
