MODEL 1
REMARK VINA RESULT:      -4.7      0.000      0.000
REMARK  20 active torsions:
REMARK  status: ('A' for Active; 'I' for Inactive)
REMARK    1  A    between atoms: C_6  and  C_5 
REMARK    2  A    between atoms: C_7  and  C_6 
REMARK    3  A    between atoms: C_8  and  C_7 
REMARK    4  A    between atoms: C_9  and  C_8 
REMARK    5  A    between atoms: C_10  and  C_9 
REMARK    6  A    between atoms: C_11  and  C_10 
REMARK    7  A    between atoms: C_12  and  C_11 
REMARK    8  A    between atoms: C_13  and  C_12 
REMARK    9  A    between atoms: C_14  and  C_13 
REMARK   10  A    between atoms: C_15  and  C_14 
REMARK   11  A    between atoms: C_16  and  C_15 
REMARK   12  A    between atoms: C_17  and  C_16 
REMARK   13  A    between atoms: C_18  and  C_17 
REMARK   14  A    between atoms: C_20  and  C_18 
REMARK   15  A    between atoms: C_21  and  C_19 
REMARK   16  A    between atoms: N_22  and  C_19 
REMARK   17  A    between atoms: O_25  and  C_20 
REMARK   18  A    between atoms: O_26  and  C_21 
REMARK   19  A    between atoms: P_27  and  O_25 
REMARK   20  A    between atoms: P_27  and  O_26 
ROOT
HETATM    1  C   UNK N   1      29.960  26.837  -4.885  0.00  0.00     0.002 C 
ENDROOT
BRANCH   1   2
HETATM    2  C   UNK N   1      29.911  27.491  -3.507  0.00  0.00     0.000 C 
BRANCH   2   3
HETATM    3  C   UNK N   1      29.305  28.891  -3.512  0.00  0.00     0.000 C 
BRANCH   3   4
HETATM    4  C   UNK N   1      28.011  28.925  -2.705  0.00  0.00     0.000 C 
BRANCH   4   5
HETATM    5  C   UNK N   1      26.885  29.600  -3.477  0.00  0.00     0.000 C 
BRANCH   5   6
HETATM    6  C   UNK N   1      25.884  28.575  -3.990  0.00  0.00     0.000 C 
BRANCH   6   7
HETATM    7  C   UNK N   1      26.041  27.274  -3.235  0.00  0.00     0.000 C 
BRANCH   7   8
HETATM    8  C   UNK N   1      26.367  26.167  -4.216  0.00  0.00     0.000 C 
BRANCH   8   9
HETATM    9  C   UNK N   1      25.337  26.128  -5.324  0.00  0.00     0.000 C 
BRANCH   9  10
HETATM   10  C   UNK N   1      26.007  25.971  -6.673  0.00  0.00     0.000 C 
BRANCH  10  11
HETATM   11  C   UNK N   1      26.699  27.269  -7.019  0.00  0.00     0.000 C 
BRANCH  11  12
HETATM   12  C   UNK N   1      27.850  26.988  -7.957  0.00  0.00    -0.000 C 
BRANCH  12  13
HETATM   13  C   UNK N   1      28.654  28.255  -8.148  0.00  0.00    -0.005 C 
HETATM   14  C   UNK N   1      28.367  29.208  -7.008  0.00  0.00     0.005 C 
ENDBRANCH  12  13
ENDBRANCH  11  12
ENDBRANCH  10  11
ENDBRANCH   9  10
ENDBRANCH   8   9
ENDBRANCH   7   8
ENDBRANCH   6   7
ENDBRANCH   5   6
ENDBRANCH   4   5
ENDBRANCH   3   4
ENDBRANCH   2   3
ENDBRANCH   1   2
BRANCH   1  15
HETATM   15  C   UNK N   1      29.962  25.315  -4.830  0.00  0.00     0.027 C 
BRANCH  15  16
HETATM   16  C   UNK N   1      30.655  24.841  -3.559  0.00  0.00     0.181 C 
BRANCH  16  17
HETATM   17  O   UNK N   1      31.506  23.773  -3.855  0.00  0.00    -0.290 OA
BRANCH  17  18
HETATM   18  P   UNK N   1      31.058  22.446  -2.808  0.00  0.00     0.408 P 
HETATM   19  O   UNK N   1      32.336  21.724  -2.301  0.00  0.00    -0.624 OA
HETATM   20  O   UNK N   1      30.256  23.030  -1.383  0.00  0.00    -0.624 OA
BRANCH  18  21
HETATM   21  O   UNK N   1      30.093  21.251  -3.627  0.00  0.00    -0.288 OA
BRANCH  21  22
HETATM   22  C   UNK N   1      30.508  21.306  -4.957  0.00  0.00     0.209 C 
BRANCH  22  23
HETATM   23  C   UNK N   1      31.436  20.127  -5.259  0.00  0.00     0.262 C 
BRANCH  23  24
HETATM   24  N   UNK N   1      32.307  20.365  -6.407  0.00  0.00    -0.077 N 
HETATM   25  C   UNK N   1      32.503  21.790  -6.629  0.00  0.00     0.271 C 
HETATM   26  C   UNK N   1      33.599  19.764  -6.131  0.00  0.00     0.271 C 
HETATM   27  C   UNK N   1      31.771  19.751  -7.615  0.00  0.00     0.271 C 
ENDBRANCH  23  24
ENDBRANCH  22  23
ENDBRANCH  21  22
ENDBRANCH  18  21
ENDBRANCH  17  18
ENDBRANCH  16  17
ENDBRANCH  15  16
ENDBRANCH   1  15
TORSDOF 20
ENDMDL
MODEL 2
REMARK VINA RESULT:      -4.7     17.794     21.191
REMARK  20 active torsions:
REMARK  status: ('A' for Active; 'I' for Inactive)
REMARK    1  A    between atoms: C_6  and  C_5 
REMARK    2  A    between atoms: C_7  and  C_6 
REMARK    3  A    between atoms: C_8  and  C_7 
REMARK    4  A    between atoms: C_9  and  C_8 
REMARK    5  A    between atoms: C_10  and  C_9 
REMARK    6  A    between atoms: C_11  and  C_10 
REMARK    7  A    between atoms: C_12  and  C_11 
REMARK    8  A    between atoms: C_13  and  C_12 
REMARK    9  A    between atoms: C_14  and  C_13 
REMARK   10  A    between atoms: C_15  and  C_14 
REMARK   11  A    between atoms: C_16  and  C_15 
REMARK   12  A    between atoms: C_17  and  C_16 
REMARK   13  A    between atoms: C_18  and  C_17 
REMARK   14  A    between atoms: C_20  and  C_18 
REMARK   15  A    between atoms: C_21  and  C_19 
REMARK   16  A    between atoms: N_22  and  C_19 
REMARK   17  A    between atoms: O_25  and  C_20 
REMARK   18  A    between atoms: O_26  and  C_21 
REMARK   19  A    between atoms: P_27  and  O_25 
REMARK   20  A    between atoms: P_27  and  O_26 
ROOT
HETATM    1  C   UNK N   1      34.680  14.821  11.455  0.00  0.00     0.002 C 
ENDROOT
BRANCH   1   2
HETATM    2  C   UNK N   1      35.199  13.739  12.398  0.00  0.00     0.000 C 
BRANCH   2   3
HETATM    3  C   UNK N   1      35.719  12.496  11.681  0.00  0.00     0.000 C 
BRANCH   3   4
HETATM    4  C   UNK N   1      37.194  12.264  11.997  0.00  0.00     0.000 C 
BRANCH   4   5
HETATM    5  C   UNK N   1      37.507  10.782  12.158  0.00  0.00     0.000 C 
BRANCH   5   6
HETATM    6  C   UNK N   1      36.266  10.003  12.567  0.00  0.00     0.000 C 
BRANCH   6   7
HETATM    7  C   UNK N   1      36.350   9.627  14.030  0.00  0.00     0.000 C 
BRANCH   7   8
HETATM    8  C   UNK N   1      34.963   9.685  14.637  0.00  0.00     0.000 C 
BRANCH   8   9
HETATM    9  C   UNK N   1      34.724  11.040  15.269  0.00  0.00     0.000 C 
BRANCH   9  10
HETATM   10  C   UNK N   1      36.005  11.586  15.863  0.00  0.00     0.000 C 
BRANCH  10  11
HETATM   11  C   UNK N   1      35.848  13.077  16.055  0.00  0.00     0.000 C 
BRANCH  11  12
HETATM   12  C   UNK N   1      34.694  13.343  16.993  0.00  0.00    -0.000 C 
BRANCH  12  13
HETATM   13  C   UNK N   1      35.225  13.963  18.266  0.00  0.00    -0.005 C 
HETATM   14  C   UNK N   1      36.089  15.157  17.921  0.00  0.00     0.005 C 
ENDBRANCH  12  13
ENDBRANCH  11  12
ENDBRANCH  10  11
ENDBRANCH   9  10
ENDBRANCH   8   9
ENDBRANCH   7   8
ENDBRANCH   6   7
ENDBRANCH   5   6
ENDBRANCH   4   5
ENDBRANCH   3   4
ENDBRANCH   2   3
ENDBRANCH   1   2
BRANCH   1  15
HETATM   15  C   UNK N   1      35.786  15.675  10.850  0.00  0.00     0.027 C 
BRANCH  15  16
HETATM   16  C   UNK N   1      35.187  16.906  10.183  0.00  0.00     0.181 C 
BRANCH  16  17
HETATM   17  O   UNK N   1      34.333  16.514   9.148  0.00  0.00    -0.290 OA
BRANCH  17  18
HETATM   18  P   UNK N   1      34.232  17.852   8.025  0.00  0.00     0.408 P 
HETATM   19  O   UNK N   1      32.787  18.420   8.018  0.00  0.00    -0.624 OA
HETATM   20  O   UNK N   1      35.247  19.164   8.537  0.00  0.00    -0.624 OA
BRANCH  18  21
HETATM   21  O   UNK N   1      34.597  17.375   6.392  0.00  0.00    -0.288 OA
BRANCH  21  22
HETATM   22  C   UNK N   1      33.380  17.448   5.716  0.00  0.00     0.209 C 
BRANCH  22  23
HETATM   23  C   UNK N   1      32.936  16.046   5.294  0.00  0.00     0.262 C 
BRANCH  23  24
HETATM   24  N   UNK N   1      32.556  15.966   3.886  0.00  0.00    -0.077 N 
HETATM   25  C   UNK N   1      33.610  15.350   3.093  0.00  0.00     0.271 C 
HETATM   26  C   UNK N   1      31.366  15.144   3.781  0.00  0.00     0.271 C 
HETATM   27  C   UNK N   1      32.246  17.284   3.345  0.00  0.00     0.271 C 
ENDBRANCH  23  24
ENDBRANCH  22  23
ENDBRANCH  21  22
ENDBRANCH  18  21
ENDBRANCH  17  18
ENDBRANCH  16  17
ENDBRANCH  15  16
ENDBRANCH   1  15
TORSDOF 20
ENDMDL
MODEL 3
REMARK VINA RESULT:      -4.6      1.951      3.271
REMARK  20 active torsions:
REMARK  status: ('A' for Active; 'I' for Inactive)
REMARK    1  A    between atoms: C_6  and  C_5 
REMARK    2  A    between atoms: C_7  and  C_6 
REMARK    3  A    between atoms: C_8  and  C_7 
REMARK    4  A    between atoms: C_9  and  C_8 
REMARK    5  A    between atoms: C_10  and  C_9 
REMARK    6  A    between atoms: C_11  and  C_10 
REMARK    7  A    between atoms: C_12  and  C_11 
REMARK    8  A    between atoms: C_13  and  C_12 
REMARK    9  A    between atoms: C_14  and  C_13 
REMARK   10  A    between atoms: C_15  and  C_14 
REMARK   11  A    between atoms: C_16  and  C_15 
REMARK   12  A    between atoms: C_17  and  C_16 
REMARK   13  A    between atoms: C_18  and  C_17 
REMARK   14  A    between atoms: C_20  and  C_18 
REMARK   15  A    between atoms: C_21  and  C_19 
REMARK   16  A    between atoms: N_22  and  C_19 
REMARK   17  A    between atoms: O_25  and  C_20 
REMARK   18  A    between atoms: O_26  and  C_21 
REMARK   19  A    between atoms: P_27  and  O_25 
REMARK   20  A    between atoms: P_27  and  O_26 
ROOT
HETATM    1  C   UNK N   1      28.557  24.368  -4.739  0.00  0.00     0.002 C 
ENDROOT
BRANCH   1   2
HETATM    2  C   UNK N   1      27.667  24.488  -3.505  0.00  0.00     0.000 C 
BRANCH   2   3
HETATM    3  C   UNK N   1      26.342  25.197  -3.768  0.00  0.00     0.000 C 
BRANCH   3   4
HETATM    4  C   UNK N   1      26.549  26.702  -3.911  0.00  0.00     0.000 C 
BRANCH   4   5
HETATM    5  C   UNK N   1      25.966  27.228  -5.215  0.00  0.00     0.000 C 
BRANCH   5   6
HETATM    6  C   UNK N   1      25.351  26.102  -6.032  0.00  0.00     0.000 C 
BRANCH   6   7
HETATM    7  C   UNK N   1      25.987  26.050  -7.404  0.00  0.00     0.000 C 
BRANCH   7   8
HETATM    8  C   UNK N   1      25.748  24.682  -8.011  0.00  0.00     0.000 C 
BRANCH   8   9
HETATM    9  C   UNK N   1      25.914  23.606  -6.959  0.00  0.00     0.000 C 
BRANCH   9  10
HETATM   10  C   UNK N   1      25.419  22.272  -7.476  0.00  0.00     0.000 C 
BRANCH  10  11
HETATM   11  C   UNK N   1      26.482  21.678  -8.370  0.00  0.00     0.000 C 
BRANCH  11  12
HETATM   12  C   UNK N   1      27.804  21.669  -7.638  0.00  0.00    -0.000 C 
BRANCH  12  13
HETATM   13  C   UNK N   1      28.901  22.087  -8.592  0.00  0.00    -0.005 C 
HETATM   14  C   UNK N   1      29.515  23.385  -8.114  0.00  0.00     0.005 C 
ENDBRANCH  12  13
ENDBRANCH  11  12
ENDBRANCH  10  11
ENDBRANCH   9  10
ENDBRANCH   8   9
ENDBRANCH   7   8
ENDBRANCH   6   7
ENDBRANCH   5   6
ENDBRANCH   4   5
ENDBRANCH   3   4
ENDBRANCH   2   3
ENDBRANCH   1   2
BRANCH   1  15
HETATM   15  C   UNK N   1      29.814  25.225  -4.662  0.00  0.00     0.027 C 
BRANCH  15  16
HETATM   16  C   UNK N   1      30.672  24.785  -3.483  0.00  0.00     0.181 C 
BRANCH  16  17
HETATM   17  O   UNK N   1      31.504  23.731  -3.870  0.00  0.00    -0.290 OA
BRANCH  17  18
HETATM   18  P   UNK N   1      31.133  22.371  -2.835  0.00  0.00     0.408 P 
HETATM   19  O   UNK N   1      32.450  21.751  -2.294  0.00  0.00    -0.624 OA
HETATM   20  O   UNK N   1      30.249  22.887  -1.433  0.00  0.00    -0.624 OA
BRANCH  18  21
HETATM   21  O   UNK N   1      30.288  21.106  -3.681  0.00  0.00    -0.288 OA
BRANCH  21  22
HETATM   22  C   UNK N   1      30.451  21.406  -5.033  0.00  0.00     0.209 C 
BRANCH  22  23
HETATM   23  C   UNK N   1      30.990  20.181  -5.774  0.00  0.00     0.262 C 
BRANCH  23  24
HETATM   24  N   UNK N   1      32.359  20.359  -6.252  0.00  0.00    -0.077 N 
HETATM   25  C   UNK N   1      32.583  19.619  -7.486  0.00  0.00     0.271 C 
HETATM   26  C   UNK N   1      32.568  21.769  -6.520  0.00  0.00     0.271 C 
HETATM   27  C   UNK N   1      33.330  19.940  -5.248  0.00  0.00     0.271 C 
ENDBRANCH  23  24
ENDBRANCH  22  23
ENDBRANCH  21  22
ENDBRANCH  18  21
ENDBRANCH  17  18
ENDBRANCH  16  17
ENDBRANCH  15  16
ENDBRANCH   1  15
TORSDOF 20
ENDMDL
MODEL 4
REMARK VINA RESULT:      -4.6      1.787      3.133
REMARK  20 active torsions:
REMARK  status: ('A' for Active; 'I' for Inactive)
REMARK    1  A    between atoms: C_6  and  C_5 
REMARK    2  A    between atoms: C_7  and  C_6 
REMARK    3  A    between atoms: C_8  and  C_7 
REMARK    4  A    between atoms: C_9  and  C_8 
REMARK    5  A    between atoms: C_10  and  C_9 
REMARK    6  A    between atoms: C_11  and  C_10 
REMARK    7  A    between atoms: C_12  and  C_11 
REMARK    8  A    between atoms: C_13  and  C_12 
REMARK    9  A    between atoms: C_14  and  C_13 
REMARK   10  A    between atoms: C_15  and  C_14 
REMARK   11  A    between atoms: C_16  and  C_15 
REMARK   12  A    between atoms: C_17  and  C_16 
REMARK   13  A    between atoms: C_18  and  C_17 
REMARK   14  A    between atoms: C_20  and  C_18 
REMARK   15  A    between atoms: C_21  and  C_19 
REMARK   16  A    between atoms: N_22  and  C_19 
REMARK   17  A    between atoms: O_25  and  C_20 
REMARK   18  A    between atoms: O_26  and  C_21 
REMARK   19  A    between atoms: P_27  and  O_25 
REMARK   20  A    between atoms: P_27  and  O_26 
ROOT
HETATM    1  C   UNK N   1      28.721  23.667  -4.083  0.00  0.00     0.002 C 
ENDROOT
BRANCH   1   2
HETATM    2  C   UNK N   1      29.567  24.858  -4.523  0.00  0.00     0.000 C 
BRANCH   2   3
HETATM    3  C   UNK N   1      28.814  26.186  -4.513  0.00  0.00     0.000 C 
BRANCH   3   4
HETATM    4  C   UNK N   1      29.206  27.042  -5.713  0.00  0.00     0.000 C 
BRANCH   4   5
HETATM    5  C   UNK N   1      28.374  28.315  -5.790  0.00  0.00     0.000 C 
BRANCH   5   6
HETATM    6  C   UNK N   1      27.801  28.677  -4.428  0.00  0.00     0.000 C 
BRANCH   6   7
HETATM    7  C   UNK N   1      26.356  29.102  -4.569  0.00  0.00     0.000 C 
BRANCH   7   8
HETATM    8  C   UNK N   1      25.459  27.947  -4.174  0.00  0.00     0.000 C 
BRANCH   8   9
HETATM    9  C   UNK N   1      24.768  27.379  -5.396  0.00  0.00     0.000 C 
BRANCH   9  10
HETATM   10  C   UNK N   1      25.263  25.978  -5.687  0.00  0.00     0.000 C 
BRANCH  10  11
HETATM   11  C   UNK N   1      25.857  25.956  -7.076  0.00  0.00     0.000 C 
BRANCH  11  12
HETATM   12  C   UNK N   1      26.445  24.591  -7.347  0.00  0.00    -0.000 C 
BRANCH  12  13
HETATM   13  C   UNK N   1      25.983  23.631  -6.274  0.00  0.00    -0.005 C 
HETATM   14  C   UNK N   1      25.532  22.337  -6.917  0.00  0.00     0.005 C 
ENDBRANCH  12  13
ENDBRANCH  11  12
ENDBRANCH  10  11
ENDBRANCH   9  10
ENDBRANCH   8   9
ENDBRANCH   7   8
ENDBRANCH   6   7
ENDBRANCH   5   6
ENDBRANCH   4   5
ENDBRANCH   3   4
ENDBRANCH   2   3
ENDBRANCH   1   2
BRANCH   1  15
HETATM   15  C   UNK N   1      29.201  23.034  -2.784  0.00  0.00     0.027 C 
BRANCH  15  16
HETATM   16  C   UNK N   1      30.665  23.377  -2.547  0.00  0.00     0.181 C 
BRANCH  16  17
HETATM   17  O   UNK N   1      31.339  22.258  -2.050  0.00  0.00    -0.290 OA
BRANCH  17  18
HETATM   18  P   UNK N   1      32.199  21.533  -3.389  0.00  0.00     0.408 P 
HETATM   19  O   UNK N   1      32.624  22.636  -4.396  0.00  0.00    -0.624 OA
HETATM   20  O   UNK N   1      33.678  20.801  -2.848  0.00  0.00    -0.624 OA
BRANCH  18  21
HETATM   21  O   UNK N   1      31.219  20.395  -4.267  0.00  0.00    -0.288 OA
BRANCH  21  22
HETATM   22  C   UNK N   1      30.951  21.016  -5.486  0.00  0.00     0.209 C 
BRANCH  22  23
HETATM   23  C   UNK N   1      31.101  20.007  -6.626  0.00  0.00     0.262 C 
BRANCH  23  24
HETATM   24  N   UNK N   1      30.060  20.134  -7.643  0.00  0.00    -0.077 N 
HETATM   25  C   UNK N   1      30.637  20.384  -8.956  0.00  0.00     0.271 C 
HETATM   26  C   UNK N   1      29.322  18.886  -7.699  0.00  0.00     0.271 C 
HETATM   27  C   UNK N   1      29.122  21.200  -7.311  0.00  0.00     0.271 C 
ENDBRANCH  23  24
ENDBRANCH  22  23
ENDBRANCH  21  22
ENDBRANCH  18  21
ENDBRANCH  17  18
ENDBRANCH  16  17
ENDBRANCH  15  16
ENDBRANCH   1  15
TORSDOF 20
ENDMDL
MODEL 5
REMARK VINA RESULT:      -4.5     19.494     22.924
REMARK  20 active torsions:
REMARK  status: ('A' for Active; 'I' for Inactive)
REMARK    1  A    between atoms: C_6  and  C_5 
REMARK    2  A    between atoms: C_7  and  C_6 
REMARK    3  A    between atoms: C_8  and  C_7 
REMARK    4  A    between atoms: C_9  and  C_8 
REMARK    5  A    between atoms: C_10  and  C_9 
REMARK    6  A    between atoms: C_11  and  C_10 
REMARK    7  A    between atoms: C_12  and  C_11 
REMARK    8  A    between atoms: C_13  and  C_12 
REMARK    9  A    between atoms: C_14  and  C_13 
REMARK   10  A    between atoms: C_15  and  C_14 
REMARK   11  A    between atoms: C_16  and  C_15 
REMARK   12  A    between atoms: C_17  and  C_16 
REMARK   13  A    between atoms: C_18  and  C_17 
REMARK   14  A    between atoms: C_20  and  C_18 
REMARK   15  A    between atoms: C_21  and  C_19 
REMARK   16  A    between atoms: N_22  and  C_19 
REMARK   17  A    between atoms: O_25  and  C_20 
REMARK   18  A    between atoms: O_26  and  C_21 
REMARK   19  A    between atoms: P_27  and  O_25 
REMARK   20  A    between atoms: P_27  and  O_26 
ROOT
HETATM    1  C   UNK N   1      36.721  12.925  13.205  0.00  0.00     0.002 C 
ENDROOT
BRANCH   1   2
HETATM    2  C   UNK N   1      36.153  13.501  14.500  0.00  0.00     0.000 C 
BRANCH   2   3
HETATM    3  C   UNK N   1      35.667  12.441  15.484  0.00  0.00     0.000 C 
BRANCH   3   4
HETATM    4  C   UNK N   1      34.164  12.221  15.346  0.00  0.00     0.000 C 
BRANCH   4   5
HETATM    5  C   UNK N   1      33.838  10.773  15.003  0.00  0.00     0.000 C 
BRANCH   5   6
HETATM    6  C   UNK N   1      33.863  10.549  13.499  0.00  0.00     0.000 C 
BRANCH   6   7
HETATM    7  C   UNK N   1      34.929   9.536  13.144  0.00  0.00     0.000 C 
BRANCH   7   8
HETATM    8  C   UNK N   1      35.511   8.960  14.419  0.00  0.00     0.000 C 
BRANCH   8   9
HETATM    9  C   UNK N   1      37.018   9.102  14.418  0.00  0.00     0.000 C 
BRANCH   9  10
HETATM   10  C   UNK N   1      37.539   9.283  15.828  0.00  0.00     0.000 C 
BRANCH  10  11
HETATM   11  C   UNK N   1      36.419   8.980  16.797  0.00  0.00     0.000 C 
BRANCH  11  12
HETATM   12  C   UNK N   1      36.588   9.825  18.038  0.00  0.00    -0.000 C 
BRANCH  12  13
HETATM   13  C   UNK N   1      35.230  10.304  18.500  0.00  0.00    -0.005 C 
HETATM   14  C   UNK N   1      35.368  11.673  19.131  0.00  0.00     0.005 C 
ENDBRANCH  12  13
ENDBRANCH  11  12
ENDBRANCH  10  11
ENDBRANCH   9  10
ENDBRANCH   8   9
ENDBRANCH   7   8
ENDBRANCH   6   7
ENDBRANCH   5   6
ENDBRANCH   4   5
ENDBRANCH   3   4
ENDBRANCH   2   3
ENDBRANCH   1   2
BRANCH   1  15
HETATM   15  C   UNK N   1      35.930  13.329  11.968  0.00  0.00     0.027 C 
BRANCH  15  16
HETATM   16  C   UNK N   1      35.959  14.843  11.803  0.00  0.00     0.181 C 
BRANCH  16  17
HETATM   17  O   UNK N   1      34.684  15.306  11.464  0.00  0.00    -0.290 OA
BRANCH  17  18
HETATM   18  P   UNK N   1      34.807  16.055   9.889  0.00  0.00     0.408 P 
HETATM   19  O   UNK N   1      35.518  17.430  10.018  0.00  0.00    -0.624 OA
HETATM   20  O   UNK N   1      35.809  15.109   8.833  0.00  0.00    -0.624 OA
BRANCH  18  21
HETATM   21  O   UNK N   1      33.249  16.356   9.175  0.00  0.00    -0.288 OA
BRANCH  21  22
HETATM   22  C   UNK N   1      33.435  16.155   7.807  0.00  0.00     0.209 C 
BRANCH  22  23
HETATM   23  C   UNK N   1      32.708  17.248   7.020  0.00  0.00     0.262 C 
BRANCH  23  24
HETATM   24  N   UNK N   1      31.550  16.747   6.285  0.00  0.00    -0.077 N 
HETATM   25  C   UNK N   1      31.587  15.296   6.174  0.00  0.00     0.271 C 
HETATM   26  C   UNK N   1      30.352  17.118   7.014  0.00  0.00     0.271 C 
HETATM   27  C   UNK N   1      31.471  17.336   4.954  0.00  0.00     0.271 C 
ENDBRANCH  23  24
ENDBRANCH  22  23
ENDBRANCH  21  22
ENDBRANCH  18  21
ENDBRANCH  17  18
ENDBRANCH  16  17
ENDBRANCH  15  16
ENDBRANCH   1  15
TORSDOF 20
ENDMDL
MODEL 6
REMARK VINA RESULT:      -4.5      1.408      2.673
REMARK  20 active torsions:
REMARK  status: ('A' for Active; 'I' for Inactive)
REMARK    1  A    between atoms: C_6  and  C_5 
REMARK    2  A    between atoms: C_7  and  C_6 
REMARK    3  A    between atoms: C_8  and  C_7 
REMARK    4  A    between atoms: C_9  and  C_8 
REMARK    5  A    between atoms: C_10  and  C_9 
REMARK    6  A    between atoms: C_11  and  C_10 
REMARK    7  A    between atoms: C_12  and  C_11 
REMARK    8  A    between atoms: C_13  and  C_12 
REMARK    9  A    between atoms: C_14  and  C_13 
REMARK   10  A    between atoms: C_15  and  C_14 
REMARK   11  A    between atoms: C_16  and  C_15 
REMARK   12  A    between atoms: C_17  and  C_16 
REMARK   13  A    between atoms: C_18  and  C_17 
REMARK   14  A    between atoms: C_20  and  C_18 
REMARK   15  A    between atoms: C_21  and  C_19 
REMARK   16  A    between atoms: N_22  and  C_19 
REMARK   17  A    between atoms: O_25  and  C_20 
REMARK   18  A    between atoms: O_26  and  C_21 
REMARK   19  A    between atoms: P_27  and  O_25 
REMARK   20  A    between atoms: P_27  and  O_26 
ROOT
HETATM    1  C   UNK N   1      29.957  25.887  -6.015  0.00  0.00     0.002 C 
ENDROOT
BRANCH   1   2
HETATM    2  C   UNK N   1      30.224  26.902  -4.907  0.00  0.00     0.000 C 
BRANCH   2   3
HETATM    3  C   UNK N   1      29.671  28.294  -5.200  0.00  0.00     0.000 C 
BRANCH   3   4
HETATM    4  C   UNK N   1      28.710  28.258  -6.385  0.00  0.00     0.000 C 
BRANCH   4   5
HETATM    5  C   UNK N   1      27.340  28.808  -6.012  0.00  0.00     0.000 C 
BRANCH   5   6
HETATM    6  C   UNK N   1      27.418  29.670  -4.761  0.00  0.00     0.000 C 
BRANCH   6   7
HETATM    7  C   UNK N   1      26.252  29.364  -3.847  0.00  0.00     0.000 C 
BRANCH   7   8
HETATM    8  C   UNK N   1      25.722  27.981  -4.165  0.00  0.00     0.000 C 
BRANCH   8   9
HETATM    9  C   UNK N   1      26.224  26.980  -3.146  0.00  0.00     0.000 C 
BRANCH   9  10
HETATM   10  C   UNK N   1      26.908  25.817  -3.831  0.00  0.00     0.000 C 
BRANCH  10  11
HETATM   11  C   UNK N   1      25.864  25.014  -4.572  0.00  0.00     0.000 C 
BRANCH  11  12
HETATM   12  C   UNK N   1      26.373  24.690  -5.958  0.00  0.00    -0.000 C 
BRANCH  12  13
HETATM   13  C   UNK N   1      25.714  25.616  -6.956  0.00  0.00    -0.005 C 
HETATM   14  C   UNK N   1      26.626  25.798  -8.150  0.00  0.00     0.005 C 
ENDBRANCH  12  13
ENDBRANCH  11  12
ENDBRANCH  10  11
ENDBRANCH   9  10
ENDBRANCH   8   9
ENDBRANCH   7   8
ENDBRANCH   6   7
ENDBRANCH   5   6
ENDBRANCH   4   5
ENDBRANCH   3   4
ENDBRANCH   2   3
ENDBRANCH   1   2
BRANCH   1  15
HETATM   15  C   UNK N   1      30.017  24.443  -5.537  0.00  0.00     0.027 C 
BRANCH  15  16
HETATM   16  C   UNK N   1      30.459  24.394  -4.081  0.00  0.00     0.181 C 
BRANCH  16  17
HETATM   17  O   UNK N   1      31.620  23.623  -3.965  0.00  0.00    -0.290 OA
BRANCH  17  18
HETATM   18  P   UNK N   1      31.273  22.331  -2.838  0.00  0.00     0.408 P 
HETATM   19  O   UNK N   1      30.547  22.905  -1.591  0.00  0.00    -0.624 OA
HETATM   20  O   UNK N   1      30.170  21.186  -3.535  0.00  0.00    -0.624 OA
BRANCH  18  21
HETATM   21  O   UNK N   1      32.717  21.546  -2.266  0.00  0.00    -0.288 OA
BRANCH  21  22
HETATM   22  C   UNK N   1      33.085  20.678  -3.294  0.00  0.00     0.209 C 
BRANCH  22  23
HETATM   23  C   UNK N   1      34.237  21.287  -4.097  0.00  0.00     0.262 C 
BRANCH  23  24
HETATM   24  N   UNK N   1      34.381  20.697  -5.426  0.00  0.00    -0.077 N 
HETATM   25  C   UNK N   1      35.282  19.554  -5.397  0.00  0.00     0.271 C 
HETATM   26  C   UNK N   1      33.076  20.239  -5.865  0.00  0.00     0.271 C 
HETATM   27  C   UNK N   1      34.866  21.677  -6.390  0.00  0.00     0.271 C 
ENDBRANCH  23  24
ENDBRANCH  22  23
ENDBRANCH  21  22
ENDBRANCH  18  21
ENDBRANCH  17  18
ENDBRANCH  16  17
ENDBRANCH  15  16
ENDBRANCH   1  15
TORSDOF 20
ENDMDL
MODEL 7
REMARK VINA RESULT:      -4.5     11.407     14.333
REMARK  20 active torsions:
REMARK  status: ('A' for Active; 'I' for Inactive)
REMARK    1  A    between atoms: C_6  and  C_5 
REMARK    2  A    between atoms: C_7  and  C_6 
REMARK    3  A    between atoms: C_8  and  C_7 
REMARK    4  A    between atoms: C_9  and  C_8 
REMARK    5  A    between atoms: C_10  and  C_9 
REMARK    6  A    between atoms: C_11  and  C_10 
REMARK    7  A    between atoms: C_12  and  C_11 
REMARK    8  A    between atoms: C_13  and  C_12 
REMARK    9  A    between atoms: C_14  and  C_13 
REMARK   10  A    between atoms: C_15  and  C_14 
REMARK   11  A    between atoms: C_16  and  C_15 
REMARK   12  A    between atoms: C_17  and  C_16 
REMARK   13  A    between atoms: C_18  and  C_17 
REMARK   14  A    between atoms: C_20  and  C_18 
REMARK   15  A    between atoms: C_21  and  C_19 
REMARK   16  A    between atoms: N_22  and  C_19 
REMARK   17  A    between atoms: O_25  and  C_20 
REMARK   18  A    between atoms: O_26  and  C_21 
REMARK   19  A    between atoms: P_27  and  O_25 
REMARK   20  A    between atoms: P_27  and  O_26 
ROOT
HETATM    1  C   UNK N   1      25.129  19.319   4.638  0.00  0.00     0.002 C 
ENDROOT
BRANCH   1   2
HETATM    2  C   UNK N   1      26.540  18.998   5.122  0.00  0.00     0.000 C 
BRANCH   2   3
HETATM    3  C   UNK N   1      27.540  18.764   3.994  0.00  0.00     0.000 C 
BRANCH   3   4
HETATM    4  C   UNK N   1      28.398  17.534   4.274  0.00  0.00     0.000 C 
BRANCH   4   5
HETATM    5  C   UNK N   1      29.141  17.658   5.598  0.00  0.00     0.000 C 
BRANCH   5   6
HETATM    6  C   UNK N   1      29.200  16.320   6.319  0.00  0.00     0.000 C 
BRANCH   6   7
HETATM    7  C   UNK N   1      29.334  15.196   5.315  0.00  0.00     0.000 C 
BRANCH   7   8
HETATM    8  C   UNK N   1      30.784  14.763   5.246  0.00  0.00     0.000 C 
BRANCH   8   9
HETATM    9  C   UNK N   1      31.241  14.693   3.804  0.00  0.00     0.000 C 
BRANCH   9  10
HETATM   10  C   UNK N   1      31.445  16.082   3.239  0.00  0.00     0.000 C 
BRANCH  10  11
HETATM   11  C   UNK N   1      32.860  16.521   3.541  0.00  0.00     0.000 C 
BRANCH  11  12
HETATM   12  C   UNK N   1      32.828  17.707   4.477  0.00  0.00    -0.000 C 
BRANCH  12  13
HETATM   13  C   UNK N   1      33.636  17.383   5.713  0.00  0.00    -0.005 C 
HETATM   14  C   UNK N   1      32.727  17.388   6.923  0.00  0.00     0.005 C 
ENDBRANCH  12  13
ENDBRANCH  11  12
ENDBRANCH  10  11
ENDBRANCH   9  10
ENDBRANCH   8   9
ENDBRANCH   7   8
ENDBRANCH   6   7
ENDBRANCH   5   6
ENDBRANCH   4   5
ENDBRANCH   3   4
ENDBRANCH   2   3
ENDBRANCH   1   2
BRANCH   1  15
HETATM   15  C   UNK N   1      25.066  20.536   3.726  0.00  0.00     0.027 C 
BRANCH  15  16
HETATM   16  C   UNK N   1      23.973  20.350   2.683  0.00  0.00     0.181 C 
BRANCH  16  17
HETATM   17  O   UNK N   1      22.887  21.178   2.982  0.00  0.00    -0.290 OA
BRANCH  17  18
HETATM   18  P   UNK N   1      21.436  20.219   2.794  0.00  0.00     0.408 P 
HETATM   19  O   UNK N   1      20.356  20.702   3.799  0.00  0.00    -0.624 OA
HETATM   20  O   UNK N   1      20.745  20.450   1.218  0.00  0.00    -0.624 OA
BRANCH  18  21
HETATM   21  O   UNK N   1      21.711  18.531   3.119  0.00  0.00    -0.288 OA
BRANCH  21  22
HETATM   22  C   UNK N   1      20.519  17.899   2.768  0.00  0.00     0.209 C 
BRANCH  22  23
HETATM   23  C   UNK N   1      20.653  16.389   2.977  0.00  0.00     0.262 C 
BRANCH  23  24
HETATM   24  N   UNK N   1      20.512  15.626   1.739  0.00  0.00    -0.077 N 
HETATM   25  C   UNK N   1      21.783  15.037   1.340  0.00  0.00     0.271 C 
HETATM   26  C   UNK N   1      19.564  14.553   1.970  0.00  0.00     0.271 C 
HETATM   27  C   UNK N   1      20.000  16.459   0.658  0.00  0.00     0.271 C 
ENDBRANCH  23  24
ENDBRANCH  22  23
ENDBRANCH  21  22
ENDBRANCH  18  21
ENDBRANCH  17  18
ENDBRANCH  16  17
ENDBRANCH  15  16
ENDBRANCH   1  15
TORSDOF 20
ENDMDL
MODEL 8
REMARK VINA RESULT:      -4.4      2.136      3.040
REMARK  20 active torsions:
REMARK  status: ('A' for Active; 'I' for Inactive)
REMARK    1  A    between atoms: C_6  and  C_5 
REMARK    2  A    between atoms: C_7  and  C_6 
REMARK    3  A    between atoms: C_8  and  C_7 
REMARK    4  A    between atoms: C_9  and  C_8 
REMARK    5  A    between atoms: C_10  and  C_9 
REMARK    6  A    between atoms: C_11  and  C_10 
REMARK    7  A    between atoms: C_12  and  C_11 
REMARK    8  A    between atoms: C_13  and  C_12 
REMARK    9  A    between atoms: C_14  and  C_13 
REMARK   10  A    between atoms: C_15  and  C_14 
REMARK   11  A    between atoms: C_16  and  C_15 
REMARK   12  A    between atoms: C_17  and  C_16 
REMARK   13  A    between atoms: C_18  and  C_17 
REMARK   14  A    between atoms: C_20  and  C_18 
REMARK   15  A    between atoms: C_21  and  C_19 
REMARK   16  A    between atoms: N_22  and  C_19 
REMARK   17  A    between atoms: O_25  and  C_20 
REMARK   18  A    between atoms: O_26  and  C_21 
REMARK   19  A    between atoms: P_27  and  O_25 
REMARK   20  A    between atoms: P_27  and  O_26 
ROOT
HETATM    1  C   UNK N   1      29.398  27.150  -5.562  0.00  0.00     0.002 C 
ENDROOT
BRANCH   1   2
HETATM    2  C   UNK N   1      28.897  28.025  -4.417  0.00  0.00     0.000 C 
BRANCH   2   3
HETATM    3  C   UNK N   1      28.411  29.402  -4.861  0.00  0.00     0.000 C 
BRANCH   3   4
HETATM    4  C   UNK N   1      26.892  29.500  -4.762  0.00  0.00     0.000 C 
BRANCH   4   5
HETATM    5  C   UNK N   1      26.306  28.339  -3.971  0.00  0.00     0.000 C 
BRANCH   5   6
HETATM    6  C   UNK N   1      25.231  27.619  -4.772  0.00  0.00     0.000 C 
BRANCH   6   7
HETATM    7  C   UNK N   1      25.712  27.378  -6.186  0.00  0.00     0.000 C 
BRANCH   7   8
HETATM    8  C   UNK N   1      25.637  25.896  -6.490  0.00  0.00     0.000 C 
BRANCH   8   9
HETATM    9  C   UNK N   1      25.533  25.102  -5.205  0.00  0.00     0.000 C 
BRANCH   9  10
HETATM   10  C   UNK N   1      26.121  23.718  -5.383  0.00  0.00     0.000 C 
BRANCH  10  11
HETATM   11  C   UNK N   1      26.014  23.334  -6.840  0.00  0.00     0.000 C 
BRANCH  11  12
HETATM   12  C   UNK N   1      27.159  22.416  -7.201  0.00  0.00    -0.000 C 
BRANCH  12  13
HETATM   13  C   UNK N   1      26.738  21.528  -8.351  0.00  0.00    -0.005 C 
HETATM   14  C   UNK N   1      25.449  20.820  -7.993  0.00  0.00     0.005 C 
ENDBRANCH  12  13
ENDBRANCH  11  12
ENDBRANCH  10  11
ENDBRANCH   9  10
ENDBRANCH   8   9
ENDBRANCH   7   8
ENDBRANCH   6   7
ENDBRANCH   5   6
ENDBRANCH   4   5
ENDBRANCH   3   4
ENDBRANCH   2   3
ENDBRANCH   1   2
BRANCH   1  15
HETATM   15  C   UNK N   1      29.288  25.659  -5.273  0.00  0.00     0.027 C 
BRANCH  15  16
HETATM   16  C   UNK N   1      29.525  25.396  -3.792  0.00  0.00     0.181 C 
BRANCH  16  17
HETATM   17  O   UNK N   1      30.532  24.439  -3.636  0.00  0.00    -0.290 OA
BRANCH  17  18
HETATM   18  P   UNK N   1      29.843  23.103  -2.742  0.00  0.00     0.408 P 
HETATM   19  O   UNK N   1      30.522  23.002  -1.349  0.00  0.00    -0.624 OA
HETATM   20  O   UNK N   1      28.159  23.379  -2.421  0.00  0.00    -0.624 OA
BRANCH  18  21
HETATM   21  O   UNK N   1      30.089  21.576  -3.538  0.00  0.00    -0.288 OA
BRANCH  21  22
HETATM   22  C   UNK N   1      31.194  21.776  -4.365  0.00  0.00     0.209 C 
BRANCH  22  23
HETATM   23  C   UNK N   1      32.414  21.060  -3.781  0.00  0.00     0.262 C 
BRANCH  23  24
HETATM   24  N   UNK N   1      33.542  21.005  -4.708  0.00  0.00    -0.077 N 
HETATM   25  C   UNK N   1      33.595  22.200  -5.539  0.00  0.00     0.271 C 
HETATM   26  C   UNK N   1      34.766  20.932  -3.933  0.00  0.00     0.271 C 
HETATM   27  C   UNK N   1      33.472  19.823  -5.558  0.00  0.00     0.271 C 
ENDBRANCH  23  24
ENDBRANCH  22  23
ENDBRANCH  21  22
ENDBRANCH  18  21
ENDBRANCH  17  18
ENDBRANCH  16  17
ENDBRANCH  15  16
ENDBRANCH   1  15
TORSDOF 20
ENDMDL
MODEL 9
REMARK VINA RESULT:      -4.4     20.116     23.283
REMARK  20 active torsions:
REMARK  status: ('A' for Active; 'I' for Inactive)
REMARK    1  A    between atoms: C_6  and  C_5 
REMARK    2  A    between atoms: C_7  and  C_6 
REMARK    3  A    between atoms: C_8  and  C_7 
REMARK    4  A    between atoms: C_9  and  C_8 
REMARK    5  A    between atoms: C_10  and  C_9 
REMARK    6  A    between atoms: C_11  and  C_10 
REMARK    7  A    between atoms: C_12  and  C_11 
REMARK    8  A    between atoms: C_13  and  C_12 
REMARK    9  A    between atoms: C_14  and  C_13 
REMARK   10  A    between atoms: C_15  and  C_14 
REMARK   11  A    between atoms: C_16  and  C_15 
REMARK   12  A    between atoms: C_17  and  C_16 
REMARK   13  A    between atoms: C_18  and  C_17 
REMARK   14  A    between atoms: C_20  and  C_18 
REMARK   15  A    between atoms: C_21  and  C_19 
REMARK   16  A    between atoms: N_22  and  C_19 
REMARK   17  A    between atoms: O_25  and  C_20 
REMARK   18  A    between atoms: O_26  and  C_21 
REMARK   19  A    between atoms: P_27  and  O_25 
REMARK   20  A    between atoms: P_27  and  O_26 
ROOT
HETATM    1  C   UNK N   1      35.317  14.372  12.030  0.00  0.00     0.002 C 
ENDROOT
BRANCH   1   2
HETATM    2  C   UNK N   1      36.115  14.529  13.321  0.00  0.00     0.000 C 
BRANCH   2   3
HETATM    3  C   UNK N   1      36.450  13.206  14.003  0.00  0.00     0.000 C 
BRANCH   3   4
HETATM    4  C   UNK N   1      35.189  12.380  14.235  0.00  0.00     0.000 C 
BRANCH   4   5
HETATM    5  C   UNK N   1      34.551  12.696  15.581  0.00  0.00     0.000 C 
BRANCH   5   6
HETATM    6  C   UNK N   1      35.579  12.636  16.701  0.00  0.00     0.000 C 
BRANCH   6   7
HETATM    7  C   UNK N   1      35.119  13.474  17.873  0.00  0.00     0.000 C 
BRANCH   7   8
HETATM    8  C   UNK N   1      35.313  12.687  19.153  0.00  0.00     0.000 C 
BRANCH   8   9
HETATM    9  C   UNK N   1      35.316  11.202  18.859  0.00  0.00     0.000 C 
BRANCH   9  10
HETATM   10  C   UNK N   1      35.948  10.432  19.999  0.00  0.00     0.000 C 
BRANCH  10  11
HETATM   11  C   UNK N   1      35.186   9.141  20.188  0.00  0.00     0.000 C 
BRANCH  11  12
HETATM   12  C   UNK N   1      33.811   9.276  19.575  0.00  0.00    -0.000 C 
BRANCH  12  13
HETATM   13  C   UNK N   1      32.769   8.949  20.621  0.00  0.00    -0.005 C 
HETATM   14  C   UNK N   1      31.481   8.546  19.938  0.00  0.00     0.005 C 
ENDBRANCH  12  13
ENDBRANCH  11  12
ENDBRANCH  10  11
ENDBRANCH   9  10
ENDBRANCH   8   9
ENDBRANCH   7   8
ENDBRANCH   6   7
ENDBRANCH   5   6
ENDBRANCH   4   5
ENDBRANCH   3   4
ENDBRANCH   2   3
ENDBRANCH   1   2
BRANCH   1  15
HETATM   15  C   UNK N   1      35.867  15.199  10.876  0.00  0.00     0.027 C 
BRANCH  15  16
HETATM   16  C   UNK N   1      34.723  15.827  10.092  0.00  0.00     0.181 C 
BRANCH  16  17
HETATM   17  O   UNK N   1      35.119  16.045   8.770  0.00  0.00    -0.290 OA
BRANCH  17  18
HETATM   18  P   UNK N   1      33.967  17.154   8.060  0.00  0.00     0.408 P 
HETATM   19  O   UNK N   1      34.144  18.564   8.688  0.00  0.00    -0.624 OA
HETATM   20  O   UNK N   1      34.273  17.358   6.363  0.00  0.00    -0.624 OA
BRANCH  18  21
HETATM   21  O   UNK N   1      32.320  16.674   8.349  0.00  0.00    -0.288 OA
BRANCH  21  22
HETATM   22  C   UNK N   1      31.560  17.808   8.067  0.00  0.00     0.209 C 
BRANCH  22  23
HETATM   23  C   UNK N   1      30.121  17.399   7.744  0.00  0.00     0.262 C 
BRANCH  23  24
HETATM   24  N   UNK N   1      29.131  18.113   8.546  0.00  0.00    -0.077 N 
HETATM   25  C   UNK N   1      29.774  18.967   9.535  0.00  0.00     0.271 C 
HETATM   26  C   UNK N   1      28.345  18.952   7.661  0.00  0.00     0.271 C 
HETATM   27  C   UNK N   1      28.225  17.188   9.216  0.00  0.00     0.271 C 
ENDBRANCH  23  24
ENDBRANCH  22  23
ENDBRANCH  21  22
ENDBRANCH  18  21
ENDBRANCH  17  18
ENDBRANCH  16  17
ENDBRANCH  15  16
ENDBRANCH   1  15
TORSDOF 20
ENDMDL
