MODEL 1
REMARK VINA RESULT:      -7.1      0.000      0.000
REMARK  9 active torsions:
REMARK  status: ('A' for Active; 'I' for Inactive)
REMARK    1  A    between atoms: C_13  and  C_7 
REMARK    2  A    between atoms: C_14  and  C_7 
REMARK    3  A    between atoms: C_19  and  C_11 
REMARK    4  A    between atoms: O_27  and  C_11 
REMARK    5  A    between atoms: C_19  and  C_12 
REMARK    6  A    between atoms: C_23  and  C_16 
REMARK    7  A    between atoms: C_19  and  N_26 
REMARK    8  A    between atoms: O_31  and  C_20 
REMARK    9  A    between atoms: O_30  and  C_23 
ROOT
HETATM    1  C   UNK N   1      29.456  16.916   4.717  0.00  0.00     0.028 A 
HETATM    2  C   UNK N   1      31.951  15.882   5.257  0.00  0.00     0.067 A 
HETATM    3  C   UNK N   1      30.952  17.188   8.560  0.00  0.00     0.114 A 
HETATM    4  C   UNK N   1      30.132  16.274   3.687  0.00  0.00    -0.019 A 
HETATM    5  C   UNK N   1      29.964  17.019   6.003  0.00  0.00     0.043 A 
HETATM    6  C   UNK N   1      29.675  17.689   8.298  0.00  0.00     0.104 A 
HETATM    7  C   UNK N   1      31.239  16.485   6.313  0.00  0.00     0.051 A 
HETATM    8  C   UNK N   1      31.429  15.751   3.959  0.00  0.00     0.077 A 
HETATM    9  C   UNK N   1      29.188  17.618   6.994  0.00  0.00     0.202 A 
HETATM   10  N   UNK N   1      31.735  16.583   7.612  0.00  0.00    -0.348 N 
HETATM   11  O   UNK N   1      28.078  18.058   6.719  0.00  0.00    -0.286 OA
ENDROOT
BRANCH   4  12
HETATM   12  C   UNK N   1      29.420  16.092   2.356  0.00  0.00     0.083 C 
BRANCH  12  13
HETATM   13  C   UNK N   1      28.381  14.992   2.276  0.00  0.00    -0.013 A 
HETATM   14  C   UNK N   1      28.830  13.680   2.094  0.00  0.00     0.011 A 
HETATM   15  C   UNK N   1      27.919  12.625   1.993  0.00  0.00     0.002 A 
HETATM   16  C   UNK N   1      26.547  12.875   2.043  0.00  0.00     0.027 A 
HETATM   17  C   UNK N   1      26.081  14.179   2.230  0.00  0.00     0.073 A 
HETATM   18  C   UNK N   1      26.988  15.236   2.374  0.00  0.00     0.144 A 
HETATM   19 Cl   UNK N   1      24.353  14.481   2.251  0.00  0.00    -0.081 Cl
HETATM   20  F   UNK N   1      26.507  16.488   2.587  0.00  0.00    -0.204 F 
ENDBRANCH  12  13
ENDBRANCH   4  12
BRANCH   8  21
HETATM   21  O   UNK N   1      32.204  15.112   3.041  0.00  0.00    -0.355 OA
HETATM   22  C   UNK N   1      33.360  14.415   3.297  0.00  0.00     0.210 C 
ENDBRANCH   8  21
BRANCH  10  23
HETATM   23  C   UNK N   1      33.091  16.124   8.090  0.00  0.00     0.116 C 
BRANCH  23  24
HETATM   24  C   UNK N   1      33.099  14.800   8.874  0.00  0.00     0.190 C 
BRANCH  24  25
HETATM   25  O   UNK N   1      32.342  13.824   8.215  0.00  0.00    -0.399 OA
HETATM   26  H   UNK N   1      31.640  13.390   7.706  0.00  0.00     0.209 HD
ENDBRANCH  24  25
ENDBRANCH  23  24
BRANCH  23  27
HETATM   27  C   UNK N   1      33.854  17.192   8.944  0.00  0.00     0.003 C 
HETATM   28  C   UNK N   1      35.003  16.573   9.731  0.00  0.00     0.011 C 
HETATM   29  C   UNK N   1      34.481  18.306   8.117  0.00  0.00     0.011 C 
ENDBRANCH  23  27
ENDBRANCH  10  23
BRANCH   6  30
HETATM   30  C   UNK N   1      28.872  18.245   9.420  0.00  0.00     0.181 C 
HETATM   31  O   UNK N   1      29.414  18.817  10.354  0.00  0.00    -0.646 OA
BRANCH  30  32
HETATM   32  O   UNK N   1      27.529  18.160   9.390  0.00  0.00    -0.772 OA
HETATM   33  H   UNK N   1      27.045  18.606   8.723  0.00  0.00     0.167 HD
ENDBRANCH  30  32
ENDBRANCH   6  30
TORSDOF 9
ENDMDL
MODEL 2
REMARK VINA RESULT:      -6.9      5.853      9.291
REMARK  9 active torsions:
REMARK  status: ('A' for Active; 'I' for Inactive)
REMARK    1  A    between atoms: C_13  and  C_7 
REMARK    2  A    between atoms: C_14  and  C_7 
REMARK    3  A    between atoms: C_19  and  C_11 
REMARK    4  A    between atoms: O_27  and  C_11 
REMARK    5  A    between atoms: C_19  and  C_12 
REMARK    6  A    between atoms: C_23  and  C_16 
REMARK    7  A    between atoms: C_19  and  N_26 
REMARK    8  A    between atoms: O_31  and  C_20 
REMARK    9  A    between atoms: O_30  and  C_23 
ROOT
HETATM    1  C   UNK N   1      25.591  18.787   4.197  0.00  0.00     0.028 A 
HETATM    2  C   UNK N   1      24.239  16.555   5.080  0.00  0.00     0.067 A 
HETATM    3  C   UNK N   1      21.513  18.531   3.570  0.00  0.00     0.114 A 
HETATM    4  C   UNK N   1      26.330  17.769   4.787  0.00  0.00    -0.019 A 
HETATM    5  C   UNK N   1      24.221  18.706   3.998  0.00  0.00     0.043 A 
HETATM    6  C   UNK N   1      22.199  19.651   3.095  0.00  0.00     0.104 A 
HETATM    7  C   UNK N   1      23.502  17.564   4.431  0.00  0.00     0.051 A 
HETATM    8  C   UNK N   1      25.632  16.620   5.258  0.00  0.00     0.077 A 
HETATM    9  C   UNK N   1      23.569  19.744   3.334  0.00  0.00     0.202 A 
HETATM   10  N   UNK N   1      22.126  17.489   4.216  0.00  0.00    -0.348 N 
HETATM   11  O   UNK N   1      24.204  20.716   2.947  0.00  0.00    -0.286 OA
ENDROOT
BRANCH   4  12
HETATM   12  C   UNK N   1      27.843  17.899   4.822  0.00  0.00     0.083 C 
BRANCH  12  13
HETATM   13  C   UNK N   1      28.501  17.934   6.188  0.00  0.00    -0.013 A 
HETATM   14  C   UNK N   1      27.963  18.794   7.151  0.00  0.00     0.011 A 
HETATM   15  C   UNK N   1      28.537  18.884   8.422  0.00  0.00     0.002 A 
HETATM   16  C   UNK N   1      29.673  18.137   8.733  0.00  0.00     0.027 A 
HETATM   17  C   UNK N   1      30.220  17.268   7.786  0.00  0.00     0.073 A 
HETATM   18  C   UNK N   1      29.626  17.140   6.524  0.00  0.00     0.144 A 
HETATM   19 Cl   UNK N   1      31.671  16.366   8.181  0.00  0.00    -0.081 Cl
HETATM   20  F   UNK N   1      30.160  16.265   5.634  0.00  0.00    -0.204 F 
ENDBRANCH  12  13
ENDBRANCH   4  12
BRANCH   8  21
HETATM   21  O   UNK N   1      26.228  15.559   5.865  0.00  0.00    -0.355 OA
HETATM   22  C   UNK N   1      26.179  15.255   7.205  0.00  0.00     0.210 C 
ENDBRANCH   8  21
BRANCH  10  23
HETATM   23  C   UNK N   1      21.209  16.378   4.667  0.00  0.00     0.116 C 
BRANCH  23  24
HETATM   24  C   UNK N   1      19.990  16.124   3.764  0.00  0.00     0.190 C 
BRANCH  24  25
HETATM   25  O   UNK N   1      18.799  16.426   4.434  0.00  0.00    -0.399 OA
HETATM   26  H   UNK N   1      18.131  16.517   5.131  0.00  0.00     0.209 HD
ENDBRANCH  24  25
ENDBRANCH  23  24
BRANCH  23  27
HETATM   27  C   UNK N   1      20.693  16.543   6.136  0.00  0.00     0.003 C 
HETATM   28  C   UNK N   1      21.266  15.475   7.061  0.00  0.00     0.011 C 
HETATM   29  C   UNK N   1      21.068  17.875   6.772  0.00  0.00     0.011 C 
ENDBRANCH  23  27
ENDBRANCH  10  23
BRANCH   6  30
HETATM   30  C   UNK N   1      21.452  20.683   2.327  0.00  0.00     0.181 C 
HETATM   31  O   UNK N   1      20.657  20.362   1.456  0.00  0.00    -0.646 OA
BRANCH  30  32
HETATM   32  O   UNK N   1      21.615  21.987   2.620  0.00  0.00    -0.772 OA
HETATM   33  H   UNK N   1      21.843  22.247   3.490  0.00  0.00     0.167 HD
ENDBRANCH  30  32
ENDBRANCH   6  30
TORSDOF 9
ENDMDL
MODEL 3
REMARK VINA RESULT:      -6.9      3.290      4.977
REMARK  9 active torsions:
REMARK  status: ('A' for Active; 'I' for Inactive)
REMARK    1  A    between atoms: C_13  and  C_7 
REMARK    2  A    between atoms: C_14  and  C_7 
REMARK    3  A    between atoms: C_19  and  C_11 
REMARK    4  A    between atoms: O_27  and  C_11 
REMARK    5  A    between atoms: C_19  and  C_12 
REMARK    6  A    between atoms: C_23  and  C_16 
REMARK    7  A    between atoms: C_19  and  N_26 
REMARK    8  A    between atoms: O_31  and  C_20 
REMARK    9  A    between atoms: O_30  and  C_23 
ROOT
HETATM    1  C   UNK N   1      30.386  17.104   7.049  0.00  0.00     0.028 A 
HETATM    2  C   UNK N   1      31.260  14.803   5.811  0.00  0.00     0.067 A 
HETATM    3  C   UNK N   1      34.366  16.039   7.373  0.00  0.00     0.114 A 
HETATM    4  C   UNK N   1      29.447  16.323   6.386  0.00  0.00    -0.019 A 
HETATM    5  C   UNK N   1      31.724  16.752   7.146  0.00  0.00     0.043 A 
HETATM    6  C   UNK N   1      33.922  17.190   8.026  0.00  0.00     0.104 A 
HETATM    7  C   UNK N   1      32.199  15.568   6.530  0.00  0.00     0.051 A 
HETATM    8  C   UNK N   1      29.898  15.140   5.733  0.00  0.00     0.077 A 
HETATM    9  C   UNK N   1      32.585  17.558   7.890  0.00  0.00     0.202 A 
HETATM   10  N   UNK N   1      33.544  15.219   6.645  0.00  0.00    -0.348 N 
HETATM   11  O   UNK N   1      32.158  18.568   8.435  0.00  0.00    -0.286 OA
ENDROOT
BRANCH   4  12
HETATM   12  C   UNK N   1      27.984  16.727   6.466  0.00  0.00     0.083 C 
BRANCH  12  13
HETATM   13  C   UNK N   1      27.577  17.992   5.736  0.00  0.00    -0.013 A 
HETATM   14  C   UNK N   1      27.250  17.888   4.380  0.00  0.00     0.011 A 
HETATM   15  C   UNK N   1      26.885  19.022   3.649  0.00  0.00     0.002 A 
HETATM   16  C   UNK N   1      26.874  20.276   4.259  0.00  0.00     0.027 A 
HETATM   17  C   UNK N   1      27.192  20.398   5.614  0.00  0.00     0.073 A 
HETATM   18  C   UNK N   1      27.517  19.261   6.364  0.00  0.00     0.144 A 
HETATM   19 Cl   UNK N   1      27.211  21.987   6.356  0.00  0.00    -0.081 Cl
HETATM   20  F   UNK N   1      27.791  19.404   7.687  0.00  0.00    -0.204 F 
ENDBRANCH  12  13
ENDBRANCH   4  12
BRANCH   8  21
HETATM   21  O   UNK N   1      29.090  14.294   5.039  0.00  0.00    -0.355 OA
HETATM   22  C   UNK N   1      29.369  13.716   3.823  0.00  0.00     0.210 C 
ENDBRANCH   8  21
BRANCH  10  23
HETATM   23  C   UNK N   1      34.219  14.032   6.001  0.00  0.00     0.116 C 
BRANCH  23  24
HETATM   24  C   UNK N   1      35.134  13.214   6.929  0.00  0.00     0.190 C 
BRANCH  24  25
HETATM   25  O   UNK N   1      34.383  12.497   7.868  0.00  0.00    -0.399 OA
HETATM   26  H   UNK N   1      33.882  11.788   8.301  0.00  0.00     0.209 HD
ENDBRANCH  24  25
ENDBRANCH  23  24
BRANCH  23  27
HETATM   27  C   UNK N   1      35.035  14.391   4.715  0.00  0.00     0.003 C 
HETATM   28  C   UNK N   1      36.268  13.507   4.561  0.00  0.00     0.011 C 
HETATM   29  C   UNK N   1      34.250  14.222   3.422  0.00  0.00     0.011 C 
ENDBRANCH  23  27
ENDBRANCH  10  23
BRANCH   6  30
HETATM   30  C   UNK N   1      34.879  17.959   8.866  0.00  0.00     0.181 C 
HETATM   31  O   UNK N   1      35.373  17.462   9.867  0.00  0.00    -0.646 OA
BRANCH  30  32
HETATM   32  O   UNK N   1      35.244  19.202   8.500  0.00  0.00    -0.772 OA
HETATM   33  H   UNK N   1      35.204  19.457   7.600  0.00  0.00     0.167 HD
ENDBRANCH  30  32
ENDBRANCH   6  30
TORSDOF 9
ENDMDL
MODEL 4
REMARK VINA RESULT:      -6.9     12.755     15.614
REMARK  9 active torsions:
REMARK  status: ('A' for Active; 'I' for Inactive)
REMARK    1  A    between atoms: C_13  and  C_7 
REMARK    2  A    between atoms: C_14  and  C_7 
REMARK    3  A    between atoms: C_19  and  C_11 
REMARK    4  A    between atoms: O_27  and  C_11 
REMARK    5  A    between atoms: C_19  and  C_12 
REMARK    6  A    between atoms: C_23  and  C_16 
REMARK    7  A    between atoms: C_19  and  N_26 
REMARK    8  A    between atoms: O_31  and  C_20 
REMARK    9  A    between atoms: O_30  and  C_23 
ROOT
HETATM    1  C   UNK N   1      27.504  24.609  -5.013  0.00  0.00     0.028 A 
HETATM    2  C   UNK N   1      27.161  22.965  -7.197  0.00  0.00     0.067 A 
HETATM    3  C   UNK N   1      30.047  21.390  -5.520  0.00  0.00     0.114 A 
HETATM    4  C   UNK N   1      26.441  24.874  -5.867  0.00  0.00    -0.019 A 
HETATM    5  C   UNK N   1      28.365  23.536  -5.190  0.00  0.00     0.043 A 
HETATM    6  C   UNK N   1      30.206  22.203  -4.397  0.00  0.00     0.104 A 
HETATM    7  C   UNK N   1      28.205  22.666  -6.298  0.00  0.00     0.051 A 
HETATM    8  C   UNK N   1      26.270  24.034  -7.005  0.00  0.00     0.077 A 
HETATM    9  C   UNK N   1      29.363  23.303  -4.246  0.00  0.00     0.202 A 
HETATM   10  N   UNK N   1      29.069  21.585  -6.460  0.00  0.00    -0.348 N 
HETATM   11  O   UNK N   1      29.479  24.050  -3.282  0.00  0.00    -0.286 OA
ENDROOT
BRANCH   4  12
HETATM   12  C   UNK N   1      25.474  25.986  -5.497  0.00  0.00     0.083 C 
BRANCH  12  13
HETATM   13  C   UNK N   1      26.075  27.336  -5.155  0.00  0.00    -0.013 A 
HETATM   14  C   UNK N   1      25.656  27.956  -3.972  0.00  0.00     0.011 A 
HETATM   15  C   UNK N   1      26.159  29.209  -3.612  0.00  0.00     0.002 A 
HETATM   16  C   UNK N   1      27.063  29.869  -4.446  0.00  0.00     0.027 A 
HETATM   17  C   UNK N   1      27.496  29.261  -5.626  0.00  0.00     0.073 A 
HETATM   18  C   UNK N   1      27.030  27.987  -5.974  0.00  0.00     0.144 A 
HETATM   19 Cl   UNK N   1      28.602  30.121  -6.682  0.00  0.00    -0.081 Cl
HETATM   20  F   UNK N   1      27.492  27.408  -7.112  0.00  0.00    -0.204 F 
ENDBRANCH  12  13
ENDBRANCH   4  12
BRANCH   8  21
HETATM   21  O   UNK N   1      25.281  24.188  -7.927  0.00  0.00    -0.355 OA
HETATM   22  C   UNK N   1      25.452  24.411  -9.273  0.00  0.00     0.210 C 
ENDBRANCH   8  21
BRANCH  10  23
HETATM   23  C   UNK N   1      29.072  20.607  -7.610  0.00  0.00     0.116 C 
BRANCH  23  24
HETATM   24  C   UNK N   1      29.896  19.327  -7.382  0.00  0.00     0.190 C 
BRANCH  24  25
HETATM   25  O   UNK N   1      29.139  18.186  -7.674  0.00  0.00    -0.399 OA
HETATM   26  H   UNK N   1      28.431  17.523  -7.670  0.00  0.00     0.209 HD
ENDBRANCH  24  25
ENDBRANCH  23  24
BRANCH  23  27
HETATM   27  C   UNK N   1      29.527  21.235  -8.970  0.00  0.00     0.003 C 
HETATM   28  C   UNK N   1      30.952  20.833  -9.331  0.00  0.00     0.011 C 
HETATM   29  C   UNK N   1      28.672  20.812 -10.158  0.00  0.00     0.011 C 
ENDBRANCH  23  27
ENDBRANCH  10  23
BRANCH   6  30
HETATM   30  C   UNK N   1      31.242  21.850  -3.390  0.00  0.00     0.181 C 
HETATM   31  O   UNK N   1      32.178  21.121  -3.683  0.00  0.00    -0.646 OA
BRANCH  30  32
HETATM   32  O   UNK N   1      31.180  22.372  -2.150  0.00  0.00    -0.772 OA
HETATM   33  H   UNK N   1      30.540  23.025  -1.948  0.00  0.00     0.167 HD
ENDBRANCH  30  32
ENDBRANCH   6  30
TORSDOF 9
ENDMDL
MODEL 5
REMARK VINA RESULT:      -6.7      6.791      8.917
REMARK  9 active torsions:
REMARK  status: ('A' for Active; 'I' for Inactive)
REMARK    1  A    between atoms: C_13  and  C_7 
REMARK    2  A    between atoms: C_14  and  C_7 
REMARK    3  A    between atoms: C_19  and  C_11 
REMARK    4  A    between atoms: O_27  and  C_11 
REMARK    5  A    between atoms: C_19  and  C_12 
REMARK    6  A    between atoms: C_23  and  C_16 
REMARK    7  A    between atoms: C_19  and  N_26 
REMARK    8  A    between atoms: O_31  and  C_20 
REMARK    9  A    between atoms: O_30  and  C_23 
ROOT
HETATM    1  C   UNK N   1      22.950  17.447   5.592  0.00  0.00     0.028 A 
HETATM    2  C   UNK N   1      23.679  14.894   6.327  0.00  0.00     0.067 A 
HETATM    3  C   UNK N   1      20.675  15.440   8.399  0.00  0.00     0.114 A 
HETATM    4  C   UNK N   1      24.043  16.872   4.955  0.00  0.00    -0.019 A 
HETATM    5  C   UNK N   1      22.195  16.777   6.543  0.00  0.00     0.043 A 
HETATM    6  C   UNK N   1      20.285  16.722   8.008  0.00  0.00     0.104 A 
HETATM    7  C   UNK N   1      22.539  15.459   6.931  0.00  0.00     0.051 A 
HETATM    8  C   UNK N   1      24.431  15.557   5.343  0.00  0.00     0.077 A 
HETATM    9  C   UNK N   1      21.072  17.404   7.081  0.00  0.00     0.202 A 
HETATM   10  N   UNK N   1      21.765  14.792   7.880  0.00  0.00    -0.348 N 
HETATM   11  O   UNK N   1      20.773  18.536   6.723  0.00  0.00    -0.286 OA
ENDROOT
BRANCH   4  12
HETATM   12  C   UNK N   1      24.708  17.640   3.825  0.00  0.00     0.083 C 
BRANCH  12  13
HETATM   13  C   UNK N   1      25.978  18.397   4.160  0.00  0.00    -0.013 A 
HETATM   14  C   UNK N   1      27.201  17.808   3.817  0.00  0.00     0.011 A 
HETATM   15  C   UNK N   1      28.406  18.447   4.117  0.00  0.00     0.002 A 
HETATM   16  C   UNK N   1      28.403  19.669   4.791  0.00  0.00     0.027 A 
HETATM   17  C   UNK N   1      27.192  20.275   5.136  0.00  0.00     0.073 A 
HETATM   18  C   UNK N   1      25.979  19.661   4.801  0.00  0.00     0.144 A 
HETATM   19 Cl   UNK N   1      27.207  21.791   6.017  0.00  0.00    -0.081 Cl
HETATM   20  F   UNK N   1      24.817  20.287   5.120  0.00  0.00    -0.204 F 
ENDBRANCH  12  13
ENDBRANCH   4  12
BRANCH   8  21
HETATM   21  O   UNK N   1      25.486  14.884   4.811  0.00  0.00    -0.355 OA
HETATM   22  C   UNK N   1      26.647  14.544   5.464  0.00  0.00     0.210 C 
ENDBRANCH   8  21
BRANCH  10  23
HETATM   23  C   UNK N   1      22.030  13.417   8.445  0.00  0.00     0.116 C 
BRANCH  23  24
HETATM   24  C   UNK N   1      21.063  12.316   7.976  0.00  0.00     0.190 C 
BRANCH  24  25
HETATM   25  O   UNK N   1      20.654  12.538   6.655  0.00  0.00    -0.399 OA
HETATM   26  H   UNK N   1      20.607  12.884   5.750  0.00  0.00     0.209 HD
ENDBRANCH  24  25
ENDBRANCH  23  24
BRANCH  23  27
HETATM   27  C   UNK N   1      22.082  13.377  10.009  0.00  0.00     0.003 C 
HETATM   28  C   UNK N   1      20.846  12.707  10.600  0.00  0.00     0.011 C 
HETATM   29  C   UNK N   1      23.269  12.602  10.564  0.00  0.00     0.011 C 
ENDBRANCH  23  27
ENDBRANCH  10  23
BRANCH   6  30
HETATM   30  C   UNK N   1      19.032  17.298   8.566  0.00  0.00     0.181 C 
HETATM   31  O   UNK N   1      17.964  16.718   8.438  0.00  0.00    -0.646 OA
BRANCH  30  32
HETATM   32  O   UNK N   1      19.074  18.450   9.262  0.00  0.00    -0.772 OA
HETATM   33  H   UNK N   1      19.169  18.432  10.194  0.00  0.00     0.167 HD
ENDBRANCH  30  32
ENDBRANCH   6  30
TORSDOF 9
ENDMDL
MODEL 6
REMARK VINA RESULT:      -6.7      6.861     10.188
REMARK  9 active torsions:
REMARK  status: ('A' for Active; 'I' for Inactive)
REMARK    1  A    between atoms: C_13  and  C_7 
REMARK    2  A    between atoms: C_14  and  C_7 
REMARK    3  A    between atoms: C_19  and  C_11 
REMARK    4  A    between atoms: O_27  and  C_11 
REMARK    5  A    between atoms: C_19  and  C_12 
REMARK    6  A    between atoms: C_23  and  C_16 
REMARK    7  A    between atoms: C_19  and  N_26 
REMARK    8  A    between atoms: O_31  and  C_20 
REMARK    9  A    between atoms: O_30  and  C_23 
ROOT
HETATM    1  C   UNK N   1      35.950  14.683  11.293  0.00  0.00     0.028 A 
HETATM    2  C   UNK N   1      35.690  12.830   9.272  0.00  0.00     0.067 A 
HETATM    3  C   UNK N   1      34.503  15.909   7.620  0.00  0.00     0.114 A 
HETATM    4  C   UNK N   1      36.367  13.382  11.545  0.00  0.00    -0.019 A 
HETATM    5  C   UNK N   1      35.453  15.091  10.064  0.00  0.00     0.043 A 
HETATM    6  C   UNK N   1      34.660  16.857   8.632  0.00  0.00     0.104 A 
HETATM    7  C   UNK N   1      35.320  14.162   9.003  0.00  0.00     0.051 A 
HETATM    8  C   UNK N   1      36.221  12.418  10.506  0.00  0.00     0.077 A 
HETATM    9  C   UNK N   1      35.123  16.433   9.877  0.00  0.00     0.202 A 
HETATM   10  N   UNK N   1      34.829  14.586   7.768  0.00  0.00    -0.348 N 
HETATM   11  O   UNK N   1      35.261  17.230  10.796  0.00  0.00    -0.286 OA
ENDROOT
BRANCH   4  12
HETATM   12  C   UNK N   1      37.031  13.080  12.878  0.00  0.00     0.083 C 
BRANCH  12  13
HETATM   13  C   UNK N   1      36.120  12.880  14.072  0.00  0.00    -0.013 A 
HETATM   14  C   UNK N   1      35.032  12.012  13.927  0.00  0.00     0.011 A 
HETATM   15  C   UNK N   1      34.145  11.801  14.986  0.00  0.00     0.002 A 
HETATM   16  C   UNK N   1      34.319  12.480  16.192  0.00  0.00     0.027 A 
HETATM   17  C   UNK N   1      35.403  13.346  16.357  0.00  0.00     0.073 A 
HETATM   18  C   UNK N   1      36.321  13.530  15.315  0.00  0.00     0.144 A 
HETATM   19 Cl   UNK N   1      35.585  14.221  17.867  0.00  0.00    -0.081 Cl
HETATM   20  F   UNK N   1      37.382  14.353  15.514  0.00  0.00    -0.204 F 
ENDBRANCH  12  13
ENDBRANCH   4  12
BRANCH   8  21
HETATM   21  O   UNK N   1      36.576  11.110  10.622  0.00  0.00    -0.355 OA
HETATM   22  C   UNK N   1      37.801  10.569  10.313  0.00  0.00     0.210 C 
ENDBRANCH   8  21
BRANCH  10  23
HETATM   23  C   UNK N   1      34.570  13.716   6.562  0.00  0.00     0.116 C 
BRANCH  23  24
HETATM   24  C   UNK N   1      33.607  12.540   6.794  0.00  0.00     0.190 C 
BRANCH  24  25
HETATM   25  O   UNK N   1      32.365  12.785   6.197  0.00  0.00    -0.399 OA
HETATM   26  H   UNK N   1      31.419  12.742   5.984  0.00  0.00     0.209 HD
ENDBRANCH  24  25
ENDBRANCH  23  24
BRANCH  23  27
HETATM   27  C   UNK N   1      35.872  13.149   5.903  0.00  0.00     0.003 C 
HETATM   28  C   UNK N   1      35.589  12.509   4.548  0.00  0.00     0.011 C 
HETATM   29  C   UNK N   1      36.937  14.204   5.638  0.00  0.00     0.011 C 
ENDBRANCH  23  27
ENDBRANCH  10  23
BRANCH   6  30
HETATM   30  C   UNK N   1      34.362  18.284   8.338  0.00  0.00     0.181 C 
HETATM   31  O   UNK N   1      33.238  18.634   8.008  0.00  0.00    -0.646 OA
BRANCH  30  32
HETATM   32  O   UNK N   1      35.325  19.214   8.478  0.00  0.00    -0.772 OA
HETATM   33  H   UNK N   1      35.713  19.366   9.317  0.00  0.00     0.167 HD
ENDBRANCH  30  32
ENDBRANCH   6  30
TORSDOF 9
ENDMDL
MODEL 7
REMARK VINA RESULT:      -6.7     11.768     14.765
REMARK  9 active torsions:
REMARK  status: ('A' for Active; 'I' for Inactive)
REMARK    1  A    between atoms: C_13  and  C_7 
REMARK    2  A    between atoms: C_14  and  C_7 
REMARK    3  A    between atoms: C_19  and  C_11 
REMARK    4  A    between atoms: O_27  and  C_11 
REMARK    5  A    between atoms: C_19  and  C_12 
REMARK    6  A    between atoms: C_23  and  C_16 
REMARK    7  A    between atoms: C_19  and  N_26 
REMARK    8  A    between atoms: O_31  and  C_20 
REMARK    9  A    between atoms: O_30  and  C_23 
ROOT
HETATM    1  C   UNK N   1      29.071  23.793  -3.503  0.00  0.00     0.028 A 
HETATM    2  C   UNK N   1      28.562  22.846  -6.039  0.00  0.00     0.067 A 
HETATM    3  C   UNK N   1      31.664  21.044  -5.176  0.00  0.00     0.114 A 
HETATM    4  C   UNK N   1      27.915  24.226  -4.140  0.00  0.00    -0.019 A 
HETATM    5  C   UNK N   1      29.947  22.881  -4.069  0.00  0.00     0.043 A 
HETATM    6  C   UNK N   1      31.910  21.499  -3.879  0.00  0.00     0.104 A 
HETATM    7  C   UNK N   1      29.704  22.367  -5.368  0.00  0.00     0.051 A 
HETATM    8  C   UNK N   1      27.656  23.749  -5.457  0.00  0.00     0.077 A 
HETATM    9  C   UNK N   1      31.047  22.447  -3.331  0.00  0.00     0.202 A 
HETATM   10  N   UNK N   1      30.586  21.441  -5.923  0.00  0.00    -0.348 N 
HETATM   11  O   UNK N   1      31.236  22.883  -2.202  0.00  0.00    -0.286 OA
ENDROOT
BRANCH   4  12
HETATM   12  C   UNK N   1      26.951  25.114  -3.369  0.00  0.00     0.083 C 
BRANCH  12  13
HETATM   13  C   UNK N   1      26.878  26.571  -3.779  0.00  0.00    -0.013 A 
HETATM   14  C   UNK N   1      25.627  27.089  -4.132  0.00  0.00     0.011 A 
HETATM   15  C   UNK N   1      25.498  28.420  -4.537  0.00  0.00     0.002 A 
HETATM   16  C   UNK N   1      26.624  29.239  -4.623  0.00  0.00     0.027 A 
HETATM   17  C   UNK N   1      27.880  28.741  -4.269  0.00  0.00     0.073 A 
HETATM   18  C   UNK N   1      28.012  27.420  -3.821  0.00  0.00     0.144 A 
HETATM   19 Cl   UNK N   1      29.290  29.773  -4.420  0.00  0.00    -0.081 Cl
HETATM   20  F   UNK N   1      29.239  26.972  -3.454  0.00  0.00    -0.204 F 
ENDBRANCH  12  13
ENDBRANCH   4  12
BRANCH   8  21
HETATM   21  O   UNK N   1      26.571  24.102  -6.199  0.00  0.00    -0.355 OA
HETATM   22  C   UNK N   1      26.568  24.938  -7.290  0.00  0.00     0.210 C 
ENDBRANCH   8  21
BRANCH  10  23
HETATM   23  C   UNK N   1      30.506  20.847  -7.308  0.00  0.00     0.116 C 
BRANCH  23  24
HETATM   24  C   UNK N   1      30.699  21.845  -8.464  0.00  0.00     0.190 C 
BRANCH  24  25
HETATM   25  O   UNK N   1      31.753  22.726  -8.193  0.00  0.00    -0.399 OA
HETATM   26  H   UNK N   1      32.248  23.520  -7.938  0.00  0.00     0.209 HD
ENDBRANCH  24  25
ENDBRANCH  23  24
BRANCH  23  27
HETATM   27  C   UNK N   1      29.185  20.051  -7.577  0.00  0.00     0.003 C 
HETATM   28  C   UNK N   1      28.480  20.533  -8.840  0.00  0.00     0.011 C 
HETATM   29  C   UNK N   1      29.397  18.557  -7.775  0.00  0.00     0.011 C 
ENDBRANCH  23  27
ENDBRANCH  10  23
BRANCH   6  30
HETATM   30  C   UNK N   1      33.059  20.935  -3.121  0.00  0.00     0.181 C 
HETATM   31  O   UNK N   1      34.020  20.457  -3.704  0.00  0.00    -0.646 OA
BRANCH  30  32
HETATM   32  O   UNK N   1      33.067  20.989  -1.775  0.00  0.00    -0.772 OA
HETATM   33  H   UNK N   1      33.752  20.570  -1.293  0.00  0.00     0.167 HD
ENDBRANCH  30  32
ENDBRANCH   6  30
TORSDOF 9
ENDMDL
MODEL 8
REMARK VINA RESULT:      -6.6     12.226     15.336
REMARK  9 active torsions:
REMARK  status: ('A' for Active; 'I' for Inactive)
REMARK    1  A    between atoms: C_13  and  C_7 
REMARK    2  A    between atoms: C_14  and  C_7 
REMARK    3  A    between atoms: C_19  and  C_11 
REMARK    4  A    between atoms: O_27  and  C_11 
REMARK    5  A    between atoms: C_19  and  C_12 
REMARK    6  A    between atoms: C_23  and  C_16 
REMARK    7  A    between atoms: C_19  and  N_26 
REMARK    8  A    between atoms: O_31  and  C_20 
REMARK    9  A    between atoms: O_30  and  C_23 
ROOT
HETATM    1  C   UNK N   1      29.535  21.166  -6.499  0.00  0.00     0.028 A 
HETATM    2  C   UNK N   1      29.051  23.319  -4.849  0.00  0.00     0.067 A 
HETATM    3  C   UNK N   1      26.459  23.762  -7.439  0.00  0.00     0.114 A 
HETATM    4  C   UNK N   1      30.309  21.296  -5.352  0.00  0.00    -0.019 A 
HETATM    5  C   UNK N   1      28.512  22.044  -6.820  0.00  0.00     0.043 A 
HETATM    6  C   UNK N   1      26.682  22.656  -8.262  0.00  0.00     0.104 A 
HETATM    7  C   UNK N   1      28.232  23.153  -5.984  0.00  0.00     0.051 A 
HETATM    8  C   UNK N   1      30.070  22.415  -4.505  0.00  0.00     0.077 A 
HETATM    9  C   UNK N   1      27.739  21.800  -7.954  0.00  0.00     0.202 A 
HETATM   10  N   UNK N   1      27.193  24.024  -6.311  0.00  0.00    -0.348 N 
HETATM   11  O   UNK N   1      27.977  20.827  -8.659  0.00  0.00    -0.286 OA
ENDROOT
BRANCH   4  12
HETATM   12  C   UNK N   1      31.305  20.196  -5.023  0.00  0.00     0.083 C 
BRANCH  12  13
HETATM   13  C   UNK N   1      32.776  20.561  -5.069  0.00  0.00    -0.013 A 
HETATM   14  C   UNK N   1      33.479  20.594  -3.860  0.00  0.00     0.011 A 
HETATM   15  C   UNK N   1      34.832  20.942  -3.835  0.00  0.00     0.002 A 
HETATM   16  C   UNK N   1      35.489  21.290  -5.016  0.00  0.00     0.027 A 
HETATM   17  C   UNK N   1      34.804  21.257  -6.232  0.00  0.00     0.073 A 
HETATM   18  C   UNK N   1      33.459  20.868  -6.272  0.00  0.00     0.144 A 
HETATM   19 Cl   UNK N   1      35.633  21.735  -7.702  0.00  0.00    -0.081 Cl
HETATM   20  F   UNK N   1      32.826  20.814  -7.472  0.00  0.00    -0.204 F 
ENDBRANCH  12  13
ENDBRANCH   4  12
BRANCH   8  21
HETATM   21  O   UNK N   1      30.762  22.670  -3.361  0.00  0.00    -0.355 OA
HETATM   22  C   UNK N   1      30.222  22.962  -2.131  0.00  0.00     0.210 C 
ENDBRANCH   8  21
BRANCH  10  23
HETATM   23  C   UNK N   1      26.807  25.278  -5.565  0.00  0.00     0.116 C 
BRANCH  23  24
HETATM   24  C   UNK N   1      25.831  25.071  -4.393  0.00  0.00     0.190 C 
BRANCH  24  25
HETATM   25  O   UNK N   1      26.511  25.062  -3.170  0.00  0.00    -0.399 OA
HETATM   26  H   UNK N   1      27.160  24.862  -2.477  0.00  0.00     0.209 HD
ENDBRANCH  24  25
ENDBRANCH  23  24
BRANCH  23  27
HETATM   27  C   UNK N   1      26.225  26.404  -6.483  0.00  0.00     0.003 C 
HETATM   28  C   UNK N   1      24.937  26.990  -5.914  0.00  0.00     0.011 C 
HETATM   29  C   UNK N   1      27.162  27.589  -6.671  0.00  0.00     0.011 C 
ENDBRANCH  23  27
ENDBRANCH  10  23
BRANCH   6  30
HETATM   30  C   UNK N   1      25.770  22.415  -9.411  0.00  0.00     0.181 C 
HETATM   31  O   UNK N   1      25.586  23.278 -10.257  0.00  0.00    -0.646 OA
BRANCH  30  32
HETATM   32  O   UNK N   1      25.169  21.218  -9.552  0.00  0.00    -0.772 OA
HETATM   33  H   UNK N   1      25.205  20.591  -8.858  0.00  0.00     0.167 HD
ENDBRANCH  30  32
ENDBRANCH   6  30
TORSDOF 9
ENDMDL
MODEL 9
REMARK VINA RESULT:      -6.6      5.596      9.020
REMARK  9 active torsions:
REMARK  status: ('A' for Active; 'I' for Inactive)
REMARK    1  A    between atoms: C_13  and  C_7 
REMARK    2  A    between atoms: C_14  and  C_7 
REMARK    3  A    between atoms: C_19  and  C_11 
REMARK    4  A    between atoms: O_27  and  C_11 
REMARK    5  A    between atoms: C_19  and  C_12 
REMARK    6  A    between atoms: C_23  and  C_16 
REMARK    7  A    between atoms: C_19  and  N_26 
REMARK    8  A    between atoms: O_31  and  C_20 
REMARK    9  A    between atoms: O_30  and  C_23 
ROOT
HETATM    1  C   UNK N   1      26.203  15.069   6.597  0.00  0.00     0.028 A 
HETATM    2  C   UNK N   1      24.647  16.912   5.266  0.00  0.00     0.067 A 
HETATM    3  C   UNK N   1      22.098  14.944   7.069  0.00  0.00     0.114 A 
HETATM    4  C   UNK N   1      26.847  16.037   5.837  0.00  0.00    -0.019 A 
HETATM    5  C   UNK N   1      24.825  15.019   6.745  0.00  0.00     0.043 A 
HETATM    6  C   UNK N   1      22.885  14.026   7.768  0.00  0.00     0.104 A 
HETATM    7  C   UNK N   1      24.000  15.962   6.082  0.00  0.00     0.051 A 
HETATM    8  C   UNK N   1      26.044  16.983   5.136  0.00  0.00     0.077 A 
HETATM    9  C   UNK N   1      24.266  14.056   7.583  0.00  0.00     0.202 A 
HETATM   10  N   UNK N   1      22.617  15.910   6.247  0.00  0.00    -0.348 N 
HETATM   11  O   UNK N   1      24.990  13.259   8.167  0.00  0.00    -0.286 OA
ENDROOT
BRANCH   4  12
HETATM   12  C   UNK N   1      28.365  16.086   5.862  0.00  0.00     0.083 C 
BRANCH  12  13
HETATM   13  C   UNK N   1      29.010  16.893   6.972  0.00  0.00    -0.013 A 
HETATM   14  C   UNK N   1      28.180  17.689   7.769  0.00  0.00     0.011 A 
HETATM   15  C   UNK N   1      28.717  18.470   8.796  0.00  0.00     0.002 A 
HETATM   16  C   UNK N   1      30.095  18.487   9.016  0.00  0.00     0.027 A 
HETATM   17  C   UNK N   1      30.938  17.695   8.234  0.00  0.00     0.073 A 
HETATM   18  C   UNK N   1      30.403  16.876   7.231  0.00  0.00     0.144 A 
HETATM   19 Cl   UNK N   1      32.671  17.758   8.499  0.00  0.00    -0.081 Cl
HETATM   20  F   UNK N   1      31.243  16.092   6.507  0.00  0.00    -0.204 F 
ENDBRANCH  12  13
ENDBRANCH   4  12
BRANCH   8  21
HETATM   21  O   UNK N   1      26.543  17.973   4.348  0.00  0.00    -0.355 OA
HETATM   22  C   UNK N   1      25.822  18.982   3.754  0.00  0.00     0.210 C 
ENDBRANCH   8  21
BRANCH  10  23
HETATM   23  C   UNK N   1      21.601  16.796   5.568  0.00  0.00     0.116 C 
BRANCH  23  24
HETATM   24  C   UNK N   1      20.572  17.454   6.504  0.00  0.00     0.190 C 
BRANCH  24  25
HETATM   25  O   UNK N   1      21.043  18.684   6.979  0.00  0.00    -0.399 OA
HETATM   26  H   UNK N   1      21.636  19.401   7.253  0.00  0.00     0.209 HD
ENDBRANCH  24  25
ENDBRANCH  23  24
BRANCH  23  27
HETATM   27  C   UNK N   1      20.815  16.085   4.415  0.00  0.00     0.003 C 
HETATM   28  C   UNK N   1      19.307  16.172   4.619  0.00  0.00     0.011 C 
HETATM   29  C   UNK N   1      21.074  16.680   3.038  0.00  0.00     0.011 C 
ENDBRANCH  23  27
ENDBRANCH  10  23
BRANCH   6  30
HETATM   30  C   UNK N   1      22.227  13.077   8.705  0.00  0.00     0.181 C 
HETATM   31  O   UNK N   1      21.258  12.420   8.353  0.00  0.00    -0.646 OA
BRANCH  30  32
HETATM   32  O   UNK N   1      22.726  12.901   9.943  0.00  0.00    -0.772 OA
HETATM   33  H   UNK N   1      23.391  12.259  10.093  0.00  0.00     0.167 HD
ENDBRANCH  30  32
ENDBRANCH   6  30
TORSDOF 9
ENDMDL
