MODEL 1
REMARK VINA RESULT:      -3.4      0.000      0.000
REMARK  4 active torsions:
REMARK  status: ('A' for Active; 'I' for Inactive)
REMARK    1  A    between atoms: S_1  and  O_3 
REMARK    2  A    between atoms: S_1  and  C_6 
REMARK    3  A    between atoms: S_2  and  C_7 
REMARK    4  A    between atoms: C_6  and  C_7 
ROOT
HETATM    1  S   UNK N   1      21.429  20.060   2.814  0.00  0.00     0.094 S 
HETATM    2  O   UNK N   1      20.836  20.469   1.457  0.00  0.00    -0.601 OA
HETATM    3  O   UNK N   1      20.361  20.647   3.753  0.00  0.00    -0.601 OA
ENDROOT
BRANCH   1   4
HETATM    4  O   UNK N   1      21.762  21.744   2.799  0.00  0.00    -0.296 OA
HETATM    5  H   UNK N   1      22.614  22.118   3.072  0.00  0.00     0.232 HD
ENDBRANCH   1   4
BRANCH   1   6
HETATM    6  C   UNK N   1      19.887  19.113   2.601  0.00  0.00     0.165 C 
BRANCH   6   7
HETATM    7  C   UNK N   1      20.189  17.622   2.578  0.00  0.00     0.087 C 
BRANCH   7   8
HETATM    8  S   UNK N   1      20.008  16.986   0.890  0.00  0.00    -0.181 SA
HETATM    9  H   UNK N   1      19.195  17.540  -0.049  0.00  0.00     0.101 HD
ENDBRANCH   7   8
ENDBRANCH   6   7
ENDBRANCH   1   6
TORSDOF 4
ENDMDL
MODEL 2
REMARK VINA RESULT:      -3.4     13.899     14.500
REMARK  4 active torsions:
REMARK  status: ('A' for Active; 'I' for Inactive)
REMARK    1  A    between atoms: S_1  and  O_3 
REMARK    2  A    between atoms: S_1  and  C_6 
REMARK    3  A    between atoms: S_2  and  C_7 
REMARK    4  A    between atoms: C_6  and  C_7 
ROOT
HETATM    1  S   UNK N   1      33.834  18.290   8.240  0.00  0.00     0.094 S 
HETATM    2  O   UNK N   1      34.577  17.494   9.325  0.00  0.00    -0.601 OA
HETATM    3  O   UNK N   1      34.675  17.903   7.012  0.00  0.00    -0.601 OA
ENDROOT
BRANCH   1   4
HETATM    4  O   UNK N   1      35.262  19.225   8.421  0.00  0.00    -0.296 OA
HETATM    5  H   UNK N   1      35.984  19.220   7.775  0.00  0.00     0.232 HD
ENDBRANCH   1   4
BRANCH   1   6
HETATM    6  C   UNK N   1      33.562  16.524   7.884  0.00  0.00     0.165 C 
BRANCH   6   7
HETATM    7  C   UNK N   1      32.251  16.063   8.504  0.00  0.00     0.087 C 
BRANCH   7   8
HETATM    8  S   UNK N   1      31.023  17.392   8.401  0.00  0.00    -0.181 SA
HETATM    9  H   UNK N   1      31.305  18.661   8.000  0.00  0.00     0.101 HD
ENDBRANCH   7   8
ENDBRANCH   6   7
ENDBRANCH   1   6
TORSDOF 4
ENDMDL
MODEL 3
REMARK VINA RESULT:      -3.3     16.053     16.561
REMARK  4 active torsions:
REMARK  status: ('A' for Active; 'I' for Inactive)
REMARK    1  A    between atoms: S_1  and  O_3 
REMARK    2  A    between atoms: S_1  and  C_6 
REMARK    3  A    between atoms: S_2  and  C_7 
REMARK    4  A    between atoms: C_6  and  C_7 
ROOT
HETATM    1  S   UNK N   1      35.263  16.060  10.759  0.00  0.00     0.094 S 
HETATM    2  O   UNK N   1      35.686  15.217   9.545  0.00  0.00    -0.601 OA
HETATM    3  O   UNK N   1      35.560  17.468  10.214  0.00  0.00    -0.601 OA
ENDROOT
BRANCH   1   4
HETATM    4  O   UNK N   1      36.974  16.175  10.852  0.00  0.00    -0.296 OA
HETATM    5  H   UNK N   1      37.487  15.844  11.604  0.00  0.00     0.232 HD
ENDBRANCH   1   4
BRANCH   1   6
HETATM    6  C   UNK N   1      34.081  16.424   9.422  0.00  0.00     0.165 C 
BRANCH   6   7
HETATM    7  C   UNK N   1      34.548  17.636   8.629  0.00  0.00     0.087 C 
BRANCH   7   8
HETATM    8  S   UNK N   1      33.803  17.609   6.976  0.00  0.00    -0.181 SA
HETATM    9  H   UNK N   1      34.485  17.866   5.828  0.00  0.00     0.101 HD
ENDBRANCH   7   8
ENDBRANCH   6   7
ENDBRANCH   1   6
TORSDOF 4
ENDMDL
MODEL 4
REMARK VINA RESULT:      -3.3      2.041      2.711
REMARK  4 active torsions:
REMARK  status: ('A' for Active; 'I' for Inactive)
REMARK    1  A    between atoms: S_1  and  O_3 
REMARK    2  A    between atoms: S_1  and  C_6 
REMARK    3  A    between atoms: S_2  and  C_7 
REMARK    4  A    between atoms: C_6  and  C_7 
ROOT
HETATM    1  S   UNK N   1      20.993  20.236   2.522  0.00  0.00     0.094 S 
HETATM    2  O   UNK N   1      20.327  20.722   3.819  0.00  0.00    -0.601 OA
HETATM    3  O   UNK N   1      22.367  19.821   3.075  0.00  0.00    -0.601 OA
ENDROOT
BRANCH   1   4
HETATM    4  O   UNK N   1      21.796  21.733   2.769  0.00  0.00    -0.296 OA
HETATM    5  H   UNK N   1      21.873  22.156   3.637  0.00  0.00     0.232 HD
ENDBRANCH   1   4
BRANCH   1   6
HETATM    6  C   UNK N   1      20.772  18.774   3.586  0.00  0.00     0.165 C 
BRANCH   6   7
HETATM    7  C   UNK N   1      21.998  18.578   4.465  0.00  0.00     0.087 C 
BRANCH   7   8
HETATM    8  S   UNK N   1      21.487  18.004   6.108  0.00  0.00    -0.181 SA
HETATM    9  H   UNK N   1      21.250  16.702   6.421  0.00  0.00     0.101 HD
ENDBRANCH   7   8
ENDBRANCH   6   7
ENDBRANCH   1   6
TORSDOF 4
ENDMDL
MODEL 5
REMARK VINA RESULT:      -3.0     15.160     15.740
REMARK  4 active torsions:
REMARK  status: ('A' for Active; 'I' for Inactive)
REMARK    1  A    between atoms: S_1  and  O_3 
REMARK    2  A    between atoms: S_1  and  C_6 
REMARK    3  A    between atoms: S_2  and  C_7 
REMARK    4  A    between atoms: C_6  and  C_7 
ROOT
HETATM    1  S   UNK N   1      33.836  17.776   7.803  0.00  0.00     0.094 S 
HETATM    2  O   UNK N   1      34.958  18.823   7.891  0.00  0.00    -0.601 OA
HETATM    3  O   UNK N   1      34.677  16.515   7.540  0.00  0.00    -0.601 OA
ENDROOT
BRANCH   1   4
HETATM    4  O   UNK N   1      34.282  17.927   6.152  0.00  0.00    -0.296 OA
HETATM    5  H   UNK N   1      35.075  18.399   5.858  0.00  0.00     0.232 HD
ENDBRANCH   1   4
BRANCH   1   6
HETATM    6  C   UNK N   1      34.799  17.399   9.303  0.00  0.00     0.165 C 
BRANCH   6   7
HETATM    7  C   UNK N   1      34.681  15.919   9.640  0.00  0.00     0.087 C 
BRANCH   7   8
HETATM    8  S   UNK N   1      35.867  15.493  10.944  0.00  0.00    -0.181 SA
HETATM    9  H   UNK N   1      35.562  15.454  12.269  0.00  0.00     0.101 HD
ENDBRANCH   7   8
ENDBRANCH   6   7
ENDBRANCH   1   6
TORSDOF 4
ENDMDL
MODEL 6
REMARK VINA RESULT:      -3.0     11.832     12.343
REMARK  4 active torsions:
REMARK  status: ('A' for Active; 'I' for Inactive)
REMARK    1  A    between atoms: S_1  and  O_3 
REMARK    2  A    between atoms: S_1  and  C_6 
REMARK    3  A    between atoms: S_2  and  C_7 
REMARK    4  A    between atoms: C_6  and  C_7 
ROOT
HETATM    1  S   UNK N   1      30.755  22.211  -2.942  0.00  0.00     0.094 S 
HETATM    2  O   UNK N   1      31.909  22.990  -3.594  0.00  0.00    -0.601 OA
HETATM    3  O   UNK N   1      30.721  22.900  -1.567  0.00  0.00    -0.601 OA
ENDROOT
BRANCH   1   4
HETATM    4  O   UNK N   1      32.111  21.546  -2.126  0.00  0.00    -0.296 OA
HETATM    5  H   UNK N   1      32.870  21.158  -2.587  0.00  0.00     0.232 HD
ENDBRANCH   1   4
BRANCH   1   6
HETATM    6  C   UNK N   1      30.179  23.925  -3.166  0.00  0.00     0.165 C 
BRANCH   6   7
HETATM    7  C   UNK N   1      30.136  24.272  -4.647  0.00  0.00     0.087 C 
BRANCH   7   8
HETATM    8  S   UNK N   1      28.584  23.675  -5.370  0.00  0.00    -0.181 SA
HETATM    9  H   UNK N   1      27.645  22.971  -4.684  0.00  0.00     0.101 HD
ENDBRANCH   7   8
ENDBRANCH   6   7
ENDBRANCH   1   6
TORSDOF 4
ENDMDL
MODEL 7
REMARK VINA RESULT:      -2.9     12.383     12.861
REMARK  4 active torsions:
REMARK  status: ('A' for Active; 'I' for Inactive)
REMARK    1  A    between atoms: S_1  and  O_3 
REMARK    2  A    between atoms: S_1  and  C_6 
REMARK    3  A    between atoms: S_2  and  C_7 
REMARK    4  A    between atoms: C_6  and  C_7 
ROOT
HETATM    1  S   UNK N   1      31.199  22.750  -3.017  0.00  0.00     0.094 S 
HETATM    2  O   UNK N   1      29.892  21.953  -3.150  0.00  0.00    -0.601 OA
HETATM    3  O   UNK N   1      31.996  21.794  -2.112  0.00  0.00    -0.601 OA
ENDROOT
BRANCH   1   4
HETATM    4  O   UNK N   1      30.503  22.991  -1.467  0.00  0.00    -0.296 OA
HETATM    5  H   UNK N   1      30.845  22.574  -0.661  0.00  0.00     0.232 HD
ENDBRANCH   1   4
BRANCH   1   6
HETATM    6  C   UNK N   1      31.589  21.244  -3.965  0.00  0.00     0.165 C 
BRANCH   6   7
HETATM    7  C   UNK N   1      32.364  21.605  -5.223  0.00  0.00     0.087 C 
BRANCH   7   8
HETATM    8  S   UNK N   1      32.656  23.394  -5.270  0.00  0.00    -0.181 SA
HETATM    9  H   UNK N   1      33.462  24.058  -4.399  0.00  0.00     0.101 HD
ENDBRANCH   7   8
ENDBRANCH   6   7
ENDBRANCH   1   6
TORSDOF 4
ENDMDL
MODEL 8
REMARK VINA RESULT:      -2.9     33.354     33.982
REMARK  4 active torsions:
REMARK  status: ('A' for Active; 'I' for Inactive)
REMARK    1  A    between atoms: S_1  and  O_3 
REMARK    2  A    between atoms: S_1  and  C_6 
REMARK    3  A    between atoms: S_2  and  C_7 
REMARK    4  A    between atoms: C_6  and  C_7 
ROOT
HETATM    1  S   UNK N   1      49.038  18.412  20.703  0.00  0.00     0.094 S 
HETATM    2  O   UNK N   1      48.829  18.785  19.227  0.00  0.00    -0.601 OA
HETATM    3  O   UNK N   1      48.081  17.212  20.807  0.00  0.00    -0.601 OA
ENDROOT
BRANCH   1   4
HETATM    4  O   UNK N   1      47.485  19.141  20.760  0.00  0.00    -0.296 OA
HETATM    5  H   UNK N   1      47.350  20.100  20.800  0.00  0.00     0.232 HD
ENDBRANCH   1   4
BRANCH   1   6
HETATM    6  C   UNK N   1      49.714  17.044  19.709  0.00  0.00     0.165 C 
BRANCH   6   7
HETATM    7  C   UNK N   1      51.115  16.693  20.188  0.00  0.00     0.087 C 
BRANCH   7   8
HETATM    8  S   UNK N   1      52.344  17.562  19.178  0.00  0.00    -0.181 SA
HETATM    9  H   UNK N   1      53.552  17.982  19.641  0.00  0.00     0.101 HD
ENDBRANCH   7   8
ENDBRANCH   6   7
ENDBRANCH   1   6
TORSDOF 4
ENDMDL
MODEL 9
REMARK VINA RESULT:      -2.9     11.140     11.725
REMARK  4 active torsions:
REMARK  status: ('A' for Active; 'I' for Inactive)
REMARK    1  A    between atoms: S_1  and  O_3 
REMARK    2  A    between atoms: S_1  and  C_6 
REMARK    3  A    between atoms: S_2  and  C_7 
REMARK    4  A    between atoms: C_6  and  C_7 
ROOT
HETATM    1  S   UNK N   1      29.121  17.490   9.383  0.00  0.00     0.094 S 
HETATM    2  O   UNK N   1      29.430  18.797  10.131  0.00  0.00    -0.601 OA
HETATM    3  O   UNK N   1      28.970  18.037   7.954  0.00  0.00    -0.601 OA
ENDROOT
BRANCH   1   4
HETATM    4  O   UNK N   1      27.576  18.238   9.400  0.00  0.00    -0.296 OA
HETATM    5  H   UNK N   1      27.145  18.582   8.603  0.00  0.00     0.232 HD
ENDBRANCH   1   4
BRANCH   1   6
HETATM    6  C   UNK N   1      30.752  18.059   8.806  0.00  0.00     0.165 C 
BRANCH   6   7
HETATM    7  C   UNK N   1      31.200  17.232   7.609  0.00  0.00     0.087 C 
BRANCH   7   8
HETATM    8  S   UNK N   1      32.959  17.526   7.285  0.00  0.00    -0.181 SA
HETATM    9  H   UNK N   1      33.666  16.913   6.298  0.00  0.00     0.101 HD
ENDBRANCH   7   8
ENDBRANCH   6   7
ENDBRANCH   1   6
TORSDOF 4
ENDMDL
