MODEL 1
REMARK VINA RESULT:      -5.5      0.000      0.000
REMARK  0 active torsions:
REMARK  status: ('A' for Active; 'I' for Inactive)
ROOT
HETATM    1  C   UNK N   1      31.417  17.805   8.504  0.00  0.00     0.007 A 
HETATM    2  C   UNK N   1      30.815  17.093   7.474  0.00  0.00     0.026 A 
HETATM    3  C   UNK N   1      32.749  18.189   8.391  0.00  0.00     0.074 A 
HETATM    4  C   UNK N   1      31.876  15.020   4.629  0.00  0.00     0.020 C 
HETATM    5  C   UNK N   1      32.445  16.756   2.941  0.00  0.00     0.120 C 
HETATM    6  C   UNK N   1      30.379  16.951   4.123  0.00  0.00     0.124 C 
HETATM    7  C   UNK N   1      33.728  16.677   5.103  0.00  0.00     0.138 C 
HETATM    8  C   UNK N   1      33.014  15.842   4.027  0.00  0.00     0.022 C 
HETATM    9  C   UNK N   1      30.875  15.996   5.225  0.00  0.00     0.054 C 
HETATM   10  C   UNK N   1      31.553  16.758   6.332  0.00  0.00     0.020 A 
HETATM   11  C   UNK N   1      33.479  17.834   7.256  0.00  0.00     0.247 A 
HETATM   12  N   UNK N   1      31.482  17.698   3.510  0.00  0.00    -0.420 N 
HETATM   13  N   UNK N   1      32.882  17.109   6.239  0.00  0.00    -0.317 N 
HETATM   14  O   UNK N   1      34.649  18.164   7.178  0.00  0.00    -0.268 OA
HETATM   15  H   UNK N   1      31.565  18.713   3.486  0.00  0.00     0.153 HD
ENDROOT
TORSDOF 0
ENDMDL
MODEL 2
REMARK VINA RESULT:      -5.4     11.339     12.691
REMARK  0 active torsions:
REMARK  status: ('A' for Active; 'I' for Inactive)
ROOT
HETATM    1  C   UNK N   1      35.202  13.450  18.792  0.00  0.00     0.007 A 
HETATM    2  C   UNK N   1      35.004  13.508  17.418  0.00  0.00     0.026 A 
HETATM    3  C   UNK N   1      35.384  12.218  19.411  0.00  0.00     0.074 A 
HETATM    4  C   UNK N   1      33.929  11.238  14.733  0.00  0.00     0.020 C 
HETATM    5  C   UNK N   1      36.036  10.003  14.261  0.00  0.00     0.120 C 
HETATM    6  C   UNK N   1      36.126  12.383  14.432  0.00  0.00     0.124 C 
HETATM    7  C   UNK N   1      34.996   9.832  16.545  0.00  0.00     0.138 C 
HETATM    8  C   UNK N   1      34.720   9.967  15.038  0.00  0.00     0.022 C 
HETATM    9  C   UNK N   1      34.778  12.420  15.176  0.00  0.00     0.054 C 
HETATM   10  C   UNK N   1      34.981  12.329  16.664  0.00  0.00     0.020 A 
HETATM   11  C   UNK N   1      35.342  11.047  18.652  0.00  0.00     0.247 A 
HETATM   12  N   UNK N   1      36.856  11.137  14.684  0.00  0.00    -0.420 N 
HETATM   13  N   UNK N   1      35.128  11.107  17.285  0.00  0.00    -0.317 N 
HETATM   14  O   UNK N   1      35.489   9.974  19.210  0.00  0.00    -0.268 OA
HETATM   15  H   UNK N   1      37.788  11.072  15.092  0.00  0.00     0.153 HD
ENDROOT
TORSDOF 0
ENDMDL
MODEL 3
REMARK VINA RESULT:      -5.3     10.275     11.568
REMARK  0 active torsions:
REMARK  status: ('A' for Active; 'I' for Inactive)
ROOT
HETATM    1  C   UNK N   1      21.471  15.480   7.190  0.00  0.00     0.007 A 
HETATM    2  C   UNK N   1      22.579  14.641   7.206  0.00  0.00     0.026 A 
HETATM    3  C   UNK N   1      20.463  15.308   8.131  0.00  0.00     0.074 A 
HETATM    4  C   UNK N   1      23.451  11.325   8.535  0.00  0.00     0.020 C 
HETATM    5  C   UNK N   1      23.972  11.867  10.905  0.00  0.00     0.120 C 
HETATM    6  C   UNK N   1      24.925  13.229   9.191  0.00  0.00     0.124 C 
HETATM    7  C   UNK N   1      21.655  12.301  10.025  0.00  0.00     0.138 C 
HETATM    8  C   UNK N   1      22.882  11.376   9.951  0.00  0.00     0.022 C 
HETATM    9  C   UNK N   1      23.886  12.735   8.167  0.00  0.00     0.054 C 
HETATM   10  C   UNK N   1      22.671  13.623   8.163  0.00  0.00     0.020 A 
HETATM   11  C   UNK N   1      20.557  14.279   9.069  0.00  0.00     0.247 A 
HETATM   12  N   UNK N   1      24.392  13.223  10.556  0.00  0.00    -0.420 N 
HETATM   13  N   UNK N   1      21.653  13.434   9.072  0.00  0.00    -0.317 N 
HETATM   14  O   UNK N   1      19.658  14.132   9.878  0.00  0.00    -0.268 OA
HETATM   15  H   UNK N   1      24.324  14.038  11.166  0.00  0.00     0.153 HD
ENDROOT
TORSDOF 0
ENDMDL
MODEL 4
REMARK VINA RESULT:      -5.3     15.402     16.597
REMARK  0 active torsions:
REMARK  status: ('A' for Active; 'I' for Inactive)
ROOT
HETATM    1  C   UNK N   1      27.522  30.007  -4.973  0.00  0.00     0.007 A 
HETATM    2  C   UNK N   1      27.695  29.208  -6.097  0.00  0.00     0.026 A 
HETATM    3  C   UNK N   1      26.725  29.560  -3.926  0.00  0.00     0.074 A 
HETATM    4  C   UNK N   1      25.973  26.388  -7.711  0.00  0.00     0.020 C 
HETATM    5  C   UNK N   1      26.799  24.470  -6.363  0.00  0.00     0.120 C 
HETATM    6  C   UNK N   1      28.384  26.070  -7.155  0.00  0.00     0.124 C 
HETATM    7  C   UNK N   1      25.465  26.281  -5.235  0.00  0.00     0.138 C 
HETATM    8  C   UNK N   1      25.658  25.473  -6.530  0.00  0.00     0.022 C 
HETATM    9  C   UNK N   1      27.274  27.110  -7.395  0.00  0.00     0.054 C 
HETATM   10  C   UNK N   1      27.061  27.962  -6.173  0.00  0.00     0.020 A 
HETATM   11  C   UNK N   1      26.084  28.323  -4.019  0.00  0.00     0.247 A 
HETATM   12  N   UNK N   1      28.052  25.159  -6.057  0.00  0.00    -0.420 N 
HETATM   13  N   UNK N   1      26.244  27.537  -5.147  0.00  0.00    -0.317 N 
HETATM   14  O   UNK N   1      25.377  27.952  -3.099  0.00  0.00    -0.268 OA
HETATM   15  H   UNK N   1      28.607  25.027  -5.211  0.00  0.00     0.153 HD
ENDROOT
TORSDOF 0
ENDMDL
MODEL 5
REMARK VINA RESULT:      -5.2     15.245     17.124
REMARK  0 active torsions:
REMARK  status: ('A' for Active; 'I' for Inactive)
ROOT
HETATM    1  C   UNK N   1      27.929  26.961  -8.802  0.00  0.00     0.007 A 
HETATM    2  C   UNK N   1      26.925  26.362  -8.051  0.00  0.00     0.026 A 
HETATM    3  C   UNK N   1      28.556  28.107  -8.327  0.00  0.00     0.074 A 
HETATM    4  C   UNK N   1      24.625  27.318  -5.345  0.00  0.00     0.020 C 
HETATM    5  C   UNK N   1      26.093  27.094  -3.351  0.00  0.00     0.120 C 
HETATM    6  C   UNK N   1      26.068  25.321  -4.949  0.00  0.00     0.124 C 
HETATM    7  C   UNK N   1      26.694  28.759  -5.138  0.00  0.00     0.138 C 
HETATM    8  C   UNK N   1      25.540  28.075  -4.385  0.00  0.00     0.022 C 
HETATM    9  C   UNK N   1      25.463  26.244  -6.023  0.00  0.00     0.054 C 
HETATM   10  C   UNK N   1      26.544  26.919  -6.824  0.00  0.00     0.020 A 
HETATM   11  C   UNK N   1      28.156  28.663  -7.110  0.00  0.00     0.247 A 
HETATM   12  N   UNK N   1      26.900  26.060  -3.998  0.00  0.00    -0.420 N 
HETATM   13  N   UNK N   1      27.144  28.074  -6.372  0.00  0.00    -0.317 N 
HETATM   14  O   UNK N   1      28.704  29.676  -6.713  0.00  0.00    -0.268 OA
HETATM   15  H   UNK N   1      27.888  25.883  -3.815  0.00  0.00     0.153 HD
ENDROOT
TORSDOF 0
ENDMDL
MODEL 6
REMARK VINA RESULT:      -5.1      1.875      3.817
REMARK  0 active torsions:
REMARK  status: ('A' for Active; 'I' for Inactive)
ROOT
HETATM    1  C   UNK N   1      29.241  17.196   5.746  0.00  0.00     0.007 A 
HETATM    2  C   UNK N   1      29.920  17.199   6.959  0.00  0.00     0.026 A 
HETATM    3  C   UNK N   1      29.957  17.221   4.555  0.00  0.00     0.074 A 
HETATM    4  C   UNK N   1      33.258  18.117   8.197  0.00  0.00     0.020 C 
HETATM    5  C   UNK N   1      34.578  16.098   7.595  0.00  0.00     0.120 C 
HETATM    6  C   UNK N   1      32.472  15.798   8.680  0.00  0.00     0.124 C 
HETATM    7  C   UNK N   1      33.497  17.449   5.769  0.00  0.00     0.138 C 
HETATM    8  C   UNK N   1      34.181  17.504   7.146  0.00  0.00     0.022 C 
HETATM    9  C   UNK N   1      32.031  17.225   8.303  0.00  0.00     0.054 C 
HETATM   10  C   UNK N   1      31.319  17.235   6.976  0.00  0.00     0.020 A 
HETATM   11  C   UNK N   1      31.352  17.275   4.585  0.00  0.00     0.247 A 
HETATM   12  N   UNK N   1      33.401  15.236   7.696  0.00  0.00    -0.420 N 
HETATM   13  N   UNK N   1      32.025  17.295   5.794  0.00  0.00    -0.317 N 
HETATM   14  O   UNK N   1      31.966  17.312   3.533  0.00  0.00    -0.268 OA
HETATM   15  H   UNK N   1      33.251  14.378   7.165  0.00  0.00     0.153 HD
ENDROOT
TORSDOF 0
ENDMDL
MODEL 7
REMARK VINA RESULT:      -5.1     10.037     11.076
REMARK  0 active torsions:
REMARK  status: ('A' for Active; 'I' for Inactive)
ROOT
HETATM    1  C   UNK N   1      23.293  11.827  11.607  0.00  0.00     0.007 A 
HETATM    2  C   UNK N   1      22.106  12.069  10.926  0.00  0.00     0.026 A 
HETATM    3  C   UNK N   1      24.490  12.325  11.105  0.00  0.00     0.074 A 
HETATM    4  C   UNK N   1      21.074  13.008   7.524  0.00  0.00     0.020 C 
HETATM    5  C   UNK N   1      21.416  15.470   7.568  0.00  0.00     0.120 C 
HETATM    6  C   UNK N   1      20.258  14.449   9.390  0.00  0.00     0.124 C 
HETATM    7  C   UNK N   1      23.390  13.949   7.910  0.00  0.00     0.138 C 
HETATM    8  C   UNK N   1      22.048  14.133   7.181  0.00  0.00     0.022 C 
HETATM    9  C   UNK N   1      20.821  13.064   9.022  0.00  0.00     0.054 C 
HETATM   10  C   UNK N   1      22.121  12.805   9.735  0.00  0.00     0.020 A 
HETATM   11  C   UNK N   1      24.495  13.043   9.908  0.00  0.00     0.247 A 
HETATM   12  N   UNK N   1      21.172  15.529   9.009  0.00  0.00    -0.420 N 
HETATM   13  N   UNK N   1      23.314  13.267   9.222  0.00  0.00    -0.317 N 
HETATM   14  O   UNK N   1      25.554  13.460   9.472  0.00  0.00    -0.268 OA
HETATM   15  H   UNK N   1      21.575  16.214   9.648  0.00  0.00     0.153 HD
ENDROOT
TORSDOF 0
ENDMDL
MODEL 8
REMARK VINA RESULT:      -5.0      6.101      7.771
REMARK  0 active torsions:
REMARK  status: ('A' for Active; 'I' for Inactive)
ROOT
HETATM    1  C   UNK N   1      23.575  19.768   3.403  0.00  0.00     0.007 A 
HETATM    2  C   UNK N   1      24.785  20.411   3.634  0.00  0.00     0.026 A 
HETATM    3  C   UNK N   1      23.352  18.505   3.939  0.00  0.00     0.074 A 
HETATM    4  C   UNK N   1      28.202  19.486   4.631  0.00  0.00     0.020 C 
HETATM    5  C   UNK N   1      27.960  19.301   7.099  0.00  0.00     0.120 C 
HETATM    6  C   UNK N   1      27.054  21.221   6.008  0.00  0.00     0.124 C 
HETATM    7  C   UNK N   1      26.624  17.770   5.615  0.00  0.00     0.138 C 
HETATM    8  C   UNK N   1      27.958  18.517   5.786  0.00  0.00     0.022 C 
HETATM    9  C   UNK N   1      27.073  20.505   4.645  0.00  0.00     0.054 C 
HETATM   10  C   UNK N   1      25.776  19.783   4.398  0.00  0.00     0.020 A 
HETATM   11  C   UNK N   1      24.353  17.881   4.685  0.00  0.00     0.247 A 
HETATM   12  N   UNK N   1      26.876  20.281   7.117  0.00  0.00    -0.420 N 
HETATM   13  N   UNK N   1      25.564  18.517   4.900  0.00  0.00    -0.317 N 
HETATM   14  O   UNK N   1      24.149  16.768   5.137  0.00  0.00    -0.268 OA
HETATM   15  H   UNK N   1      26.114  20.306   7.795  0.00  0.00     0.153 HD
ENDROOT
TORSDOF 0
ENDMDL
MODEL 9
REMARK VINA RESULT:      -5.0      2.586      3.982
REMARK  0 active torsions:
REMARK  status: ('A' for Active; 'I' for Inactive)
ROOT
HETATM    1  C   UNK N   1      29.046  18.576   9.163  0.00  0.00     0.007 A 
HETATM    2  C   UNK N   1      30.426  18.409   9.178  0.00  0.00     0.026 A 
HETATM    3  C   UNK N   1      28.296  18.019   8.134  0.00  0.00     0.074 A 
HETATM    4  C   UNK N   1      33.083  17.574   6.779  0.00  0.00     0.020 C 
HETATM    5  C   UNK N   1      32.901  15.096   6.687  0.00  0.00     0.120 C 
HETATM    6  C   UNK N   1      32.923  16.156   8.826  0.00  0.00     0.124 C 
HETATM    7  C   UNK N   1      30.945  16.500   5.959  0.00  0.00     0.138 C 
HETATM    8  C   UNK N   1      32.479  16.400   6.011  0.00  0.00     0.022 C 
HETATM    9  C   UNK N   1      32.548  17.513   8.201  0.00  0.00     0.054 C 
HETATM   10  C   UNK N   1      31.054  17.689   8.155  0.00  0.00     0.020 A 
HETATM   11  C   UNK N   1      28.935  17.318   7.110  0.00  0.00     0.247 A 
HETATM   12  N   UNK N   1      32.387  15.032   8.054  0.00  0.00    -0.420 N 
HETATM   13  N   UNK N   1      30.311  17.168   7.118  0.00  0.00    -0.317 N 
HETATM   14  O   UNK N   1      28.265  16.848   6.206  0.00  0.00    -0.268 OA
HETATM   15  H   UNK N   1      31.754  14.317   8.413  0.00  0.00     0.153 HD
ENDROOT
TORSDOF 0
ENDMDL
