REMARK  4 active torsions:
REMARK  status: ('A' for Active; 'I' for Inactive)
REMARK    1  A    between atoms: C_14  and  C_12 
REMARK    2  A    between atoms: N_21  and  C_12 
REMARK    3  A    between atoms: C_14  and  C_13 
REMARK    4  A    between atoms: N_22  and  C_13 
ROOT
HETATM    1  C   UNK N   1      -1.693   4.425  -0.076  0.00  0.00     0.002 A 
HETATM    2  C   UNK N   1      -2.891   5.124  -0.095  0.00  0.00     0.002 A 
HETATM    3  C   UNK N   1      -1.704   3.045   0.086  0.00  0.00     0.031 A 
HETATM    4  C   UNK N   1      -4.090   4.444   0.091  0.00  0.00     0.021 A 
HETATM    5  C   UNK N   1      -6.328  -1.560  -0.119  0.00  0.00     0.024 A 
HETATM    6  C   UNK N   1      -6.490  -0.186   0.065  0.00  0.00     0.023 A 
HETATM    7  C   UNK N   1      -3.941  -1.265  -0.055  0.00  0.00     0.053 A 
HETATM    8  C   UNK N   1      -4.794  -3.493  -0.206  0.00  0.00     0.099 C 
HETATM    9  C   UNK N   1      -5.040  -2.091  -0.166  0.00  0.00     0.046 A 
HETATM   10  C   UNK N   1      -2.902   2.323   0.229  0.00  0.00     0.052 A 
HETATM   11  C   UNK N   1      -4.069   0.110   0.135  0.00  0.00     0.053 A 
HETATM   12  C   UNK N   1      -4.111   3.058   0.255  0.00  0.00     0.032 A 
HETATM   13  C   UNK N   1      -5.374   0.652   0.204  0.00  0.00     0.032 A 
HETATM   14  N   UNK N   1      -4.529  -4.617  -0.236  0.00  0.00    -0.191 NA
HETATM   15  N   UNK N   1      -2.873   0.885   0.292  0.00  0.00    -0.344 N 
HETATM   16  S   UNK N   1      -5.708   2.349   0.589  0.00  0.00    -0.086 SA
ENDROOT
BRANCH  15  17
HETATM   17  C   UNK N   1      -1.620   0.133   0.508  0.00  0.00     0.135 C 
BRANCH  17  18
HETATM   18  C   UNK N   1      -0.334   0.678  -0.118  0.00  0.00     0.028 C 
HETATM   19  C   UNK N   1      -0.418   0.818  -1.626  0.00  0.00     0.013 C 
BRANCH  18  20
HETATM   20  C   UNK N   1       0.885  -0.139   0.318  0.00  0.00     0.277 C 
BRANCH  20  21
HETATM   21  N   UNK N   1       2.134   0.416  -0.207  0.00  0.00     0.080 N 
HETATM   22  C   UNK N   1       3.223  -0.323   0.407  0.00  0.00     0.309 C 
HETATM   23  C   UNK N   1       2.283   1.799   0.225  0.00  0.00     0.309 C 
ENDBRANCH  20  21
ENDBRANCH  18  20
ENDBRANCH  17  18
ENDBRANCH  15  17
TORSDOF 4
