MODEL 1
REMARK VINA RESULT:      -5.7      0.000      0.000
REMARK  19 active torsions:
REMARK  status: ('A' for Active; 'I' for Inactive)
REMARK    1  A    between atoms: C_2  and  C_1 
REMARK    2  A    between atoms: C_3  and  C_1 
REMARK    3  A    between atoms: C_4  and  C_2 
REMARK    4  A    between atoms: C_10  and  C_3 
REMARK    5  A    between atoms: C_11  and  C_4 
REMARK    6  A    between atoms: N_27  and  C_10 
REMARK    7  A    between atoms: O_31  and  C_11 
REMARK    8  A    between atoms: C_13  and  C_12 
REMARK    9  A    between atoms: O_31  and  C_12 
REMARK   10  A    between atoms: O_32  and  C_13 
REMARK   11  A    between atoms: C_24  and  C_15 
REMARK   12  A    between atoms: N_27  and  C_15 
REMARK   13  A    between atoms: C_19  and  C_16 
REMARK   14  A    between atoms: O_28  and  C_16 
REMARK   15  A    between atoms: C_20  and  C_17 
REMARK   16  A    between atoms: O_32  and  C_17 
REMARK   17  A    between atoms: C_24  and  C_18 
REMARK   18  A    between atoms: O_29  and  C_23 
REMARK   19  A    between atoms: C_24  and  O_30 
ROOT
HETATM    1  C   UNK N   1      20.639  12.628   4.740  0.00  0.00     0.019 C 
ENDROOT
BRANCH   1   2
HETATM    2  C   UNK N   1      20.049  13.802   5.496  0.00  0.00     0.002 C 
BRANCH   2   3
HETATM    3  C   UNK N   1      19.027  14.512   4.630  0.00  0.00     0.002 C 
BRANCH   3   4
HETATM    4  C   UNK N   1      18.625  15.812   5.292  0.00  0.00     0.026 C 
BRANCH   4   5
HETATM    5  C   UNK N   1      19.465  16.021   6.537  0.00  0.00     0.167 C 
BRANCH   5   6
HETATM    6  O   UNK N   1      18.637  16.286   7.629  0.00  0.00    -0.389 OA
BRANCH   6   7
HETATM    7  C   UNK N   1      19.522  16.598   8.661  0.00  0.00     0.193 C 
BRANCH   7   8
HETATM    8  C   UNK N   1      20.705  15.645   8.642  0.00  0.00     0.194 C 
BRANCH   8   9
HETATM    9  O   UNK N   1      20.536  14.649   9.608  0.00  0.00    -0.384 OA
BRANCH   9  10
HETATM   10  C   UNK N   1      21.062  13.498   9.015  0.00  0.00     0.209 C 
BRANCH  10  11
HETATM   11  C   UNK N   1      22.249  12.989   9.777  0.00  0.00     0.009 A 
HETATM   12  C   UNK N   1      22.054  12.357  11.020  0.00  0.00     0.044 A 
HETATM   13  C   UNK N   1      23.152  11.892  11.748  0.00  0.00     0.024 A 
HETATM   14 Cl   UNK N   1      20.444  12.138  11.692  0.00  0.00    -0.084 Cl
HETATM   15  C   UNK N   1      24.446  12.051  11.252  0.00  0.00     0.003 A 
HETATM   16  C   UNK N   1      24.649  12.678  10.023  0.00  0.00     0.024 A 
HETATM   17  C   UNK N   1      23.563  13.149   9.281  0.00  0.00     0.044 A 
HETATM   18 Cl   UNK N   1      23.895  13.941   7.749  0.00  0.00    -0.084 Cl
ENDBRANCH  10  11
ENDBRANCH   9  10
ENDBRANCH   8   9
ENDBRANCH   7   8
ENDBRANCH   6   7
ENDBRANCH   5   6
ENDBRANCH   4   5
ENDBRANCH   3   4
ENDBRANCH   2   3
ENDBRANCH   1   2
BRANCH   1  19
HETATM   19  C   UNK N   1      20.076  12.590   3.326  0.00  0.00     0.113 C 
BRANCH  19  20
HETATM   20  N   UNK N   1      21.148  12.481   2.346  0.00  0.00    -0.418 N 
HETATM   21  H   UNK N   1      21.118  11.958   1.471  0.00  0.00     0.153 HD
BRANCH  20  22
HETATM   22  C   UNK N   1      22.273  13.258   2.852  0.00  0.00     0.150 C 
BRANCH  22  23
HETATM   23  C   UNK N   1      22.665  14.428   1.944  0.00  0.00     0.168 C 
BRANCH  23  24
HETATM   24  C   UNK N   1      21.695  15.578   2.043  0.00  0.00    -0.027 A 
HETATM   25  C   UNK N   1      20.683  15.781   1.089  0.00  0.00     0.012 A 
HETATM   26  C   UNK N   1      19.815  16.869   1.201  0.00  0.00     0.038 A 
HETATM   27  C   UNK N   1      19.957  17.776   2.254  0.00  0.00     0.074 A 
HETATM   28  C   UNK N   1      20.968  17.588   3.212  0.00  0.00    -0.001 A 
HETATM   29  C   UNK N   1      21.825  16.484   3.101  0.00  0.00     0.022 A 
BRANCH  27  30
HETATM   30  O   UNK N   1      19.124  18.828   2.339  0.00  0.00    -0.360 OA
HETATM   31  H   UNK N   1      18.331  18.847   1.839  0.00  0.00     0.217 HD
ENDBRANCH  27  30
BRANCH  28  32
HETATM   32  C   UNK N   1      21.136  18.574   4.332  0.00  0.00     0.205 C 
BRANCH  32  33
HETATM   33  O   UNK N   1      21.418  19.856   3.854  0.00  0.00    -0.396 OA
HETATM   34  H   UNK N   1      21.993  20.452   4.360  0.00  0.00     0.209 HD
ENDBRANCH  32  33
ENDBRANCH  28  32
ENDBRANCH  23  24
BRANCH  23  35
HETATM   35  O   UNK N   1      23.961  14.883   2.213  0.00  0.00    -0.389 OA
HETATM   36  H   UNK N   1      24.909  14.706   2.107  0.00  0.00     0.210 HD
ENDBRANCH  23  35
ENDBRANCH  22  23
ENDBRANCH  20  22
ENDBRANCH  19  20
ENDBRANCH   1  19
TORSDOF 19
ENDMDL
MODEL 2
REMARK VINA RESULT:      -5.5      4.270      7.870
REMARK  19 active torsions:
REMARK  status: ('A' for Active; 'I' for Inactive)
REMARK    1  A    between atoms: C_2  and  C_1 
REMARK    2  A    between atoms: C_3  and  C_1 
REMARK    3  A    between atoms: C_4  and  C_2 
REMARK    4  A    between atoms: C_10  and  C_3 
REMARK    5  A    between atoms: C_11  and  C_4 
REMARK    6  A    between atoms: N_27  and  C_10 
REMARK    7  A    between atoms: O_31  and  C_11 
REMARK    8  A    between atoms: C_13  and  C_12 
REMARK    9  A    between atoms: O_31  and  C_12 
REMARK   10  A    between atoms: O_32  and  C_13 
REMARK   11  A    between atoms: C_24  and  C_15 
REMARK   12  A    between atoms: N_27  and  C_15 
REMARK   13  A    between atoms: C_19  and  C_16 
REMARK   14  A    between atoms: O_28  and  C_16 
REMARK   15  A    between atoms: C_20  and  C_17 
REMARK   16  A    between atoms: O_32  and  C_17 
REMARK   17  A    between atoms: C_24  and  C_18 
REMARK   18  A    between atoms: O_29  and  C_23 
REMARK   19  A    between atoms: C_24  and  O_30 
ROOT
HETATM    1  C   UNK N   1      20.836  13.716   8.562  0.00  0.00     0.019 C 
ENDROOT
BRANCH   1   2
HETATM    2  C   UNK N   1      21.230  15.180   8.533  0.00  0.00     0.002 C 
BRANCH   2   3
HETATM    3  C   UNK N   1      21.764  15.545   7.163  0.00  0.00     0.002 C 
BRANCH   3   4
HETATM    4  C   UNK N   1      21.623  14.356   6.237  0.00  0.00     0.026 C 
BRANCH   4   5
HETATM    5  C   UNK N   1      21.873  14.801   4.809  0.00  0.00     0.167 C 
BRANCH   5   6
HETATM    6  O   UNK N   1      23.009  15.611   4.756  0.00  0.00    -0.389 OA
BRANCH   6   7
HETATM    7  C   UNK N   1      23.422  15.532   3.426  0.00  0.00     0.193 C 
BRANCH   7   8
HETATM    8  C   UNK N   1      24.840  16.057   3.287  0.00  0.00     0.194 C 
BRANCH   8   9
HETATM    9  O   UNK N   1      25.090  17.032   4.258  0.00  0.00    -0.384 OA
BRANCH   9  10
HETATM   10  C   UNK N   1      26.215  17.714   3.783  0.00  0.00     0.209 C 
BRANCH  10  11
HETATM   11  C   UNK N   1      26.630  18.800   4.730  0.00  0.00     0.009 A 
HETATM   12  C   UNK N   1      26.058  20.081   4.607  0.00  0.00     0.044 A 
HETATM   13  C   UNK N   1      26.446  21.107   5.473  0.00  0.00     0.024 A 
HETATM   14 Cl   UNK N   1      24.855  20.431   3.373  0.00  0.00    -0.084 Cl
HETATM   15  C   UNK N   1      27.402  20.871   6.461  0.00  0.00     0.003 A 
HETATM   16  C   UNK N   1      27.975  19.606   6.589  0.00  0.00     0.024 A 
HETATM   17  C   UNK N   1      27.599  18.569   5.733  0.00  0.00     0.044 A 
HETATM   18 Cl   UNK N   1      28.373  17.006   5.943  0.00  0.00    -0.084 Cl
ENDBRANCH  10  11
ENDBRANCH   9  10
ENDBRANCH   8   9
ENDBRANCH   7   8
ENDBRANCH   6   7
ENDBRANCH   5   6
ENDBRANCH   4   5
ENDBRANCH   3   4
ENDBRANCH   2   3
ENDBRANCH   1   2
BRANCH   1  19
HETATM   19  C   UNK N   1      20.949  13.180   9.983  0.00  0.00     0.113 C 
BRANCH  19  20
HETATM   20  N   UNK N   1      22.242  13.516  10.561  0.00  0.00    -0.418 N 
HETATM   21  H   UNK N   1      22.680  14.437  10.572  0.00  0.00     0.153 HD
BRANCH  20  22
HETATM   22  C   UNK N   1      22.795  12.289  11.121  0.00  0.00     0.150 C 
BRANCH  22  23
HETATM   23  C   UNK N   1      24.197  11.957  10.602  0.00  0.00     0.168 C 
BRANCH  23  24
HETATM   24  C   UNK N   1      24.308  12.128   9.108  0.00  0.00    -0.027 A 
HETATM   25  C   UNK N   1      23.779  11.185   8.210  0.00  0.00     0.012 A 
HETATM   26  C   UNK N   1      23.920  11.365   6.832  0.00  0.00     0.038 A 
HETATM   27  C   UNK N   1      24.604  12.478   6.336  0.00  0.00     0.074 A 
HETATM   28  C   UNK N   1      25.143  13.426   7.223  0.00  0.00    -0.001 A 
HETATM   29  C   UNK N   1      24.983  13.244   8.604  0.00  0.00     0.022 A 
BRANCH  27  30
HETATM   30  O   UNK N   1      24.747  12.629   5.007  0.00  0.00    -0.360 OA
HETATM   31  H   UNK N   1      25.573  12.883   4.645  0.00  0.00     0.217 HD
ENDBRANCH  27  30
BRANCH  28  32
HETATM   32  C   UNK N   1      25.899  14.609   6.692  0.00  0.00     0.205 C 
BRANCH  32  33
HETATM   33  O   UNK N   1      25.150  15.784   6.784  0.00  0.00    -0.396 OA
HETATM   34  H   UNK N   1      25.588  16.650   6.745  0.00  0.00     0.209 HD
ENDBRANCH  32  33
ENDBRANCH  28  32
ENDBRANCH  23  24
BRANCH  23  35
HETATM   35  O   UNK N   1      25.182  12.721  11.237  0.00  0.00    -0.389 OA
HETATM   36  H   UNK N   1      25.704  12.840  12.046  0.00  0.00     0.210 HD
ENDBRANCH  23  35
ENDBRANCH  22  23
ENDBRANCH  20  22
ENDBRANCH  19  20
ENDBRANCH   1  19
TORSDOF 19
ENDMDL
MODEL 3
REMARK VINA RESULT:      -5.4     15.842     17.973
REMARK  19 active torsions:
REMARK  status: ('A' for Active; 'I' for Inactive)
REMARK    1  A    between atoms: C_2  and  C_1 
REMARK    2  A    between atoms: C_3  and  C_1 
REMARK    3  A    between atoms: C_4  and  C_2 
REMARK    4  A    between atoms: C_10  and  C_3 
REMARK    5  A    between atoms: C_11  and  C_4 
REMARK    6  A    between atoms: N_27  and  C_10 
REMARK    7  A    between atoms: O_31  and  C_11 
REMARK    8  A    between atoms: C_13  and  C_12 
REMARK    9  A    between atoms: O_31  and  C_12 
REMARK   10  A    between atoms: O_32  and  C_13 
REMARK   11  A    between atoms: C_24  and  C_15 
REMARK   12  A    between atoms: N_27  and  C_15 
REMARK   13  A    between atoms: C_19  and  C_16 
REMARK   14  A    between atoms: O_28  and  C_16 
REMARK   15  A    between atoms: C_20  and  C_17 
REMARK   16  A    between atoms: O_32  and  C_17 
REMARK   17  A    between atoms: C_24  and  C_18 
REMARK   18  A    between atoms: O_29  and  C_23 
REMARK   19  A    between atoms: C_24  and  O_30 
ROOT
HETATM    1  C   UNK N   1      29.522  26.197  -4.519  0.00  0.00     0.019 C 
ENDROOT
BRANCH   1   2
HETATM    2  C   UNK N   1      28.270  25.524  -3.990  0.00  0.00     0.002 C 
BRANCH   2   3
HETATM    3  C   UNK N   1      28.252  24.067  -4.405  0.00  0.00     0.002 C 
BRANCH   3   4
HETATM    4  C   UNK N   1      27.101  23.831  -5.357  0.00  0.00     0.026 C 
BRANCH   4   5
HETATM    5  C   UNK N   1      27.552  22.905  -6.470  0.00  0.00     0.167 C 
BRANCH   5   6
HETATM    6  O   UNK N   1      28.080  23.653  -7.524  0.00  0.00    -0.389 OA
BRANCH   6   7
HETATM    7  C   UNK N   1      28.505  22.693  -8.443  0.00  0.00     0.193 C 
BRANCH   7   8
HETATM    8  C   UNK N   1      30.003  22.808  -8.663  0.00  0.00     0.194 C 
BRANCH   8   9
HETATM    9  O   UNK N   1      30.589  23.536  -7.624  0.00  0.00    -0.384 OA
BRANCH   9  10
HETATM   10  C   UNK N   1      31.583  22.690  -7.124  0.00  0.00     0.209 C 
BRANCH  10  11
HETATM   11  C   UNK N   1      31.362  22.393  -5.671  0.00  0.00     0.009 A 
HETATM   12  C   UNK N   1      30.665  21.226  -5.302  0.00  0.00     0.044 A 
HETATM   13  C   UNK N   1      30.438  20.943  -3.953  0.00  0.00     0.024 A 
HETATM   14 Cl   UNK N   1      30.061  20.100  -6.511  0.00  0.00    -0.084 Cl
HETATM   15  C   UNK N   1      30.896  21.814  -2.964  0.00  0.00     0.003 A 
HETATM   16  C   UNK N   1      31.584  22.973  -3.320  0.00  0.00     0.024 A 
HETATM   17  C   UNK N   1      31.821  23.271  -4.664  0.00  0.00     0.044 A 
HETATM   18 Cl   UNK N   1      32.682  24.755  -5.039  0.00  0.00    -0.084 Cl
ENDBRANCH  10  11
ENDBRANCH   9  10
ENDBRANCH   8   9
ENDBRANCH   7   8
ENDBRANCH   6   7
ENDBRANCH   5   6
ENDBRANCH   4   5
ENDBRANCH   3   4
ENDBRANCH   2   3
ENDBRANCH   1   2
BRANCH   1  19
HETATM   19  C   UNK N   1      29.804  27.462  -3.720  0.00  0.00     0.113 C 
BRANCH  19  20
HETATM   20  N   UNK N   1      28.576  27.995  -3.147  0.00  0.00    -0.418 N 
HETATM   21  H   UNK N   1      28.002  27.555  -2.428  0.00  0.00     0.153 HD
BRANCH  20  22
HETATM   22  C   UNK N   1      28.320  29.276  -3.794  0.00  0.00     0.150 C 
BRANCH  22  23
HETATM   23  C   UNK N   1      26.893  29.416  -4.332  0.00  0.00     0.168 C 
BRANCH  23  24
HETATM   24  C   UNK N   1      26.590  28.413  -5.416  0.00  0.00    -0.027 A 
HETATM   25  C   UNK N   1      25.485  27.548  -5.341  0.00  0.00     0.012 A 
HETATM   26  C   UNK N   1      25.249  26.616  -6.354  0.00  0.00     0.038 A 
HETATM   27  C   UNK N   1      26.120  26.525  -7.443  0.00  0.00     0.074 A 
HETATM   28  C   UNK N   1      27.232  27.380  -7.527  0.00  0.00    -0.001 A 
HETATM   29  C   UNK N   1      27.453  28.323  -6.514  0.00  0.00     0.022 A 
BRANCH  27  30
HETATM   30  O   UNK N   1      25.888  25.611  -8.402  0.00  0.00    -0.360 OA
HETATM   31  H   UNK N   1      26.111  25.793  -9.294  0.00  0.00     0.217 HD
ENDBRANCH  27  30
BRANCH  28  32
HETATM   32  C   UNK N   1      28.181  27.268  -8.684  0.00  0.00     0.205 C 
BRANCH  32  33
HETATM   33  O   UNK N   1      28.955  26.108  -8.607  0.00  0.00    -0.396 OA
HETATM   34  H   UNK N   1      29.907  26.140  -8.797  0.00  0.00     0.209 HD
ENDBRANCH  32  33
ENDBRANCH  28  32
ENDBRANCH  23  24
BRANCH  23  35
HETATM   35  O   UNK N   1      25.940  29.308  -3.313  0.00  0.00    -0.389 OA
HETATM   36  H   UNK N   1      25.466  29.778  -2.608  0.00  0.00     0.210 HD
ENDBRANCH  23  35
ENDBRANCH  22  23
ENDBRANCH  20  22
ENDBRANCH  19  20
ENDBRANCH   1  19
TORSDOF 19
ENDMDL
MODEL 4
REMARK VINA RESULT:      -5.4     15.775     18.080
REMARK  19 active torsions:
REMARK  status: ('A' for Active; 'I' for Inactive)
REMARK    1  A    between atoms: C_2  and  C_1 
REMARK    2  A    between atoms: C_3  and  C_1 
REMARK    3  A    between atoms: C_4  and  C_2 
REMARK    4  A    between atoms: C_10  and  C_3 
REMARK    5  A    between atoms: C_11  and  C_4 
REMARK    6  A    between atoms: N_27  and  C_10 
REMARK    7  A    between atoms: O_31  and  C_11 
REMARK    8  A    between atoms: C_13  and  C_12 
REMARK    9  A    between atoms: O_31  and  C_12 
REMARK   10  A    between atoms: O_32  and  C_13 
REMARK   11  A    between atoms: C_24  and  C_15 
REMARK   12  A    between atoms: N_27  and  C_15 
REMARK   13  A    between atoms: C_19  and  C_16 
REMARK   14  A    between atoms: O_28  and  C_16 
REMARK   15  A    between atoms: C_20  and  C_17 
REMARK   16  A    between atoms: O_32  and  C_17 
REMARK   17  A    between atoms: C_24  and  C_18 
REMARK   18  A    between atoms: O_29  and  C_23 
REMARK   19  A    between atoms: C_24  and  O_30 
ROOT
HETATM    1  C   UNK N   1      26.682  23.400  -6.862  0.00  0.00     0.019 C 
ENDROOT
BRANCH   1   2
HETATM    2  C   UNK N   1      27.530  23.617  -5.625  0.00  0.00     0.002 C 
BRANCH   2   3
HETATM    3  C   UNK N   1      26.671  24.151  -4.497  0.00  0.00     0.002 C 
BRANCH   3   4
HETATM    4  C   UNK N   1      27.462  25.169  -3.703  0.00  0.00     0.026 C 
BRANCH   4   5
HETATM    5  C   UNK N   1      28.853  25.294  -4.294  0.00  0.00     0.167 C 
BRANCH   5   6
HETATM    6  O   UNK N   1      29.446  26.482  -3.863  0.00  0.00    -0.389 OA
BRANCH   6   7
HETATM    7  C   UNK N   1      30.479  26.698  -4.776  0.00  0.00     0.193 C 
BRANCH   7   8
HETATM    8  C   UNK N   1      30.332  28.065  -5.418  0.00  0.00     0.194 C 
BRANCH   8   9
HETATM    9  O   UNK N   1      29.358  28.811  -4.747  0.00  0.00    -0.384 OA
BRANCH   9  10
HETATM   10  C   UNK N   1      28.483  29.225  -5.755  0.00  0.00     0.209 C 
BRANCH  10  11
HETATM   11  C   UNK N   1      27.205  28.442  -5.718  0.00  0.00     0.009 A 
HETATM   12  C   UNK N   1      26.906  27.556  -6.771  0.00  0.00     0.044 A 
HETATM   13  C   UNK N   1      25.711  26.830  -6.758  0.00  0.00     0.024 A 
HETATM   14 Cl   UNK N   1      28.008  27.338  -8.124  0.00  0.00    -0.084 Cl
HETATM   15  C   UNK N   1      24.808  26.980  -5.706  0.00  0.00     0.003 A 
HETATM   16  C   UNK N   1      25.094  27.857  -4.660  0.00  0.00     0.024 A 
HETATM   17  C   UNK N   1      26.283  28.589  -4.657  0.00  0.00     0.044 A 
HETATM   18 Cl   UNK N   1      26.571  29.685  -3.314  0.00  0.00    -0.084 Cl
ENDBRANCH  10  11
ENDBRANCH   9  10
ENDBRANCH   8   9
ENDBRANCH   7   8
ENDBRANCH   6   7
ENDBRANCH   5   6
ENDBRANCH   4   5
ENDBRANCH   3   4
ENDBRANCH   2   3
ENDBRANCH   1   2
BRANCH   1  19
HETATM   19  C   UNK N   1      26.973  22.026  -7.453  0.00  0.00     0.113 C 
BRANCH  19  20
HETATM   20  N   UNK N   1      28.355  21.942  -7.905  0.00  0.00    -0.418 N 
HETATM   21  H   UNK N   1      28.861  22.646  -8.442  0.00  0.00     0.153 HD
BRANCH  20  22
HETATM   22  C   UNK N   1      28.879  20.661  -7.447  0.00  0.00     0.150 C 
BRANCH  22  23
HETATM   23  C   UNK N   1      30.408  20.623  -7.354  0.00  0.00     0.168 C 
BRANCH  23  24
HETATM   24  C   UNK N   1      30.898  20.799  -5.939  0.00  0.00    -0.027 A 
HETATM   25  C   UNK N   1      30.145  21.485  -4.971  0.00  0.00     0.012 A 
HETATM   26  C   UNK N   1      30.642  21.647  -3.676  0.00  0.00     0.038 A 
HETATM   27  C   UNK N   1      31.900  21.143  -3.337  0.00  0.00     0.074 A 
HETATM   28  C   UNK N   1      32.666  20.460  -4.297  0.00  0.00    -0.001 A 
HETATM   29  C   UNK N   1      32.153  20.287  -5.591  0.00  0.00     0.022 A 
BRANCH  27  30
HETATM   30  O   UNK N   1      32.371  21.322  -2.089  0.00  0.00    -0.360 OA
HETATM   31  H   UNK N   1      31.971  21.947  -1.517  0.00  0.00     0.217 HD
ENDBRANCH  27  30
BRANCH  28  32
HETATM   32  C   UNK N   1      34.027  19.938  -3.941  0.00  0.00     0.205 C 
BRANCH  32  33
HETATM   33  O   UNK N   1      34.896  20.968  -3.572  0.00  0.00    -0.396 OA
HETATM   34  H   UNK N   1      35.171  21.069  -2.647  0.00  0.00     0.209 HD
ENDBRANCH  32  33
ENDBRANCH  28  32
ENDBRANCH  23  24
BRANCH  23  35
HETATM   35  O   UNK N   1      30.933  19.442  -7.890  0.00  0.00    -0.389 OA
HETATM   36  H   UNK N   1      31.210  18.532  -7.701  0.00  0.00     0.210 HD
ENDBRANCH  23  35
ENDBRANCH  22  23
ENDBRANCH  20  22
ENDBRANCH  19  20
ENDBRANCH   1  19
TORSDOF 19
ENDMDL
MODEL 5
REMARK VINA RESULT:      -5.4      2.644      4.665
REMARK  19 active torsions:
REMARK  status: ('A' for Active; 'I' for Inactive)
REMARK    1  A    between atoms: C_2  and  C_1 
REMARK    2  A    between atoms: C_3  and  C_1 
REMARK    3  A    between atoms: C_4  and  C_2 
REMARK    4  A    between atoms: C_10  and  C_3 
REMARK    5  A    between atoms: C_11  and  C_4 
REMARK    6  A    between atoms: N_27  and  C_10 
REMARK    7  A    between atoms: O_31  and  C_11 
REMARK    8  A    between atoms: C_13  and  C_12 
REMARK    9  A    between atoms: O_31  and  C_12 
REMARK   10  A    between atoms: O_32  and  C_13 
REMARK   11  A    between atoms: C_24  and  C_15 
REMARK   12  A    between atoms: N_27  and  C_15 
REMARK   13  A    between atoms: C_19  and  C_16 
REMARK   14  A    between atoms: O_28  and  C_16 
REMARK   15  A    between atoms: C_20  and  C_17 
REMARK   16  A    between atoms: O_32  and  C_17 
REMARK   17  A    between atoms: C_24  and  C_18 
REMARK   18  A    between atoms: O_29  and  C_23 
REMARK   19  A    between atoms: C_24  and  O_30 
ROOT
HETATM    1  C   UNK N   1      20.900  16.040   8.228  0.00  0.00     0.019 C 
ENDROOT
BRANCH   1   2
HETATM    2  C   UNK N   1      20.685  14.556   8.452  0.00  0.00     0.002 C 
BRANCH   2   3
HETATM    3  C   UNK N   1      21.279  14.143   9.783  0.00  0.00     0.002 C 
BRANCH   3   4
HETATM    4  C   UNK N   1      21.096  12.653   9.973  0.00  0.00     0.026 C 
BRANCH   4   5
HETATM    5  C   UNK N   1      21.763  12.227  11.266  0.00  0.00     0.167 C 
BRANCH   5   6
HETATM    6  O   UNK N   1      22.845  11.390  10.990  0.00  0.00    -0.389 OA
BRANCH   6   7
HETATM    7  C   UNK N   1      23.943  12.060  11.529  0.00  0.00     0.193 C 
BRANCH   7   8
HETATM    8  C   UNK N   1      24.965  12.347  10.445  0.00  0.00     0.194 C 
BRANCH   8   9
HETATM    9  O   UNK N   1      24.452  13.274   9.533  0.00  0.00    -0.384 OA
BRANCH   9  10
HETATM   10  C   UNK N   1      24.987  12.882   8.302  0.00  0.00     0.209 C 
BRANCH  10  11
HETATM   11  C   UNK N   1      23.939  12.887   7.230  0.00  0.00     0.009 A 
HETATM   12  C   UNK N   1      23.173  11.727   7.006  0.00  0.00     0.044 A 
HETATM   13  C   UNK N   1      22.202  11.711   6.000  0.00  0.00     0.024 A 
HETATM   14 Cl   UNK N   1      23.410  10.274   7.969  0.00  0.00    -0.084 Cl
HETATM   15  C   UNK N   1      21.988  12.841   5.211  0.00  0.00     0.003 A 
HETATM   16  C   UNK N   1      22.744  13.994   5.423  0.00  0.00     0.024 A 
HETATM   17  C   UNK N   1      23.717  14.027   6.424  0.00  0.00     0.044 A 
HETATM   18 Cl   UNK N   1      24.640  15.508   6.625  0.00  0.00    -0.084 Cl
ENDBRANCH  10  11
ENDBRANCH   9  10
ENDBRANCH   8   9
ENDBRANCH   7   8
ENDBRANCH   6   7
ENDBRANCH   5   6
ENDBRANCH   4   5
ENDBRANCH   3   4
ENDBRANCH   2   3
ENDBRANCH   1   2
BRANCH   1  19
HETATM   19  C   UNK N   1      19.661  16.648   7.583  0.00  0.00     0.113 C 
BRANCH  19  20
HETATM   20  N   UNK N   1      19.991  17.253   6.301  0.00  0.00    -0.418 N 
HETATM   21  H   UNK N   1      19.436  17.203   5.446  0.00  0.00     0.153 HD
BRANCH  20  22
HETATM   22  C   UNK N   1      21.264  17.943   6.465  0.00  0.00     0.150 C 
BRANCH  22  23
HETATM   23  C   UNK N   1      22.275  17.638   5.356  0.00  0.00     0.168 C 
BRANCH  23  24
HETATM   24  C   UNK N   1      21.663  17.743   3.981  0.00  0.00    -0.027 A 
HETATM   25  C   UNK N   1      21.360  16.605   3.214  0.00  0.00     0.012 A 
HETATM   26  C   UNK N   1      20.814  16.742   1.935  0.00  0.00     0.038 A 
HETATM   27  C   UNK N   1      20.581  18.012   1.403  0.00  0.00     0.074 A 
HETATM   28  C   UNK N   1      20.885  19.158   2.158  0.00  0.00    -0.001 A 
HETATM   29  C   UNK N   1      21.418  19.012   3.446  0.00  0.00     0.022 A 
BRANCH  27  30
HETATM   30  O   UNK N   1      20.070  18.128   0.163  0.00  0.00    -0.360 OA
HETATM   31  H   UNK N   1      19.716  18.944  -0.129  0.00  0.00     0.217 HD
ENDBRANCH  27  30
BRANCH  28  32
HETATM   32  C   UNK N   1      20.658  20.524   1.578  0.00  0.00     0.205 C 
BRANCH  32  33
HETATM   33  O   UNK N   1      21.397  20.719   0.409  0.00  0.00    -0.396 OA
HETATM   34  H   UNK N   1      21.148  20.262  -0.411  0.00  0.00     0.209 HD
ENDBRANCH  32  33
ENDBRANCH  28  32
ENDBRANCH  23  24
BRANCH  23  35
HETATM   35  O   UNK N   1      23.400  18.466   5.434  0.00  0.00    -0.389 OA
HETATM   36  H   UNK N   1      23.724  19.380   5.403  0.00  0.00     0.210 HD
ENDBRANCH  23  35
ENDBRANCH  22  23
ENDBRANCH  20  22
ENDBRANCH  19  20
ENDBRANCH   1  19
TORSDOF 19
ENDMDL
MODEL 6
REMARK VINA RESULT:      -5.4      3.962      8.220
REMARK  19 active torsions:
REMARK  status: ('A' for Active; 'I' for Inactive)
REMARK    1  A    between atoms: C_2  and  C_1 
REMARK    2  A    between atoms: C_3  and  C_1 
REMARK    3  A    between atoms: C_4  and  C_2 
REMARK    4  A    between atoms: C_10  and  C_3 
REMARK    5  A    between atoms: C_11  and  C_4 
REMARK    6  A    between atoms: N_27  and  C_10 
REMARK    7  A    between atoms: O_31  and  C_11 
REMARK    8  A    between atoms: C_13  and  C_12 
REMARK    9  A    between atoms: O_31  and  C_12 
REMARK   10  A    between atoms: O_32  and  C_13 
REMARK   11  A    between atoms: C_24  and  C_15 
REMARK   12  A    between atoms: N_27  and  C_15 
REMARK   13  A    between atoms: C_19  and  C_16 
REMARK   14  A    between atoms: O_28  and  C_16 
REMARK   15  A    between atoms: C_20  and  C_17 
REMARK   16  A    between atoms: O_32  and  C_17 
REMARK   17  A    between atoms: C_24  and  C_18 
REMARK   18  A    between atoms: O_29  and  C_23 
REMARK   19  A    between atoms: C_24  and  O_30 
ROOT
HETATM    1  C   UNK N   1      22.104  13.122   5.665  0.00  0.00     0.019 C 
ENDROOT
BRANCH   1   2
HETATM    2  C   UNK N   1      21.678  12.566   4.320  0.00  0.00     0.002 C 
BRANCH   2   3
HETATM    3  C   UNK N   1      20.927  13.625   3.538  0.00  0.00     0.002 C 
BRANCH   3   4
HETATM    4  C   UNK N   1      21.858  14.257   2.528  0.00  0.00     0.026 C 
BRANCH   4   5
HETATM    5  C   UNK N   1      21.963  15.744   2.805  0.00  0.00     0.167 C 
BRANCH   5   6
HETATM    6  O   UNK N   1      23.016  15.989   3.688  0.00  0.00    -0.389 OA
BRANCH   6   7
HETATM    7  C   UNK N   1      24.108  15.348   3.103  0.00  0.00     0.193 C 
BRANCH   7   8
HETATM    8  C   UNK N   1      25.378  15.671   3.871  0.00  0.00     0.194 C 
BRANCH   8   9
HETATM    9  O   UNK N   1      25.335  16.988   4.340  0.00  0.00    -0.384 OA
BRANCH   9  10
HETATM   10  C   UNK N   1      26.602  17.501   4.049  0.00  0.00     0.209 C 
BRANCH  10  11
HETATM   11  C   UNK N   1      26.891  18.726   4.865  0.00  0.00     0.009 A 
HETATM   12  C   UNK N   1      27.534  18.592   6.110  0.00  0.00     0.044 A 
HETATM   13  C   UNK N   1      27.795  19.723   6.889  0.00  0.00     0.024 A 
HETATM   14 Cl   UNK N   1      28.020  17.017   6.725  0.00  0.00    -0.084 Cl
HETATM   15  C   UNK N   1      27.419  20.989   6.440  0.00  0.00     0.003 A 
HETATM   16  C   UNK N   1      26.779  21.131   5.209  0.00  0.00     0.024 A 
HETATM   17  C   UNK N   1      26.511  20.012   4.418  0.00  0.00     0.044 A 
HETATM   18 Cl   UNK N   1      25.690  20.264   2.886  0.00  0.00    -0.084 Cl
ENDBRANCH  10  11
ENDBRANCH   9  10
ENDBRANCH   8   9
ENDBRANCH   7   8
ENDBRANCH   6   7
ENDBRANCH   5   6
ENDBRANCH   4   5
ENDBRANCH   3   4
ENDBRANCH   2   3
ENDBRANCH   1   2
BRANCH   1  19
HETATM   19  C   UNK N   1      21.116  14.190   6.117  0.00  0.00     0.113 C 
BRANCH  19  20
HETATM   20  N   UNK N   1      21.817  15.384   6.567  0.00  0.00    -0.418 N 
HETATM   21  H   UNK N   1      22.466  15.948   6.019  0.00  0.00     0.153 HD
BRANCH  20  22
HETATM   22  C   UNK N   1      21.417  15.622   7.949  0.00  0.00     0.150 C 
BRANCH  22  23
HETATM   23  C   UNK N   1      20.451  14.568   8.497  0.00  0.00     0.168 C 
BRANCH  23  24
HETATM   24  C   UNK N   1      21.107  13.664   9.510  0.00  0.00    -0.027 A 
HETATM   25  C   UNK N   1      20.377  13.051  10.542  0.00  0.00     0.012 A 
HETATM   26  C   UNK N   1      21.023  12.236  11.476  0.00  0.00     0.038 A 
HETATM   27  C   UNK N   1      22.403  12.038  11.399  0.00  0.00     0.074 A 
HETATM   28  C   UNK N   1      23.146  12.650  10.375  0.00  0.00    -0.001 A 
HETATM   29  C   UNK N   1      22.488  13.453   9.433  0.00  0.00     0.022 A 
BRANCH  27  30
HETATM   30  O   UNK N   1      23.013  11.265  12.316  0.00  0.00    -0.360 OA
HETATM   31  H   UNK N   1      22.757  10.370  12.426  0.00  0.00     0.217 HD
ENDBRANCH  27  30
BRANCH  28  32
HETATM   32  C   UNK N   1      24.633  12.457  10.306  0.00  0.00     0.205 C 
BRANCH  32  33
HETATM   33  O   UNK N   1      25.254  12.785  11.514  0.00  0.00    -0.396 OA
HETATM   34  H   UNK N   1      26.115  13.234  11.517  0.00  0.00     0.209 HD
ENDBRANCH  32  33
ENDBRANCH  28  32
ENDBRANCH  23  24
BRANCH  23  35
HETATM   35  O   UNK N   1      19.309  15.151   9.058  0.00  0.00    -0.389 OA
HETATM   36  H   UNK N   1      18.761  15.231   9.855  0.00  0.00     0.210 HD
ENDBRANCH  23  35
ENDBRANCH  22  23
ENDBRANCH  20  22
ENDBRANCH  19  20
ENDBRANCH   1  19
TORSDOF 19
ENDMDL
MODEL 7
REMARK VINA RESULT:      -5.4      5.033      6.849
REMARK  19 active torsions:
REMARK  status: ('A' for Active; 'I' for Inactive)
REMARK    1  A    between atoms: C_2  and  C_1 
REMARK    2  A    between atoms: C_3  and  C_1 
REMARK    3  A    between atoms: C_4  and  C_2 
REMARK    4  A    between atoms: C_10  and  C_3 
REMARK    5  A    between atoms: C_11  and  C_4 
REMARK    6  A    between atoms: N_27  and  C_10 
REMARK    7  A    between atoms: O_31  and  C_11 
REMARK    8  A    between atoms: C_13  and  C_12 
REMARK    9  A    between atoms: O_31  and  C_12 
REMARK   10  A    between atoms: O_32  and  C_13 
REMARK   11  A    between atoms: C_24  and  C_15 
REMARK   12  A    between atoms: N_27  and  C_15 
REMARK   13  A    between atoms: C_19  and  C_16 
REMARK   14  A    between atoms: O_28  and  C_16 
REMARK   15  A    between atoms: C_20  and  C_17 
REMARK   16  A    between atoms: O_32  and  C_17 
REMARK   17  A    between atoms: C_24  and  C_18 
REMARK   18  A    between atoms: O_29  and  C_23 
REMARK   19  A    between atoms: C_24  and  O_30 
ROOT
HETATM    1  C   UNK N   1      24.345  19.547   3.881  0.00  0.00     0.019 C 
ENDROOT
BRANCH   1   2
HETATM    2  C   UNK N   1      23.008  18.907   3.563  0.00  0.00     0.002 C 
BRANCH   2   3
HETATM    3  C   UNK N   1      22.672  17.866   4.611  0.00  0.00     0.002 C 
BRANCH   3   4
HETATM    4  C   UNK N   1      21.381  18.248   5.301  0.00  0.00     0.026 C 
BRANCH   4   5
HETATM    5  C   UNK N   1      21.214  17.408   6.552  0.00  0.00     0.167 C 
BRANCH   5   6
HETATM    6  O   UNK N   1      20.573  16.209   6.237  0.00  0.00    -0.389 OA
BRANCH   6   7
HETATM    7  C   UNK N   1      21.407  15.226   6.771  0.00  0.00     0.193 C 
BRANCH   7   8
HETATM    8  C   UNK N   1      20.724  13.871   6.709  0.00  0.00     0.194 C 
BRANCH   8   9
HETATM    9  O   UNK N   1      20.812  13.230   7.948  0.00  0.00    -0.384 OA
BRANCH   9  10
HETATM   10  C   UNK N   1      21.615  14.076   8.720  0.00  0.00     0.209 C 
BRANCH  10  11
HETATM   11  C   UNK N   1      22.485  13.291   9.656  0.00  0.00     0.009 A 
HETATM   12  C   UNK N   1      23.865  13.191   9.398  0.00  0.00     0.044 A 
HETATM   13  C   UNK N   1      24.686  12.451  10.253  0.00  0.00     0.024 A 
HETATM   14 Cl   UNK N   1      24.595  13.981   8.005  0.00  0.00    -0.084 Cl
HETATM   15  C   UNK N   1      24.145  11.805  11.364  0.00  0.00     0.003 A 
HETATM   16  C   UNK N   1      22.778  11.896  11.627  0.00  0.00     0.024 A 
HETATM   17  C   UNK N   1      21.944  12.632  10.783  0.00  0.00     0.044 A 
HETATM   18 Cl   UNK N   1      20.231  12.691  11.167  0.00  0.00    -0.084 Cl
ENDBRANCH  10  11
ENDBRANCH   9  10
ENDBRANCH   8   9
ENDBRANCH   7   8
ENDBRANCH   6   7
ENDBRANCH   5   6
ENDBRANCH   4   5
ENDBRANCH   3   4
ENDBRANCH   2   3
ENDBRANCH   1   2
BRANCH   1  19
HETATM   19  C   UNK N   1      25.212  18.569   4.663  0.00  0.00     0.113 C 
BRANCH  19  20
HETATM   20  N   UNK N   1      25.862  17.624   3.766  0.00  0.00    -0.418 N 
HETATM   21  H   UNK N   1      25.583  17.406   2.810  0.00  0.00     0.153 HD
BRANCH  20  22
HETATM   22  C   UNK N   1      26.987  17.046   4.491  0.00  0.00     0.150 C 
BRANCH  22  23
HETATM   23  C   UNK N   1      28.260  17.895   4.424  0.00  0.00     0.168 C 
BRANCH  23  24
HETATM   24  C   UNK N   1      29.133  17.714   5.640  0.00  0.00    -0.027 A 
HETATM   25  C   UNK N   1      30.454  17.244   5.544  0.00  0.00     0.012 A 
HETATM   26  C   UNK N   1      31.226  17.067   6.695  0.00  0.00     0.038 A 
HETATM   27  C   UNK N   1      30.684  17.340   7.953  0.00  0.00     0.074 A 
HETATM   28  C   UNK N   1      29.362  17.805   8.064  0.00  0.00    -0.001 A 
HETATM   29  C   UNK N   1      28.600  17.995   6.903  0.00  0.00     0.022 A 
BRANCH  27  30
HETATM   30  O   UNK N   1      31.434  17.148   9.053  0.00  0.00    -0.360 OA
HETATM   31  H   UNK N   1      31.811  16.309   9.229  0.00  0.00     0.217 HD
ENDBRANCH  27  30
BRANCH  28  32
HETATM   32  C   UNK N   1      28.771  18.077   9.417  0.00  0.00     0.205 C 
BRANCH  32  33
HETATM   33  O   UNK N   1      27.375  18.099   9.376  0.00  0.00    -0.396 OA
HETATM   34  H   UNK N   1      26.906  17.962   8.537  0.00  0.00     0.209 HD
ENDBRANCH  32  33
ENDBRANCH  28  32
ENDBRANCH  23  24
BRANCH  23  35
HETATM   35  O   UNK N   1      29.003  17.629   3.268  0.00  0.00    -0.389 OA
HETATM   36  H   UNK N   1      28.964  17.469   2.312  0.00  0.00     0.210 HD
ENDBRANCH  23  35
ENDBRANCH  22  23
ENDBRANCH  20  22
ENDBRANCH  19  20
ENDBRANCH   1  19
TORSDOF 19
ENDMDL
MODEL 8
REMARK VINA RESULT:      -5.3     10.045     12.133
REMARK  19 active torsions:
REMARK  status: ('A' for Active; 'I' for Inactive)
REMARK    1  A    between atoms: C_2  and  C_1 
REMARK    2  A    between atoms: C_3  and  C_1 
REMARK    3  A    between atoms: C_4  and  C_2 
REMARK    4  A    between atoms: C_10  and  C_3 
REMARK    5  A    between atoms: C_11  and  C_4 
REMARK    6  A    between atoms: N_27  and  C_10 
REMARK    7  A    between atoms: O_31  and  C_11 
REMARK    8  A    between atoms: C_13  and  C_12 
REMARK    9  A    between atoms: O_31  and  C_12 
REMARK   10  A    between atoms: O_32  and  C_13 
REMARK   11  A    between atoms: C_24  and  C_15 
REMARK   12  A    between atoms: N_27  and  C_15 
REMARK   13  A    between atoms: C_19  and  C_16 
REMARK   14  A    between atoms: O_28  and  C_16 
REMARK   15  A    between atoms: C_20  and  C_17 
REMARK   16  A    between atoms: O_32  and  C_17 
REMARK   17  A    between atoms: C_24  and  C_18 
REMARK   18  A    between atoms: O_29  and  C_23 
REMARK   19  A    between atoms: C_24  and  O_30 
ROOT
HETATM    1  C   UNK N   1      33.772  16.117   5.151  0.00  0.00     0.019 C 
ENDROOT
BRANCH   1   2
HETATM    2  C   UNK N   1      34.474  16.579   6.413  0.00  0.00     0.002 C 
BRANCH   2   3
HETATM    3  C   UNK N   1      33.452  16.923   7.477  0.00  0.00     0.002 C 
BRANCH   3   4
HETATM    4  C   UNK N   1      34.107  17.767   8.548  0.00  0.00     0.026 C 
BRANCH   4   5
HETATM    5  C   UNK N   1      34.766  16.860   9.568  0.00  0.00     0.167 C 
BRANCH   5   6
HETATM    6  O   UNK N   1      33.953  15.752   9.813  0.00  0.00    -0.389 OA
BRANCH   6   7
HETATM    7  C   UNK N   1      34.844  14.758  10.218  0.00  0.00     0.193 C 
BRANCH   7   8
HETATM    8  C   UNK N   1      35.158  14.907  11.696  0.00  0.00     0.194 C 
BRANCH   8   9
HETATM    9  O   UNK N   1      34.475  13.936  12.434  0.00  0.00    -0.384 OA
BRANCH   9  10
HETATM   10  C   UNK N   1      35.398  12.895  12.576  0.00  0.00     0.209 C 
BRANCH  10  11
HETATM   11  C   UNK N   1      35.245  12.212  13.902  0.00  0.00     0.009 A 
HETATM   12  C   UNK N   1      34.493  11.025  13.986  0.00  0.00     0.044 A 
HETATM   13  C   UNK N   1      34.329  10.386  15.218  0.00  0.00     0.024 A 
HETATM   14 Cl   UNK N   1      33.740  10.316  12.564  0.00  0.00    -0.084 Cl
HETATM   15  C   UNK N   1      34.906  10.920  16.371  0.00  0.00     0.003 A 
HETATM   16  C   UNK N   1      35.650  12.097  16.297  0.00  0.00     0.024 A 
HETATM   17  C   UNK N   1      35.825  12.748  15.075  0.00  0.00     0.044 A 
HETATM   18 Cl   UNK N   1      36.762  14.233  15.060  0.00  0.00    -0.084 Cl
ENDBRANCH  10  11
ENDBRANCH   9  10
ENDBRANCH   8   9
ENDBRANCH   7   8
ENDBRANCH   6   7
ENDBRANCH   5   6
ENDBRANCH   4   5
ENDBRANCH   3   4
ENDBRANCH   2   3
ENDBRANCH   1   2
BRANCH   1  19
HETATM   19  C   UNK N   1      32.267  16.296   5.305  0.00  0.00     0.113 C 
BRANCH  19  20
HETATM   20  N   UNK N   1      31.570  15.859   4.103  0.00  0.00    -0.418 N 
HETATM   21  H   UNK N   1      31.951  15.831   3.158  0.00  0.00     0.153 HD
BRANCH  20  22
HETATM   22  C   UNK N   1      30.223  15.471   4.504  0.00  0.00     0.150 C 
BRANCH  22  23
HETATM   23  C   UNK N   1      29.123  16.320   3.859  0.00  0.00     0.168 C 
BRANCH  23  24
HETATM   24  C   UNK N   1      28.568  17.352   4.807  0.00  0.00    -0.027 A 
HETATM   25  C   UNK N   1      27.873  18.485   4.350  0.00  0.00     0.012 A 
HETATM   26  C   UNK N   1      27.392  19.432   5.257  0.00  0.00     0.038 A 
HETATM   27  C   UNK N   1      27.612  19.268   6.627  0.00  0.00     0.074 A 
HETATM   28  C   UNK N   1      28.310  18.143   7.097  0.00  0.00    -0.001 A 
HETATM   29  C   UNK N   1      28.776  17.189   6.181  0.00  0.00     0.022 A 
BRANCH  27  30
HETATM   30  O   UNK N   1      27.156  20.197   7.486  0.00  0.00    -0.360 OA
HETATM   31  H   UNK N   1      26.378  20.682   7.291  0.00  0.00     0.217 HD
ENDBRANCH  27  30
BRANCH  28  32
HETATM   32  C   UNK N   1      28.567  17.977   8.567  0.00  0.00     0.205 C 
BRANCH  32  33
HETATM   33  O   UNK N   1      27.415  18.205   9.323  0.00  0.00    -0.396 OA
HETATM   34  H   UNK N   1      27.286  17.748  10.170  0.00  0.00     0.209 HD
ENDBRANCH  32  33
ENDBRANCH  28  32
ENDBRANCH  23  24
BRANCH  23  35
HETATM   35  O   UNK N   1      29.569  16.948   2.690  0.00  0.00    -0.389 OA
HETATM   36  H   UNK N   1      29.764  16.835   1.746  0.00  0.00     0.210 HD
ENDBRANCH  23  35
ENDBRANCH  22  23
ENDBRANCH  20  22
ENDBRANCH  19  20
ENDBRANCH   1  19
TORSDOF 19
ENDMDL
MODEL 9
REMARK VINA RESULT:      -5.3     15.388     17.580
REMARK  19 active torsions:
REMARK  status: ('A' for Active; 'I' for Inactive)
REMARK    1  A    between atoms: C_2  and  C_1 
REMARK    2  A    between atoms: C_3  and  C_1 
REMARK    3  A    between atoms: C_4  and  C_2 
REMARK    4  A    between atoms: C_10  and  C_3 
REMARK    5  A    between atoms: C_11  and  C_4 
REMARK    6  A    between atoms: N_27  and  C_10 
REMARK    7  A    between atoms: O_31  and  C_11 
REMARK    8  A    between atoms: C_13  and  C_12 
REMARK    9  A    between atoms: O_31  and  C_12 
REMARK   10  A    between atoms: O_32  and  C_13 
REMARK   11  A    between atoms: C_24  and  C_15 
REMARK   12  A    between atoms: N_27  and  C_15 
REMARK   13  A    between atoms: C_19  and  C_16 
REMARK   14  A    between atoms: O_28  and  C_16 
REMARK   15  A    between atoms: C_20  and  C_17 
REMARK   16  A    between atoms: O_32  and  C_17 
REMARK   17  A    between atoms: C_24  and  C_18 
REMARK   18  A    between atoms: O_29  and  C_23 
REMARK   19  A    between atoms: C_24  and  O_30 
ROOT
HETATM    1  C   UNK N   1      27.611  28.653  -4.493  0.00  0.00     0.019 C 
ENDROOT
BRANCH   1   2
HETATM    2  C   UNK N   1      27.727  29.824  -5.450  0.00  0.00     0.002 C 
BRANCH   2   3
HETATM    3  C   UNK N   1      28.778  29.531  -6.500  0.00  0.00     0.002 C 
BRANCH   3   4
HETATM    4  C   UNK N   1      28.222  28.548  -7.507  0.00  0.00     0.026 C 
BRANCH   4   5
HETATM    5  C   UNK N   1      29.366  27.813  -8.176  0.00  0.00     0.167 C 
BRANCH   5   6
HETATM    6  O   UNK N   1      29.043  26.463  -8.323  0.00  0.00    -0.389 OA
BRANCH   6   7
HETATM    7  C   UNK N   1      30.094  25.790  -7.701  0.00  0.00     0.193 C 
BRANCH   7   8
HETATM    8  C   UNK N   1      29.579  25.002  -6.510  0.00  0.00     0.194 C 
BRANCH   8   9
HETATM    9  O   UNK N   1      29.646  23.631  -6.774  0.00  0.00    -0.384 OA
BRANCH   9  10
HETATM   10  C   UNK N   1      29.124  23.030  -5.624  0.00  0.00     0.209 C 
BRANCH  10  11
HETATM   11  C   UNK N   1      30.187  22.287  -4.872  0.00  0.00     0.009 A 
HETATM   12  C   UNK N   1      30.778  22.881  -3.740  0.00  0.00     0.044 A 
HETATM   13  C   UNK N   1      31.780  22.207  -3.038  0.00  0.00     0.024 A 
HETATM   14 Cl   UNK N   1      30.285  24.474  -3.181  0.00  0.00    -0.084 Cl
HETATM   15  C   UNK N   1      32.204  20.944  -3.453  0.00  0.00     0.003 A 
HETATM   16  C   UNK N   1      31.626  20.349  -4.574  0.00  0.00     0.024 A 
HETATM   17  C   UNK N   1      30.623  21.008  -5.287  0.00  0.00     0.044 A 
HETATM   18 Cl   UNK N   1      29.952  20.204  -6.697  0.00  0.00    -0.084 Cl
ENDBRANCH  10  11
ENDBRANCH   9  10
ENDBRANCH   8   9
ENDBRANCH   7   8
ENDBRANCH   6   7
ENDBRANCH   5   6
ENDBRANCH   4   5
ENDBRANCH   3   4
ENDBRANCH   2   3
ENDBRANCH   1   2
BRANCH   1  19
HETATM   19  C   UNK N   1      26.335  28.783  -3.672  0.00  0.00     0.113 C 
BRANCH  19  20
HETATM   20  N   UNK N   1      26.010  27.523  -3.020  0.00  0.00    -0.418 N 
HETATM   21  H   UNK N   1      25.332  27.386  -2.270  0.00  0.00     0.153 HD
BRANCH  20  22
HETATM   22  C   UNK N   1      26.836  26.493  -3.638  0.00  0.00     0.150 C 
BRANCH  22  23
HETATM   23  C   UNK N   1      26.090  25.179  -3.891  0.00  0.00     0.168 C 
BRANCH  23  24
HETATM   24  C   UNK N   1      25.922  24.892  -5.361  0.00  0.00    -0.027 A 
HETATM   25  C   UNK N   1      25.984  25.909  -6.330  0.00  0.00     0.012 A 
HETATM   26  C   UNK N   1      25.802  25.609  -7.681  0.00  0.00     0.038 A 
HETATM   27  C   UNK N   1      25.539  24.296  -8.080  0.00  0.00     0.074 A 
HETATM   28  C   UNK N   1      25.468  23.270  -7.122  0.00  0.00    -0.001 A 
HETATM   29  C   UNK N   1      25.668  23.578  -5.769  0.00  0.00     0.022 A 
BRANCH  27  30
HETATM   30  O   UNK N   1      25.348  24.026  -9.384  0.00  0.00    -0.360 OA
HETATM   31  H   UNK N   1      25.598  23.194  -9.737  0.00  0.00     0.217 HD
ENDBRANCH  27  30
BRANCH  28  32
HETATM   32  C   UNK N   1      25.162  21.863  -7.546  0.00  0.00     0.205 C 
BRANCH  32  33
HETATM   33  O   UNK N   1      23.908  21.767  -8.154  0.00  0.00    -0.396 OA
HETATM   34  H   UNK N   1      23.704  22.294  -8.943  0.00  0.00     0.209 HD
ENDBRANCH  32  33
ENDBRANCH  28  32
ENDBRANCH  23  24
BRANCH  23  35
HETATM   35  O   UNK N   1      26.721  24.095  -3.269  0.00  0.00    -0.389 OA
HETATM   36  H   UNK N   1      26.644  23.160  -3.022  0.00  0.00     0.210 HD
ENDBRANCH  23  35
ENDBRANCH  22  23
ENDBRANCH  20  22
ENDBRANCH  19  20
ENDBRANCH   1  19
TORSDOF 19
ENDMDL
