MODEL 1
REMARK VINA RESULT:      -6.4      0.000      0.000
REMARK  8 active torsions:
REMARK  status: ('A' for Active; 'I' for Inactive)
REMARK    1  A    between atoms: C_2  and  C_16 
REMARK    2  A    between atoms: C_4  and  O_15 
REMARK    3  A    between atoms: C_5  and  O_23 
REMARK    4  A    between atoms: C_9  and  C_6 
REMARK    5  A    between atoms: C_8  and  C_7 
REMARK    6  A    between atoms: C_16  and  C_17 
REMARK    7  A    between atoms: C_17  and  C_18 
REMARK    8  A    between atoms: C_18  and  C_19 
ROOT
HETATM    1  C   UNK N   1      30.516  24.250  -4.317  0.00  0.00     0.044 A 
HETATM    2  C   UNK N   1      30.029  23.502  -3.247  0.00  0.00    -0.053 A 
HETATM    3  C   UNK N   1      28.697  23.627  -2.868  0.00  0.00     0.044 A 
HETATM    4  C   UNK N   1      27.839  24.497  -3.549  0.00  0.00     0.075 A 
HETATM    5  C   UNK N   1      29.684  25.134  -5.007  0.00  0.00     0.075 A 
HETATM    6  C   UNK N   1      28.322  25.276  -4.642  0.00  0.00     0.017 A 
ENDROOT
BRANCH   6   7
HETATM    7  C   UNK N   1      27.429  26.269  -5.403  0.00  0.00     0.055 C 
HETATM    8  C   UNK N   1      27.436  27.671  -4.812  0.00  0.00    -0.014 C 
HETATM    9  C   UNK N   1      26.318  28.359  -4.532  0.00  0.00    -0.087 C 
HETATM   10  C   UNK N   1      24.958  27.789  -4.805  0.00  0.00     0.034 C 
HETATM   11  C   UNK N   1      26.426  29.715  -3.927  0.00  0.00     0.043 C 
HETATM   12  C   UNK N   1      25.008  26.847  -5.993  0.00  0.00     0.014 C 
HETATM   13  C   UNK N   1      26.002  25.723  -5.703  0.00  0.00     0.026 C 
BRANCH  13  14
HETATM   14  C   UNK N   1      25.968  24.753  -6.850  0.00  0.00    -0.088 C 
HETATM   15  C   UNK N   1      25.894  25.181  -8.115  0.00  0.00     0.014 C 
HETATM   16  C   UNK N   1      25.957  23.289  -6.575  0.00  0.00     0.043 C 
ENDBRANCH  13  14
ENDBRANCH   6   7
BRANCH   4  17
HETATM   17  O   UNK N   1      26.560  24.570  -3.140  0.00  0.00    -0.360 OA
HETATM   18  H   UNK N   1      25.885  24.926  -3.684  0.00  0.00     0.217 HD
ENDBRANCH   4  17
BRANCH   5  19
HETATM   19  O   UNK N   1      30.214  25.861  -6.001  0.00  0.00    -0.360 OA
HETATM   20  H   UNK N   1      30.995  26.378  -6.001  0.00  0.00     0.217 HD
ENDBRANCH   5  19
BRANCH   2  21
HETATM   21  C   UNK N   1      30.929  22.581  -2.494  0.00  0.00     0.039 C 
BRANCH  21  22
HETATM   22  C   UNK N   1      31.689  21.677  -3.454  0.00  0.00     0.005 C 
BRANCH  22  23
HETATM   23  C   UNK N   1      30.762  20.638  -4.051  0.00  0.00    -0.000 C 
BRANCH  23  24
HETATM   24  C   UNK N   1      30.920  20.622  -5.559  0.00  0.00    -0.005 C 
HETATM   25  C   UNK N   1      29.689  21.216  -6.207  0.00  0.00     0.005 C 
ENDBRANCH  23  24
ENDBRANCH  22  23
ENDBRANCH  21  22
ENDBRANCH   2  21
TORSDOF 8
ENDMDL
MODEL 2
REMARK VINA RESULT:      -6.3     14.382     17.623
REMARK  8 active torsions:
REMARK  status: ('A' for Active; 'I' for Inactive)
REMARK    1  A    between atoms: C_2  and  C_16 
REMARK    2  A    between atoms: C_4  and  O_15 
REMARK    3  A    between atoms: C_5  and  O_23 
REMARK    4  A    between atoms: C_9  and  C_6 
REMARK    5  A    between atoms: C_8  and  C_7 
REMARK    6  A    between atoms: C_16  and  C_17 
REMARK    7  A    between atoms: C_17  and  C_18 
REMARK    8  A    between atoms: C_18  and  C_19 
ROOT
HETATM    1  C   UNK N   1      33.891  14.803  10.285  0.00  0.00     0.044 A 
HETATM    2  C   UNK N   1      35.131  15.339  10.624  0.00  0.00    -0.053 A 
HETATM    3  C   UNK N   1      35.507  16.580  10.123  0.00  0.00     0.044 A 
HETATM    4  C   UNK N   1      34.652  17.300   9.282  0.00  0.00     0.075 A 
HETATM    5  C   UNK N   1      33.023  15.495   9.437  0.00  0.00     0.075 A 
HETATM    6  C   UNK N   1      33.381  16.764   8.918  0.00  0.00     0.017 A 
ENDROOT
BRANCH   6   7
HETATM    7  C   UNK N   1      32.418  17.498   7.971  0.00  0.00     0.055 C 
HETATM    8  C   UNK N   1      31.179  18.043   8.665  0.00  0.00    -0.014 C 
HETATM    9  C   UNK N   1      29.930  17.831   8.219  0.00  0.00    -0.087 C 
HETATM   10  C   UNK N   1      29.668  17.041   6.971  0.00  0.00     0.034 C 
HETATM   11  C   UNK N   1      28.777  18.381   8.983  0.00  0.00     0.043 C 
HETATM   12  C   UNK N   1      30.821  17.193   5.997  0.00  0.00     0.014 C 
HETATM   13  C   UNK N   1      32.109  16.712   6.663  0.00  0.00     0.026 C 
BRANCH  13  14
HETATM   14  C   UNK N   1      33.220  16.783   5.653  0.00  0.00    -0.088 C 
HETATM   15  C   UNK N   1      33.171  17.646   4.633  0.00  0.00     0.014 C 
HETATM   16  C   UNK N   1      34.366  15.837   5.753  0.00  0.00     0.043 C 
ENDBRANCH  13  14
ENDBRANCH   6   7
BRANCH   4  17
HETATM   17  O   UNK N   1      35.068  18.497   8.835  0.00  0.00    -0.360 OA
HETATM   18  H   UNK N   1      35.341  19.178   9.419  0.00  0.00     0.217 HD
ENDBRANCH   4  17
BRANCH   5  19
HETATM   19  O   UNK N   1      31.860  14.915   9.108  0.00  0.00    -0.360 OA
HETATM   20  H   UNK N   1      31.682  14.015   8.920  0.00  0.00     0.217 HD
ENDBRANCH   5  19
BRANCH   2  21
HETATM   21  C   UNK N   1      36.068  14.583  11.506  0.00  0.00     0.039 C 
BRANCH  21  22
HETATM   22  C   UNK N   1      35.369  13.375  12.113  0.00  0.00     0.005 C 
BRANCH  22  23
HETATM   23  C   UNK N   1      35.470  13.406  13.624  0.00  0.00    -0.000 C 
BRANCH  23  24
HETATM   24  C   UNK N   1      36.446  14.487  14.047  0.00  0.00    -0.005 C 
HETATM   25  C   UNK N   1      36.938  14.208  15.449  0.00  0.00     0.005 C 
ENDBRANCH  23  24
ENDBRANCH  22  23
ENDBRANCH  21  22
ENDBRANCH   2  21
TORSDOF 8
ENDMDL
MODEL 3
REMARK VINA RESULT:      -6.1      1.334      3.656
REMARK  8 active torsions:
REMARK  status: ('A' for Active; 'I' for Inactive)
REMARK    1  A    between atoms: C_2  and  C_16 
REMARK    2  A    between atoms: C_4  and  O_15 
REMARK    3  A    between atoms: C_5  and  O_23 
REMARK    4  A    between atoms: C_9  and  C_6 
REMARK    5  A    between atoms: C_8  and  C_7 
REMARK    6  A    between atoms: C_16  and  C_17 
REMARK    7  A    between atoms: C_17  and  C_18 
REMARK    8  A    between atoms: C_18  and  C_19 
ROOT
HETATM    1  C   UNK N   1      28.979  23.338  -2.676  0.00  0.00     0.044 A 
HETATM    2  C   UNK N   1      30.152  23.145  -3.402  0.00  0.00    -0.053 A 
HETATM    3  C   UNK N   1      30.226  23.578  -4.722  0.00  0.00     0.044 A 
HETATM    4  C   UNK N   1      29.134  24.206  -5.330  0.00  0.00     0.075 A 
HETATM    5  C   UNK N   1      27.870  23.951  -3.263  0.00  0.00     0.075 A 
HETATM    6  C   UNK N   1      27.923  24.405  -4.604  0.00  0.00     0.017 A 
ENDROOT
BRANCH   6   7
HETATM    7  C   UNK N   1      26.683  25.061  -5.234  0.00  0.00     0.055 C 
HETATM    8  C   UNK N   1      26.092  24.263  -6.387  0.00  0.00    -0.014 C 
HETATM    9  C   UNK N   1      25.799  24.800  -7.582  0.00  0.00    -0.087 C 
HETATM   10  C   UNK N   1      26.022  26.257  -7.862  0.00  0.00     0.034 C 
HETATM   11  C   UNK N   1      25.249  23.933  -8.659  0.00  0.00     0.043 C 
HETATM   12  C   UNK N   1      25.867  27.070  -6.591  0.00  0.00     0.014 C 
HETATM   13  C   UNK N   1      26.871  26.574  -5.551  0.00  0.00     0.026 C 
BRANCH  13  14
HETATM   14  C   UNK N   1      26.765  27.451  -4.334  0.00  0.00    -0.088 C 
HETATM   15  C   UNK N   1      25.574  27.817  -3.849  0.00  0.00     0.014 C 
HETATM   16  C   UNK N   1      28.005  27.972  -3.694  0.00  0.00     0.043 C 
ENDBRANCH  13  14
ENDBRANCH   6   7
BRANCH   4  17
HETATM   17  O   UNK N   1      29.268  24.608  -6.605  0.00  0.00    -0.360 OA
HETATM   18  H   UNK N   1      28.686  24.320  -7.280  0.00  0.00     0.217 HD
ENDBRANCH   4  17
BRANCH   5  19
HETATM   19  O   UNK N   1      26.752  24.073  -2.533  0.00  0.00    -0.360 OA
HETATM   20  H   UNK N   1      26.401  24.835  -2.116  0.00  0.00     0.217 HD
ENDBRANCH   5  19
BRANCH   2  21
HETATM   21  C   UNK N   1      31.324  22.461  -2.782  0.00  0.00     0.039 C 
BRANCH  21  22
HETATM   22  C   UNK N   1      31.663  21.189  -3.547  0.00  0.00     0.005 C 
BRANCH  22  23
HETATM   23  C   UNK N   1      33.026  21.307  -4.198  0.00  0.00    -0.000 C 
BRANCH  23  24
HETATM   24  C   UNK N   1      34.024  20.444  -3.451  0.00  0.00    -0.005 C 
HETATM   25  C   UNK N   1      34.119  19.087  -4.112  0.00  0.00     0.005 C 
ENDBRANCH  23  24
ENDBRANCH  22  23
ENDBRANCH  21  22
ENDBRANCH   2  21
TORSDOF 8
ENDMDL
MODEL 4
REMARK VINA RESULT:      -6.1     11.287     13.247
REMARK  8 active torsions:
REMARK  status: ('A' for Active; 'I' for Inactive)
REMARK    1  A    between atoms: C_2  and  C_16 
REMARK    2  A    between atoms: C_4  and  O_15 
REMARK    3  A    between atoms: C_5  and  O_23 
REMARK    4  A    between atoms: C_9  and  C_6 
REMARK    5  A    between atoms: C_8  and  C_7 
REMARK    6  A    between atoms: C_16  and  C_17 
REMARK    7  A    between atoms: C_17  and  C_18 
REMARK    8  A    between atoms: C_18  and  C_19 
ROOT
HETATM    1  C   UNK N   1      24.182  20.221   3.243  0.00  0.00     0.044 A 
HETATM    2  C   UNK N   1      25.346  19.627   3.726  0.00  0.00    -0.053 A 
HETATM    3  C   UNK N   1      25.261  18.486   4.517  0.00  0.00     0.044 A 
HETATM    4  C   UNK N   1      24.019  17.927   4.834  0.00  0.00     0.075 A 
HETATM    5  C   UNK N   1      22.929  19.690   3.554  0.00  0.00     0.075 A 
HETATM    6  C   UNK N   1      22.817  18.526   4.354  0.00  0.00     0.017 A 
ENDROOT
BRANCH   6   7
HETATM    7  C   UNK N   1      21.425  17.970   4.699  0.00  0.00     0.055 C 
HETATM    8  C   UNK N   1      21.105  18.011   6.185  0.00  0.00    -0.014 C 
HETATM    9  C   UNK N   1      20.641  16.952   6.870  0.00  0.00    -0.087 C 
HETATM   10  C   UNK N   1      20.385  15.636   6.197  0.00  0.00     0.034 C 
HETATM   11  C   UNK N   1      20.383  17.081   8.330  0.00  0.00     0.043 C 
HETATM   12  C   UNK N   1      19.995  15.850   4.747  0.00  0.00     0.014 C 
HETATM   13  C   UNK N   1      21.117  16.598   4.029  0.00  0.00     0.026 C 
BRANCH  13  14
HETATM   14  C   UNK N   1      20.753  16.718   2.575  0.00  0.00    -0.088 C 
HETATM   15  C   UNK N   1      19.964  17.706   2.141  0.00  0.00     0.014 C 
HETATM   16  C   UNK N   1      21.227  15.686   1.611  0.00  0.00     0.043 C 
ENDBRANCH  13  14
ENDBRANCH   6   7
BRANCH   4  17
HETATM   17  O   UNK N   1      24.002  16.820   5.596  0.00  0.00    -0.360 OA
HETATM   18  H   UNK N   1      23.584  16.030   5.314  0.00  0.00     0.217 HD
ENDBRANCH   4  17
BRANCH   5  19
HETATM   19  O   UNK N   1      21.840  20.326   3.099  0.00  0.00    -0.360 OA
HETATM   20  H   UNK N   1      21.476  20.328   2.236  0.00  0.00     0.217 HD
ENDBRANCH   5  19
BRANCH   2  21
HETATM   21  C   UNK N   1      26.682  20.215   3.418  0.00  0.00     0.039 C 
BRANCH  21  22
HETATM   22  C   UNK N   1      27.592  20.136   4.636  0.00  0.00     0.005 C 
BRANCH  22  23
HETATM   23  C   UNK N   1      27.285  21.263   5.601  0.00  0.00    -0.000 C 
BRANCH  23  24
HETATM   24  C   UNK N   1      27.008  20.692   6.978  0.00  0.00    -0.005 C 
HETATM   25  C   UNK N   1      27.873  19.472   7.207  0.00  0.00     0.005 C 
ENDBRANCH  23  24
ENDBRANCH  22  23
ENDBRANCH  21  22
ENDBRANCH   2  21
TORSDOF 8
ENDMDL
MODEL 5
REMARK VINA RESULT:      -6.0     17.456     21.539
REMARK  8 active torsions:
REMARK  status: ('A' for Active; 'I' for Inactive)
REMARK    1  A    between atoms: C_2  and  C_16 
REMARK    2  A    between atoms: C_4  and  O_15 
REMARK    3  A    between atoms: C_5  and  O_23 
REMARK    4  A    between atoms: C_9  and  C_6 
REMARK    5  A    between atoms: C_8  and  C_7 
REMARK    6  A    between atoms: C_16  and  C_17 
REMARK    7  A    between atoms: C_17  and  C_18 
REMARK    8  A    between atoms: C_18  and  C_19 
ROOT
HETATM    1  C   UNK N   1      34.317  14.897   9.640  0.00  0.00     0.044 A 
HETATM    2  C   UNK N   1      34.828  16.151   9.970  0.00  0.00    -0.053 A 
HETATM    3  C   UNK N   1      35.574  16.307  11.132  0.00  0.00     0.044 A 
HETATM    4  C   UNK N   1      35.820  15.219  11.976  0.00  0.00     0.075 A 
HETATM    5  C   UNK N   1      34.537  13.796  10.471  0.00  0.00     0.075 A 
HETATM    6  C   UNK N   1      35.299  13.930  11.658  0.00  0.00     0.017 A 
ENDROOT
BRANCH   6   7
HETATM    7  C   UNK N   1      35.512  12.708  12.567  0.00  0.00     0.055 C 
HETATM    8  C   UNK N   1      34.897  12.864  13.950  0.00  0.00    -0.014 C 
HETATM    9  C   UNK N   1      35.569  12.625  15.088  0.00  0.00    -0.087 C 
HETATM   10  C   UNK N   1      36.995  12.162  15.072  0.00  0.00     0.034 C 
HETATM   11  C   UNK N   1      34.890  12.832  16.396  0.00  0.00     0.043 C 
HETATM   12  C   UNK N   1      37.273  11.345  13.825  0.00  0.00     0.014 C 
HETATM   13  C   UNK N   1      36.983  12.196  12.590  0.00  0.00     0.026 C 
BRANCH  13  14
HETATM   14  C   UNK N   1      37.351  11.401  11.368  0.00  0.00    -0.088 C 
HETATM   15  C   UNK N   1      38.151  11.914  10.427  0.00  0.00     0.014 C 
HETATM   16  C   UNK N   1      36.770  10.045  11.171  0.00  0.00     0.043 C 
ENDBRANCH  13  14
ENDBRANCH   6   7
BRANCH   4  17
HETATM   17  O   UNK N   1      36.554  15.432  13.082  0.00  0.00    -0.360 OA
HETATM   18  H   UNK N   1      36.276  15.136  13.927  0.00  0.00     0.217 HD
ENDBRANCH   4  17
BRANCH   5  19
HETATM   19  O   UNK N   1      33.987  12.623  10.129  0.00  0.00    -0.360 OA
HETATM   20  H   UNK N   1      34.406  11.800   9.970  0.00  0.00     0.217 HD
ENDBRANCH   5  19
BRANCH   2  21
HETATM   21  C   UNK N   1      34.565  17.331   9.095  0.00  0.00     0.039 C 
BRANCH  21  22
HETATM   22  C   UNK N   1      34.335  16.886   7.657  0.00  0.00     0.005 C 
BRANCH  22  23
HETATM   23  C   UNK N   1      33.078  17.520   7.099  0.00  0.00    -0.000 C 
BRANCH  23  24
HETATM   24  C   UNK N   1      32.158  17.914   8.238  0.00  0.00    -0.005 C 
HETATM   25  C   UNK N   1      30.910  17.060   8.202  0.00  0.00     0.005 C 
ENDBRANCH  23  24
ENDBRANCH  22  23
ENDBRANCH  21  22
ENDBRANCH   2  21
TORSDOF 8
ENDMDL
MODEL 6
REMARK VINA RESULT:      -5.9     10.502     12.662
REMARK  8 active torsions:
REMARK  status: ('A' for Active; 'I' for Inactive)
REMARK    1  A    between atoms: C_2  and  C_16 
REMARK    2  A    between atoms: C_4  and  O_15 
REMARK    3  A    between atoms: C_5  and  O_23 
REMARK    4  A    between atoms: C_9  and  C_6 
REMARK    5  A    between atoms: C_8  and  C_7 
REMARK    6  A    between atoms: C_16  and  C_17 
REMARK    7  A    between atoms: C_17  and  C_18 
REMARK    8  A    between atoms: C_18  and  C_19 
ROOT
HETATM    1  C   UNK N   1      22.451  20.033   2.907  0.00  0.00     0.044 A 
HETATM    2  C   UNK N   1      21.376  19.310   3.420  0.00  0.00    -0.053 A 
HETATM    3  C   UNK N   1      21.586  18.400   4.450  0.00  0.00     0.044 A 
HETATM    4  C   UNK N   1      22.865  18.200   4.978  0.00  0.00     0.075 A 
HETATM    5  C   UNK N   1      23.741  19.843   3.407  0.00  0.00     0.075 A 
HETATM    6  C   UNK N   1      23.979  18.925   4.460  0.00  0.00     0.017 A 
ENDROOT
BRANCH   6   7
HETATM    7  C   UNK N   1      25.411  18.720   4.982  0.00  0.00     0.055 C 
HETATM    8  C   UNK N   1      25.977  19.935   5.701  0.00  0.00    -0.014 C 
HETATM    9  C   UNK N   1      27.180  20.462   5.423  0.00  0.00    -0.087 C 
HETATM   10  C   UNK N   1      28.073  19.867   4.375  0.00  0.00     0.034 C 
HETATM   11  C   UNK N   1      27.638  21.671   6.161  0.00  0.00     0.043 C 
HETATM   12  C   UNK N   1      27.843  18.371   4.272  0.00  0.00     0.014 C 
HETATM   13  C   UNK N   1      26.378  18.110   3.925  0.00  0.00     0.026 C 
BRANCH  13  14
HETATM   14  C   UNK N   1      26.192  16.630   3.736  0.00  0.00    -0.088 C 
HETATM   15  C   UNK N   1      26.128  15.804   4.784  0.00  0.00     0.014 C 
HETATM   16  C   UNK N   1      26.139  16.066   2.358  0.00  0.00     0.043 C 
ENDBRANCH  13  14
ENDBRANCH   6   7
BRANCH   4  17
HETATM   17  O   UNK N   1      23.004  17.311   5.977  0.00  0.00    -0.360 OA
HETATM   18  H   UNK N   1      23.746  16.743   6.036  0.00  0.00     0.217 HD
ENDBRANCH   4  17
BRANCH   5  19
HETATM   19  O   UNK N   1      24.746  20.532   2.848  0.00  0.00    -0.360 OA
HETATM   20  H   UNK N   1      25.029  20.543   1.956  0.00  0.00     0.217 HD
ENDBRANCH   5  19
BRANCH   2  21
HETATM   21  C   UNK N   1      20.004  19.493   2.862  0.00  0.00     0.039 C 
BRANCH  21  22
HETATM   22  C   UNK N   1      19.419  18.151   2.442  0.00  0.00     0.005 C 
BRANCH  22  23
HETATM   23  C   UNK N   1      20.121  17.629   1.206  0.00  0.00    -0.000 C 
BRANCH  23  24
HETATM   24  C   UNK N   1      20.135  16.113   1.231  0.00  0.00    -0.005 C 
HETATM   25  C   UNK N   1      21.321  15.629   2.036  0.00  0.00     0.005 C 
ENDBRANCH  23  24
ENDBRANCH  22  23
ENDBRANCH  21  22
ENDBRANCH   2  21
TORSDOF 8
ENDMDL
MODEL 7
REMARK VINA RESULT:      -5.9     25.242     29.033
REMARK  8 active torsions:
REMARK  status: ('A' for Active; 'I' for Inactive)
REMARK    1  A    between atoms: C_2  and  C_16 
REMARK    2  A    between atoms: C_4  and  O_15 
REMARK    3  A    between atoms: C_5  and  O_23 
REMARK    4  A    between atoms: C_9  and  C_6 
REMARK    5  A    between atoms: C_8  and  C_7 
REMARK    6  A    between atoms: C_16  and  C_17 
REMARK    7  A    between atoms: C_17  and  C_18 
REMARK    8  A    between atoms: C_18  and  C_19 
ROOT
HETATM    1  C   UNK N   1      35.022  13.185  17.917  0.00  0.00     0.044 A 
HETATM    2  C   UNK N   1      35.296  12.492  16.740  0.00  0.00    -0.053 A 
HETATM    3  C   UNK N   1      35.715  11.168  16.800  0.00  0.00     0.044 A 
HETATM    4  C   UNK N   1      35.866  10.521  18.031  0.00  0.00     0.075 A 
HETATM    5  C   UNK N   1      35.177  12.567  19.160  0.00  0.00     0.075 A 
HETATM    6  C   UNK N   1      35.598  11.217  19.247  0.00  0.00     0.017 A 
ENDROOT
BRANCH   6   7
HETATM    7  C   UNK N   1      35.779  10.563  20.627  0.00  0.00     0.055 C 
HETATM    8  C   UNK N   1      37.235  10.401  21.037  0.00  0.00    -0.014 C 
HETATM    9  C   UNK N   1      37.751   9.246  21.487  0.00  0.00    -0.087 C 
HETATM   10  C   UNK N   1      36.905   8.016  21.635  0.00  0.00     0.034 C 
HETATM   11  C   UNK N   1      39.195   9.177  21.839  0.00  0.00     0.043 C 
HETATM   12  C   UNK N   1      35.470   8.395  21.948  0.00  0.00     0.014 C 
HETATM   13  C   UNK N   1      34.925   9.276  20.824  0.00  0.00     0.026 C 
BRANCH  13  14
HETATM   14  C   UNK N   1      33.477   9.563  21.106  0.00  0.00    -0.088 C 
HETATM   15  C   UNK N   1      32.506   8.900  20.470  0.00  0.00     0.014 C 
HETATM   16  C   UNK N   1      33.115  10.645  22.063  0.00  0.00     0.043 C 
ENDBRANCH  13  14
ENDBRANCH   6   7
BRANCH   4  17
HETATM   17  O   UNK N   1      36.268   9.239  18.024  0.00  0.00    -0.360 OA
HETATM   18  H   UNK N   1      37.171   9.001  18.095  0.00  0.00     0.217 HD
ENDBRANCH   4  17
BRANCH   5  19
HETATM   19  O   UNK N   1      34.942  13.292  20.263  0.00  0.00    -0.360 OA
HETATM   20  H   UNK N   1      35.318  13.205  21.116  0.00  0.00     0.217 HD
ENDBRANCH   5  19
BRANCH   2  21
HETATM   21  C   UNK N   1      35.159  13.165  15.415  0.00  0.00     0.039 C 
BRANCH  21  22
HETATM   22  C   UNK N   1      36.532  13.460  14.825  0.00  0.00     0.005 C 
BRANCH  22  23
HETATM   23  C   UNK N   1      36.805  14.950  14.834  0.00  0.00    -0.000 C 
BRANCH  23  24
HETATM   24  C   UNK N   1      37.584  15.316  16.083  0.00  0.00    -0.005 C 
HETATM   25  C   UNK N   1      36.877  16.435  16.814  0.00  0.00     0.005 C 
ENDBRANCH  23  24
ENDBRANCH  22  23
ENDBRANCH  21  22
ENDBRANCH   2  21
TORSDOF 8
ENDMDL
MODEL 8
REMARK VINA RESULT:      -5.9     17.060     21.124
REMARK  8 active torsions:
REMARK  status: ('A' for Active; 'I' for Inactive)
REMARK    1  A    between atoms: C_2  and  C_16 
REMARK    2  A    between atoms: C_4  and  O_15 
REMARK    3  A    between atoms: C_5  and  O_23 
REMARK    4  A    between atoms: C_9  and  C_6 
REMARK    5  A    between atoms: C_8  and  C_7 
REMARK    6  A    between atoms: C_16  and  C_17 
REMARK    7  A    between atoms: C_17  and  C_18 
REMARK    8  A    between atoms: C_18  and  C_19 
ROOT
HETATM    1  C   UNK N   1      35.361  16.408  10.930  0.00  0.00     0.044 A 
HETATM    2  C   UNK N   1      34.572  16.246   9.793  0.00  0.00    -0.053 A 
HETATM    3  C   UNK N   1      34.062  14.991   9.481  0.00  0.00     0.044 A 
HETATM    4  C   UNK N   1      34.332  13.887  10.296  0.00  0.00     0.075 A 
HETATM    5  C   UNK N   1      35.657  15.320  11.754  0.00  0.00     0.075 A 
HETATM    6  C   UNK N   1      35.144  14.033  11.459  0.00  0.00     0.017 A 
ENDROOT
BRANCH   6   7
HETATM    7  C   UNK N   1      35.498  12.846  12.371  0.00  0.00     0.055 C 
HETATM    8  C   UNK N   1      34.849  12.918  13.744  0.00  0.00    -0.014 C 
HETATM    9  C   UNK N   1      35.530  12.764  14.892  0.00  0.00    -0.087 C 
HETATM   10  C   UNK N   1      37.004  12.487  14.896  0.00  0.00     0.034 C 
HETATM   11  C   UNK N   1      34.811  12.880  16.190  0.00  0.00     0.043 C 
HETATM   12  C   UNK N   1      37.401  11.715  13.652  0.00  0.00     0.014 C 
HETATM   13  C   UNK N   1      37.022  12.526  12.414  0.00  0.00     0.026 C 
BRANCH  13  14
HETATM   14  C   UNK N   1      37.506  11.787  11.197  0.00  0.00    -0.088 C 
HETATM   15  C   UNK N   1      38.406  12.333  10.372  0.00  0.00     0.014 C 
HETATM   16  C   UNK N   1      36.932  10.453  10.871  0.00  0.00     0.043 C 
ENDBRANCH  13  14
ENDBRANCH   6   7
BRANCH   4  17
HETATM   17  O   UNK N   1      33.805  12.701   9.946  0.00  0.00    -0.360 OA
HETATM   18  H   UNK N   1      34.272  11.897  10.063  0.00  0.00     0.217 HD
ENDBRANCH   4  17
BRANCH   5  19
HETATM   19  O   UNK N   1      36.456  15.523  12.811  0.00  0.00    -0.360 OA
HETATM   20  H   UNK N   1      36.772  14.904  13.438  0.00  0.00     0.217 HD
ENDBRANCH   5  19
BRANCH   2  21
HETATM   21  C   UNK N   1      34.284  17.405   8.898  0.00  0.00     0.039 C 
BRANCH  21  22
HETATM   22  C   UNK N   1      34.376  16.984   7.438  0.00  0.00     0.005 C 
BRANCH  22  23
HETATM   23  C   UNK N   1      33.265  17.621   6.630  0.00  0.00    -0.000 C 
BRANCH  23  24
HETATM   24  C   UNK N   1      33.425  17.255   5.167  0.00  0.00    -0.005 C 
HETATM   25  C   UNK N   1      32.182  17.653   4.403  0.00  0.00     0.005 C 
ENDBRANCH  23  24
ENDBRANCH  22  23
ENDBRANCH  21  22
ENDBRANCH   2  21
TORSDOF 8
ENDMDL
MODEL 9
REMARK VINA RESULT:      -5.9     10.607     13.294
REMARK  8 active torsions:
REMARK  status: ('A' for Active; 'I' for Inactive)
REMARK    1  A    between atoms: C_2  and  C_16 
REMARK    2  A    between atoms: C_4  and  O_15 
REMARK    3  A    between atoms: C_5  and  O_23 
REMARK    4  A    between atoms: C_9  and  C_6 
REMARK    5  A    between atoms: C_8  and  C_7 
REMARK    6  A    between atoms: C_16  and  C_17 
REMARK    7  A    between atoms: C_17  and  C_18 
REMARK    8  A    between atoms: C_18  and  C_19 
ROOT
HETATM    1  C   UNK N   1      31.446  17.168   5.880  0.00  0.00     0.044 A 
HETATM    2  C   UNK N   1      31.046  17.288   7.209  0.00  0.00    -0.053 A 
HETATM    3  C   UNK N   1      29.702  17.476   7.511  0.00  0.00     0.044 A 
HETATM    4  C   UNK N   1      28.744  17.547   6.494  0.00  0.00     0.075 A 
HETATM    5  C   UNK N   1      30.513  17.247   4.845  0.00  0.00     0.075 A 
HETATM    6  C   UNK N   1      29.137  17.434   5.127  0.00  0.00     0.017 A 
ENDROOT
BRANCH   6   7
HETATM    7  C   UNK N   1      28.130  17.537   3.970  0.00  0.00     0.055 C 
HETATM    8  C   UNK N   1      27.446  18.893   3.876  0.00  0.00    -0.014 C 
HETATM    9  C   UNK N   1      26.115  19.044   3.778  0.00  0.00    -0.087 C 
HETATM   10  C   UNK N   1      25.195  17.861   3.736  0.00  0.00     0.034 C 
HETATM   11  C   UNK N   1      25.537  20.414   3.721  0.00  0.00     0.043 C 
HETATM   12  C   UNK N   1      25.887  16.674   3.093  0.00  0.00     0.014 C 
HETATM   13  C   UNK N   1      27.145  16.333   3.890  0.00  0.00     0.026 C 
BRANCH  13  14
HETATM   14  C   UNK N   1      27.765  15.100   3.293  0.00  0.00    -0.088 C 
HETATM   15  C   UNK N   1      27.792  14.913   1.970  0.00  0.00     0.014 C 
HETATM   16  C   UNK N   1      28.303  14.041   4.191  0.00  0.00     0.043 C 
ENDBRANCH  13  14
ENDBRANCH   6   7
BRANCH   4  17
HETATM   17  O   UNK N   1      27.460  17.724   6.848  0.00  0.00    -0.360 OA
HETATM   18  H   UNK N   1      26.805  17.980   6.228  0.00  0.00     0.217 HD
ENDBRANCH   4  17
BRANCH   5  19
HETATM   19  O   UNK N   1      30.956  17.168   3.583  0.00  0.00    -0.360 OA
HETATM   20  H   UNK N   1      30.658  17.628   2.823  0.00  0.00     0.217 HD
ENDBRANCH   5  19
BRANCH   2  21
HETATM   21  C   UNK N   1      32.050  17.233   8.312  0.00  0.00     0.039 C 
BRANCH  21  22
HETATM   22  C   UNK N   1      33.141  18.272   8.089  0.00  0.00     0.005 C 
BRANCH  22  23
HETATM   23  C   UNK N   1      34.501  17.694   8.420  0.00  0.00    -0.000 C 
BRANCH  23  24
HETATM   24  C   UNK N   1      34.338  16.520   9.366  0.00  0.00    -0.005 C 
HETATM   25  C   UNK N   1      35.256  16.693  10.556  0.00  0.00     0.005 C 
ENDBRANCH  23  24
ENDBRANCH  22  23
ENDBRANCH  21  22
ENDBRANCH   2  21
TORSDOF 8
ENDMDL
