MODEL 1
REMARK VINA RESULT:      -8.1      0.000      0.000
REMARK  6 active torsions:
REMARK  status: ('A' for Active; 'I' for Inactive)
REMARK    1  A    between atoms: C_2  and  C_3 
REMARK       I    between atoms: C_2  and  N_21 
REMARK    2  A    between atoms: C_7  and  C_8 
REMARK    3  A    between atoms: C_11  and  O_14 
REMARK    4  A    between atoms: O_14  and  C_15 
REMARK    5  A    between atoms: N_21  and  C_22 
REMARK    6  A    between atoms: C_25  and  N_29 
ROOT
HETATM    1  O   UNK N   1      25.378  22.307  -7.092  0.00  0.00    -0.267 OA
HETATM    2  C   UNK N   1      25.772  23.432  -6.859  0.00  0.00     0.256 C 
HETATM    3  N   UNK N   1      25.536  24.425  -7.776  0.00  0.00    -0.322 N 
HETATM    4  H   UNK N   1      24.922  24.260  -8.528  0.00  0.00     0.169 HD
ENDROOT
BRANCH   2   5
HETATM    5  C   UNK N   1      26.544  23.704  -5.580  0.00  0.00     0.039 A 
HETATM    6  C   UNK N   1      25.943  24.417  -4.524  0.00  0.00     0.017 A 
HETATM    7  C   UNK N   1      26.655  24.743  -3.372  0.00  0.00     0.002 A 
HETATM    8  C   UNK N   1      27.968  24.316  -3.228  0.00  0.00     0.013 A 
HETATM    9  C   UNK N   1      28.600  23.575  -4.238  0.00  0.00    -0.019 A 
HETATM   10  C   UNK N   1      27.880  23.284  -5.443  0.00  0.00    -0.035 A 
HETATM   11  C   UNK N   1      28.511  22.566  -6.599  0.00  0.00     0.050 C 
BRANCH   9  12
HETATM   12  C   UNK N   1      29.922  22.960  -3.931  0.00  0.00    -0.025 C 
HETATM   13  C   UNK N   1      30.018  21.597  -3.582  0.00  0.00     0.015 C 
HETATM   14  C   UNK N   1      31.237  20.920  -3.734  0.00  0.00     0.038 C 
HETATM   15  C   UNK N   1      32.342  21.597  -4.264  0.00  0.00     0.078 C 
HETATM   16  C   UNK N   1      32.268  22.971  -4.483  0.00  0.00     0.038 C 
HETATM   17  C   UNK N   1      31.078  23.635  -4.313  0.00  0.00     0.015 C 
BRANCH  15  18
HETATM   18  O   UNK N   1      33.419  20.902  -4.697  0.00  0.00    -0.255 OA
BRANCH  18  19
HETATM   19  C   UNK N   1      34.341  20.367  -3.807  0.00  0.00     0.530 C 
HETATM   20  F   UNK N   1      34.174  20.940  -2.565  0.00  0.00    -0.144 F 
HETATM   21  F   UNK N   1      34.136  18.998  -3.692  0.00  0.00    -0.144 F 
HETATM   22  F   UNK N   1      35.637  20.595  -4.240  0.00  0.00    -0.144 F 
ENDBRANCH  18  19
ENDBRANCH  15  18
ENDBRANCH   9  12
ENDBRANCH   2   5
BRANCH   3  23
HETATM   23  C   UNK N   1      26.168  25.679  -7.647  0.00  0.00     0.050 C 
HETATM   24  C   UNK N   1      25.560  26.665  -6.873  0.00  0.00     0.035 C 
HETATM   25  C   UNK N   1      26.347  27.660  -6.298  0.00  0.00     0.051 C 
HETATM   26  C   UNK N   1      27.739  27.598  -6.453  0.00  0.00     0.103 C 
HETATM   27  N   UNK N   1      28.291  26.695  -7.303  0.00  0.00    -0.350 N 
HETATM   28  C   UNK N   1      27.537  25.774  -7.932  0.00  0.00     0.119 C 
ATOM     29  HN  UNK N   1      29.297  26.715  -7.469  1.00  0.00     0.166 HD
BRANCH  26  30
HETATM   30  N   UNK N   1      28.582  28.391  -5.657  0.00  0.00    -0.362 N 
HETATM   31  C   UNK N   1      29.878  27.921  -5.289  0.00  0.00     0.156 C 
HETATM   32  C   UNK N   1      29.752  27.595  -3.808  0.00  0.00     0.136 C 
HETATM   33  O   UNK N   1      29.403  28.759  -3.062  0.00  0.00    -0.378 OA
HETATM   34  C   UNK N   1      31.071  27.055  -3.313  0.00  0.00     0.041 C 
HETATM   35  C   UNK N   1      28.142  29.297  -3.455  0.00  0.00     0.136 C 
HETATM   36  C   UNK N   1      28.057  29.536  -4.957  0.00  0.00     0.156 C 
HETATM   37  C   UNK N   1      26.977  28.440  -2.978  0.00  0.00     0.041 C 
ENDBRANCH  26  30
ENDBRANCH   3  23
TORSDOF 6
ENDMDL
MODEL 2
REMARK VINA RESULT:      -8.0     14.503     18.366
REMARK  6 active torsions:
REMARK  status: ('A' for Active; 'I' for Inactive)
REMARK    1  A    between atoms: C_2  and  C_3 
REMARK       I    between atoms: C_2  and  N_21 
REMARK    2  A    between atoms: C_7  and  C_8 
REMARK    3  A    between atoms: C_11  and  O_14 
REMARK    4  A    between atoms: O_14  and  C_15 
REMARK    5  A    between atoms: N_21  and  C_22 
REMARK    6  A    between atoms: C_25  and  N_29 
ROOT
HETATM    1  O   UNK N   1      34.840  19.080   8.367  0.00  0.00    -0.267 OA
HETATM    2  C   UNK N   1      34.434  17.936   8.299  0.00  0.00     0.256 C 
HETATM    3  N   UNK N   1      34.820  17.033   9.257  0.00  0.00    -0.322 N 
HETATM    4  H   UNK N   1      35.285  17.348  10.066  0.00  0.00     0.169 HD
ENDROOT
BRANCH   2   5
HETATM    5  C   UNK N   1      33.540  17.529   7.141  0.00  0.00     0.039 A 
HETATM    6  C   UNK N   1      34.100  17.183   5.896  0.00  0.00     0.017 A 
HETATM    7  C   UNK N   1      33.298  16.878   4.799  0.00  0.00     0.002 A 
HETATM    8  C   UNK N   1      31.917  16.862   4.938  0.00  0.00     0.013 A 
HETATM    9  C   UNK N   1      31.312  17.167   6.167  0.00  0.00    -0.019 A 
HETATM   10  C   UNK N   1      32.140  17.528   7.280  0.00  0.00    -0.035 A 
HETATM   11  C   UNK N   1      31.565  17.945   8.602  0.00  0.00     0.050 C 
BRANCH   9  12
HETATM   12  C   UNK N   1      29.850  16.915   6.308  0.00  0.00    -0.025 C 
HETATM   13  C   UNK N   1      28.948  17.984   6.481  0.00  0.00     0.015 C 
HETATM   14  C   UNK N   1      27.592  17.814   6.167  0.00  0.00     0.038 C 
HETATM   15  C   UNK N   1      27.151  16.589   5.650  0.00  0.00     0.078 C 
HETATM   16  C   UNK N   1      28.025  15.506   5.605  0.00  0.00     0.038 C 
HETATM   17  C   UNK N   1      29.348  15.671   5.933  0.00  0.00     0.015 C 
BRANCH  15  18
HETATM   18  O   UNK N   1      25.934  16.501   5.065  0.00  0.00    -0.255 OA
BRANCH  18  19
HETATM   19  C   UNK N   1      25.713  16.977   3.779  0.00  0.00     0.530 C 
HETATM   20  F   UNK N   1      25.261  18.277   3.836  0.00  0.00    -0.144 F 
HETATM   21  F   UNK N   1      26.905  16.955   3.066  0.00  0.00    -0.144 F 
HETATM   22  F   UNK N   1      24.777  16.199   3.117  0.00  0.00    -0.144 F 
ENDBRANCH  18  19
ENDBRANCH  15  18
ENDBRANCH   9  12
ENDBRANCH   2   5
BRANCH   3  23
HETATM   23  C   UNK N   1      34.556  15.659   9.088  0.00  0.00     0.050 C 
HETATM   24  C   UNK N   1      35.450  14.885   8.352  0.00  0.00     0.035 C 
HETATM   25  C   UNK N   1      35.528  13.516   8.599  0.00  0.00     0.051 C 
HETATM   26  C   UNK N   1      34.758  12.968   9.635  0.00  0.00     0.103 C 
HETATM   27  N   UNK N   1      33.816  13.722  10.256  0.00  0.00    -0.350 N 
HETATM   28  C   UNK N   1      33.669  15.031   9.975  0.00  0.00     0.119 C 
ATOM     29  HN  UNK N   1      33.207  13.290  10.950  1.00  0.00     0.166 HD
BRANCH  26  30
HETATM   30  N   UNK N   1      35.022  11.674  10.111  0.00  0.00    -0.362 N 
HETATM   31  C   UNK N   1      34.120  11.045  11.021  0.00  0.00     0.156 C 
HETATM   32  C   UNK N   1      34.862  11.056  12.350  0.00  0.00     0.136 C 
HETATM   33  O   UNK N   1      36.081  10.324  12.256  0.00  0.00    -0.378 OA
HETATM   34  C   UNK N   1      33.980  10.433  13.406  0.00  0.00     0.041 C 
HETATM   35  C   UNK N   1      36.978  10.888  11.300  0.00  0.00     0.136 C 
HETATM   36  C   UNK N   1      36.326  11.085   9.939  0.00  0.00     0.156 C 
HETATM   37  C   UNK N   1      37.603  12.186  11.793  0.00  0.00     0.041 C 
ENDBRANCH  26  30
ENDBRANCH   3  23
TORSDOF 6
ENDMDL
MODEL 3
REMARK VINA RESULT:      -7.9     15.032     18.701
REMARK  6 active torsions:
REMARK  status: ('A' for Active; 'I' for Inactive)
REMARK    1  A    between atoms: C_2  and  C_3 
REMARK       I    between atoms: C_2  and  N_21 
REMARK    2  A    between atoms: C_7  and  C_8 
REMARK    3  A    between atoms: C_11  and  O_14 
REMARK    4  A    between atoms: O_14  and  C_15 
REMARK    5  A    between atoms: N_21  and  C_22 
REMARK    6  A    between atoms: C_25  and  N_29 
ROOT
HETATM    1  O   UNK N   1      34.357  14.908   4.752  0.00  0.00    -0.267 OA
HETATM    2  C   UNK N   1      34.428  14.960   5.965  0.00  0.00     0.256 C 
HETATM    3  N   UNK N   1      35.111  13.978   6.635  0.00  0.00    -0.322 N 
HETATM    4  H   UNK N   1      35.663  13.335   6.133  0.00  0.00     0.169 HD
ENDROOT
BRANCH   2   5
HETATM    5  C   UNK N   1      33.734  16.089   6.706  0.00  0.00     0.039 A 
HETATM    6  C   UNK N   1      34.488  17.050   7.408  0.00  0.00     0.017 A 
HETATM    7  C   UNK N   1      33.872  18.049   8.157  0.00  0.00     0.002 A 
HETATM    8  C   UNK N   1      32.487  18.142   8.177  0.00  0.00     0.013 A 
HETATM    9  C   UNK N   1      31.692  17.228   7.468  0.00  0.00    -0.019 A 
HETATM   10  C   UNK N   1      32.330  16.171   6.738  0.00  0.00    -0.035 A 
HETATM   11  C   UNK N   1      31.548  15.110   6.021  0.00  0.00     0.050 C 
BRANCH   9  12
HETATM   12  C   UNK N   1      30.235  17.515   7.348  0.00  0.00    -0.025 C 
HETATM   13  C   UNK N   1      29.516  18.055   8.434  0.00  0.00     0.015 C 
HETATM   14  C   UNK N   1      28.309  18.730   8.206  0.00  0.00     0.038 C 
HETATM   15  C   UNK N   1      27.843  18.893   6.895  0.00  0.00     0.078 C 
HETATM   16  C   UNK N   1      28.495  18.245   5.848  0.00  0.00     0.038 C 
HETATM   17  C   UNK N   1      29.667  17.567   6.078  0.00  0.00     0.015 C 
BRANCH  15  18
HETATM   18  O   UNK N   1      26.862  19.785   6.631  0.00  0.00    -0.255 OA
BRANCH  18  19
HETATM   19  C   UNK N   1      27.145  21.036   6.098  0.00  0.00     0.530 C 
HETATM   20  F   UNK N   1      28.400  21.439   6.500  0.00  0.00    -0.144 F 
HETATM   21  F   UNK N   1      27.129  20.965   4.711  0.00  0.00    -0.144 F 
HETATM   22  F   UNK N   1      26.214  21.975   6.513  0.00  0.00    -0.144 F 
ENDBRANCH  18  19
ENDBRANCH  15  18
ENDBRANCH   9  12
ENDBRANCH   2   5
BRANCH   3  23
HETATM   23  C   UNK N   1      35.025  13.881   8.040  0.00  0.00     0.050 C 
HETATM   24  C   UNK N   1      34.086  13.020   8.601  0.00  0.00     0.035 C 
HETATM   25  C   UNK N   1      34.311  12.504   9.875  0.00  0.00     0.051 C 
HETATM   26  C   UNK N   1      35.515  12.806  10.526  0.00  0.00     0.103 C 
HETATM   27  N   UNK N   1      36.357  13.736  10.006  0.00  0.00    -0.350 N 
HETATM   28  C   UNK N   1      36.116  14.307   8.810  0.00  0.00     0.119 C 
ATOM     29  HN  UNK N   1      37.189  14.006  10.530  1.00  0.00     0.166 HD
BRANCH  26  30
HETATM   30  N   UNK N   1      35.914  12.082  11.661  0.00  0.00    -0.362 N 
HETATM   31  C   UNK N   1      35.015  11.163  12.281  0.00  0.00     0.156 C 
HETATM   32  C   UNK N   1      34.612  11.851  13.578  0.00  0.00     0.136 C 
HETATM   33  O   UNK N   1      35.751  12.082  14.403  0.00  0.00    -0.378 OA
HETATM   34  C   UNK N   1      33.628  10.972  14.311  0.00  0.00     0.041 C 
HETATM   35  C   UNK N   1      36.704  12.942  13.782  0.00  0.00     0.136 C 
HETATM   36  C   UNK N   1      37.097  12.463  12.391  0.00  0.00     0.156 C 
HETATM   37  C   UNK N   1      36.234  14.390  13.742  0.00  0.00     0.041 C 
ENDBRANCH  26  30
ENDBRANCH   3  23
TORSDOF 6
ENDMDL
MODEL 4
REMARK VINA RESULT:      -7.8     13.093     15.688
REMARK  6 active torsions:
REMARK  status: ('A' for Active; 'I' for Inactive)
REMARK    1  A    between atoms: C_2  and  C_3 
REMARK       I    between atoms: C_2  and  N_21 
REMARK    2  A    between atoms: C_7  and  C_8 
REMARK    3  A    between atoms: C_11  and  O_14 
REMARK    4  A    between atoms: O_14  and  C_15 
REMARK    5  A    between atoms: N_21  and  C_22 
REMARK    6  A    between atoms: C_25  and  N_29 
ROOT
HETATM    1  O   UNK N   1      26.662  19.380   4.945  0.00  0.00    -0.267 OA
HETATM    2  C   UNK N   1      26.479  18.178   4.923  0.00  0.00     0.256 C 
HETATM    3  N   UNK N   1      25.328  17.670   5.471  0.00  0.00    -0.322 N 
HETATM    4  H   UNK N   1      24.599  18.279   5.731  0.00  0.00     0.169 HD
ENDROOT
BRANCH   2   5
HETATM    5  C   UNK N   1      27.538  17.271   4.322  0.00  0.00     0.039 A 
HETATM    6  C   UNK N   1      27.235  16.464   3.208  0.00  0.00     0.017 A 
HETATM    7  C   UNK N   1      28.167  15.570   2.686  0.00  0.00     0.002 A 
HETATM    8  C   UNK N   1      29.440  15.500   3.235  0.00  0.00     0.013 A 
HETATM    9  C   UNK N   1      29.800  16.307   4.326  0.00  0.00    -0.019 A 
HETATM   10  C   UNK N   1      28.822  17.191   4.891  0.00  0.00    -0.035 A 
HETATM   11  C   UNK N   1      29.105  18.026   6.105  0.00  0.00     0.050 C 
BRANCH   9  12
HETATM   12  C   UNK N   1      31.235  16.348   4.722  0.00  0.00    -0.025 C 
HETATM   13  C   UNK N   1      32.097  17.336   4.203  0.00  0.00     0.015 C 
HETATM   14  C   UNK N   1      33.280  17.660   4.883  0.00  0.00     0.038 C 
HETATM   15  C   UNK N   1      33.578  17.022   6.094  0.00  0.00     0.078 C 
HETATM   16  C   UNK N   1      32.785  15.961   6.527  0.00  0.00     0.038 C 
HETATM   17  C   UNK N   1      31.639  15.633   5.846  0.00  0.00     0.015 C 
BRANCH  15  18
HETATM   18  O   UNK N   1      34.536  17.525   6.906  0.00  0.00    -0.255 OA
BRANCH  18  19
HETATM   19  C   UNK N   1      34.214  18.162   8.098  0.00  0.00     0.530 C 
HETATM   20  F   UNK N   1      35.110  19.180   8.337  0.00  0.00    -0.144 F 
HETATM   21  F   UNK N   1      32.941  18.709   8.001  0.00  0.00    -0.144 F 
HETATM   22  F   UNK N   1      34.244  17.272   9.159  0.00  0.00    -0.144 F 
ENDBRANCH  18  19
ENDBRANCH  15  18
ENDBRANCH   9  12
ENDBRANCH   2   5
BRANCH   3  23
HETATM   23  C   UNK N   1      25.185  16.280   5.665  0.00  0.00     0.050 C 
HETATM   24  C   UNK N   1      25.849  15.675   6.729  0.00  0.00     0.035 C 
HETATM   25  C   UNK N   1      25.343  14.493   7.264  0.00  0.00     0.051 C 
HETATM   26  C   UNK N   1      24.136  13.985   6.764  0.00  0.00     0.103 C 
HETATM   27  N   UNK N   1      23.573  14.530   5.655  0.00  0.00    -0.350 N 
HETATM   28  C   UNK N   1      24.093  15.628   5.075  0.00  0.00     0.119 C 
ATOM     29  HN  UNK N   1      22.740  14.100   5.254  1.00  0.00     0.166 HD
BRANCH  26  30
HETATM   30  N   UNK N   1      23.443  12.980   7.458  0.00  0.00    -0.362 N 
HETATM   31  C   UNK N   1      22.093  13.191   7.871  0.00  0.00     0.156 C 
HETATM   32  C   UNK N   1      22.185  13.361   9.381  0.00  0.00     0.136 C 
HETATM   33  O   UNK N   1      22.726  12.191   9.989  0.00  0.00    -0.378 OA
HETATM   34  C   UNK N   1      20.803  13.622   9.928  0.00  0.00     0.041 C 
HETATM   35  C   UNK N   1      24.052  11.911   9.543  0.00  0.00     0.136 C 
HETATM   36  C   UNK N   1      24.154  11.862   8.025  0.00  0.00     0.156 C 
HETATM   37  C   UNK N   1      25.071  12.883  10.122  0.00  0.00     0.041 C 
ENDBRANCH  26  30
ENDBRANCH   3  23
TORSDOF 6
ENDMDL
MODEL 5
REMARK VINA RESULT:      -7.7     14.369     17.958
REMARK  6 active torsions:
REMARK  status: ('A' for Active; 'I' for Inactive)
REMARK    1  A    between atoms: C_2  and  C_3 
REMARK       I    between atoms: C_2  and  N_21 
REMARK    2  A    between atoms: C_7  and  C_8 
REMARK    3  A    between atoms: C_11  and  O_14 
REMARK    4  A    between atoms: O_14  and  C_15 
REMARK    5  A    between atoms: N_21  and  C_22 
REMARK    6  A    between atoms: C_25  and  N_29 
ROOT
HETATM    1  O   UNK N   1      34.210  17.966   5.844  0.00  0.00    -0.267 OA
HETATM    2  C   UNK N   1      33.841  17.425   6.869  0.00  0.00     0.256 C 
HETATM    3  N   UNK N   1      34.760  16.755   7.636  0.00  0.00    -0.322 N 
HETATM    4  H   UNK N   1      35.721  16.849   7.442  0.00  0.00     0.169 HD
ENDROOT
BRANCH   2   5
HETATM    5  C   UNK N   1      32.374  17.475   7.254  0.00  0.00     0.039 A 
HETATM    6  C   UNK N   1      31.983  17.995   8.504  0.00  0.00     0.017 A 
HETATM    7  C   UNK N   1      30.651  17.982   8.910  0.00  0.00     0.002 A 
HETATM    8  C   UNK N   1      29.673  17.497   8.053  0.00  0.00     0.013 A 
HETATM    9  C   UNK N   1      30.008  16.997   6.785  0.00  0.00    -0.019 A 
HETATM   10  C   UNK N   1      31.386  16.967   6.390  0.00  0.00    -0.035 A 
HETATM   11  C   UNK N   1      31.832  16.376   5.085  0.00  0.00     0.050 C 
BRANCH   9  12
HETATM   12  C   UNK N   1      28.900  16.702   5.834  0.00  0.00    -0.025 C 
HETATM   13  C   UNK N   1      28.432  17.691   4.944  0.00  0.00     0.015 C 
HETATM   14  C   UNK N   1      27.741  17.317   3.783  0.00  0.00     0.038 C 
HETATM   15  C   UNK N   1      27.551  15.959   3.498  0.00  0.00     0.078 C 
HETATM   16  C   UNK N   1      27.904  15.001   4.447  0.00  0.00     0.038 C 
HETATM   17  C   UNK N   1      28.562  15.373   5.593  0.00  0.00     0.015 C 
BRANCH  15  18
HETATM   18  O   UNK N   1      27.166  15.574   2.260  0.00  0.00    -0.255 OA
BRANCH  18  19
HETATM   19  C   UNK N   1      25.853  15.209   1.991  0.00  0.00     0.530 C 
HETATM   20  F   UNK N   1      25.550  15.500   0.679  0.00  0.00    -0.144 F 
HETATM   21  F   UNK N   1      25.702  13.843   2.186  0.00  0.00    -0.144 F 
HETATM   22  F   UNK N   1      24.971  15.885   2.820  0.00  0.00    -0.144 F 
ENDBRANCH  18  19
ENDBRANCH  15  18
ENDBRANCH   9  12
ENDBRANCH   2   5
BRANCH   3  23
HETATM   23  C   UNK N   1      34.336  15.934   8.701  0.00  0.00     0.050 C 
HETATM   24  C   UNK N   1      34.007  14.606   8.439  0.00  0.00     0.035 C 
HETATM   25  C   UNK N   1      34.107  13.666   9.461  0.00  0.00     0.051 C 
HETATM   26  C   UNK N   1      34.609  14.068  10.707  0.00  0.00     0.103 C 
HETATM   27  N   UNK N   1      34.813  15.385  10.966  0.00  0.00    -0.350 N 
HETATM   28  C   UNK N   1      34.645  16.321  10.013  0.00  0.00     0.119 C 
ATOM     29  HN  UNK N   1      35.100  15.672  11.902  1.00  0.00     0.166 HD
BRANCH  26  30
HETATM   30  N   UNK N   1      35.004  13.115  11.659  0.00  0.00    -0.362 N 
HETATM   31  C   UNK N   1      35.012  13.444  13.048  0.00  0.00     0.156 C 
HETATM   32  C   UNK N   1      36.489  13.553  13.399  0.00  0.00     0.136 C 
HETATM   33  O   UNK N   1      37.156  12.316  13.167  0.00  0.00    -0.378 OA
HETATM   34  C   UNK N   1      36.617  13.931  14.854  0.00  0.00     0.041 C 
HETATM   35  C   UNK N   1      37.106  11.921  11.796  0.00  0.00     0.136 C 
HETATM   36  C   UNK N   1      35.685  11.913  11.248  0.00  0.00     0.156 C 
HETATM   37  C   UNK N   1      38.018  12.767  10.920  0.00  0.00     0.041 C 
ENDBRANCH  26  30
ENDBRANCH   3  23
TORSDOF 6
ENDMDL
MODEL 6
REMARK VINA RESULT:      -7.6     12.277     15.622
REMARK  6 active torsions:
REMARK  status: ('A' for Active; 'I' for Inactive)
REMARK    1  A    between atoms: C_2  and  C_3 
REMARK       I    between atoms: C_2  and  N_21 
REMARK    2  A    between atoms: C_7  and  C_8 
REMARK    3  A    between atoms: C_11  and  O_14 
REMARK    4  A    between atoms: O_14  and  C_15 
REMARK    5  A    between atoms: N_21  and  C_22 
REMARK    6  A    between atoms: C_25  and  N_29 
ROOT
HETATM    1  O   UNK N   1      32.193  13.117   1.709  0.00  0.00    -0.267 OA
HETATM    2  C   UNK N   1      32.610  13.484   2.790  0.00  0.00     0.256 C 
HETATM    3  N   UNK N   1      33.323  12.603   3.563  0.00  0.00    -0.322 N 
HETATM    4  H   UNK N   1      33.623  11.747   3.179  0.00  0.00     0.169 HD
ENDROOT
BRANCH   2   5
HETATM    5  C   UNK N   1      32.304  14.891   3.271  0.00  0.00     0.039 A 
HETATM    6  C   UNK N   1      33.251  15.921   3.107  0.00  0.00     0.017 A 
HETATM    7  C   UNK N   1      33.024  17.201   3.607  0.00  0.00     0.002 A 
HETATM    8  C   UNK N   1      31.821  17.493   4.235  0.00  0.00     0.013 A 
HETATM    9  C   UNK N   1      30.833  16.510   4.394  0.00  0.00    -0.019 A 
HETATM   10  C   UNK N   1      31.091  15.181   3.922  0.00  0.00    -0.035 A 
HETATM   11  C   UNK N   1      30.118  14.056   4.126  0.00  0.00     0.050 C 
BRANCH   9  12
HETATM   12  C   UNK N   1      29.489  16.940   4.871  0.00  0.00    -0.025 C 
HETATM   13  C   UNK N   1      29.282  17.289   6.222  0.00  0.00     0.015 C 
HETATM   14  C   UNK N   1      28.194  18.099   6.576  0.00  0.00     0.038 C 
HETATM   15  C   UNK N   1      27.339  18.585   5.578  0.00  0.00     0.078 C 
HETATM   16  C   UNK N   1      27.481  18.130   4.269  0.00  0.00     0.038 C 
HETATM   17  C   UNK N   1      28.536  17.319   3.930  0.00  0.00     0.015 C 
BRANCH  15  18
HETATM   18  O   UNK N   1      26.483  19.595   5.853  0.00  0.00    -0.255 OA
BRANCH  18  19
HETATM   19  C   UNK N   1      26.764  20.904   5.483  0.00  0.00     0.530 C 
HETATM   20  F   UNK N   1      28.122  21.125   5.552  0.00  0.00    -0.144 F 
HETATM   21  F   UNK N   1      26.350  21.114   4.174  0.00  0.00    -0.144 F 
HETATM   22  F   UNK N   1      26.115  21.804   6.312  0.00  0.00    -0.144 F 
ENDBRANCH  18  19
ENDBRANCH  15  18
ENDBRANCH   9  12
ENDBRANCH   2   5
BRANCH   3  23
HETATM   23  C   UNK N   1      33.626  12.915   4.904  0.00  0.00     0.050 C 
HETATM   24  C   UNK N   1      34.660  13.808   5.173  0.00  0.00     0.035 C 
HETATM   25  C   UNK N   1      34.645  14.529   6.364  0.00  0.00     0.051 C 
HETATM   26  C   UNK N   1      33.549  14.391   7.227  0.00  0.00     0.103 C 
HETATM   27  N   UNK N   1      32.615  13.433   6.995  0.00  0.00    -0.350 N 
HETATM   28  C   UNK N   1      32.656  12.670   5.887  0.00  0.00     0.119 C 
ATOM     29  HN  UNK N   1      31.867  13.289   7.673  1.00  0.00     0.166 HD
BRANCH  26  30
HETATM   30  N   UNK N   1      33.346  15.304   8.275  0.00  0.00    -0.362 N 
HETATM   31  C   UNK N   1      33.244  16.701   8.003  0.00  0.00     0.156 C 
HETATM   32  C   UNK N   1      34.550  17.281   8.527  0.00  0.00     0.136 C 
HETATM   33  O   UNK N   1      34.684  17.044   9.926  0.00  0.00    -0.378 OA
HETATM   34  C   UNK N   1      34.565  18.767   8.263  0.00  0.00     0.041 C 
HETATM   35  C   UNK N   1      34.718  15.653  10.239  0.00  0.00     0.136 C 
HETATM   36  C   UNK N   1      33.538  14.896   9.644  0.00  0.00     0.156 C 
HETATM   37  C   UNK N   1      36.035  15.004   9.836  0.00  0.00     0.041 C 
ENDBRANCH  26  30
ENDBRANCH   3  23
TORSDOF 6
ENDMDL
MODEL 7
REMARK VINA RESULT:      -7.6     14.486     18.249
REMARK  6 active torsions:
REMARK  status: ('A' for Active; 'I' for Inactive)
REMARK    1  A    between atoms: C_2  and  C_3 
REMARK       I    between atoms: C_2  and  N_21 
REMARK    2  A    between atoms: C_7  and  C_8 
REMARK    3  A    between atoms: C_11  and  O_14 
REMARK    4  A    between atoms: O_14  and  C_15 
REMARK    5  A    between atoms: N_21  and  C_22 
REMARK    6  A    between atoms: C_25  and  N_29 
ROOT
HETATM    1  O   UNK N   1      34.730  18.954   8.157  0.00  0.00    -0.267 OA
HETATM    2  C   UNK N   1      34.253  17.869   8.427  0.00  0.00     0.256 C 
HETATM    3  N   UNK N   1      35.008  16.966   9.132  0.00  0.00    -0.322 N 
HETATM    4  H   UNK N   1      35.855  17.253   9.545  0.00  0.00     0.169 HD
ENDROOT
BRANCH   2   5
HETATM    5  C   UNK N   1      32.852  17.529   7.951  0.00  0.00     0.039 A 
HETATM    6  C   UNK N   1      31.739  17.774   8.780  0.00  0.00     0.017 A 
HETATM    7  C   UNK N   1      30.453  17.402   8.396  0.00  0.00     0.002 A 
HETATM    8  C   UNK N   1      30.245  16.823   7.152  0.00  0.00     0.013 A 
HETATM    9  C   UNK N   1      31.317  16.588   6.277  0.00  0.00    -0.019 A 
HETATM   10  C   UNK N   1      32.645  16.928   6.696  0.00  0.00    -0.035 A 
HETATM   11  C   UNK N   1      33.850  16.635   5.852  0.00  0.00     0.050 C 
BRANCH   9  12
HETATM   12  C   UNK N   1      31.002  16.176   4.880  0.00  0.00    -0.025 C 
HETATM   13  C   UNK N   1      30.978  14.813   4.520  0.00  0.00     0.015 C 
HETATM   14  C   UNK N   1      30.267  14.403   3.383  0.00  0.00     0.038 C 
HETATM   15  C   UNK N   1      29.555  15.348   2.634  0.00  0.00     0.078 C 
HETATM   16  C   UNK N   1      29.692  16.703   2.927  0.00  0.00     0.038 C 
HETATM   17  C   UNK N   1      30.407  17.103   4.028  0.00  0.00     0.015 C 
BRANCH  15  18
HETATM   18  O   UNK N   1      28.632  14.942   1.732  0.00  0.00    -0.255 OA
BRANCH  18  19
HETATM   19  C   UNK N   1      27.314  14.705   2.102  0.00  0.00     0.530 C 
HETATM   20  F   UNK N   1      27.014  13.373   1.922  0.00  0.00    -0.144 F 
HETATM   21  F   UNK N   1      27.146  15.018   3.444  0.00  0.00    -0.144 F 
HETATM   22  F   UNK N   1      26.442  15.472   1.346  0.00  0.00    -0.144 F 
ENDBRANCH  18  19
ENDBRANCH  15  18
ENDBRANCH   9  12
ENDBRANCH   2   5
BRANCH   3  23
HETATM   23  C   UNK N   1      34.578  15.630   9.268  0.00  0.00     0.050 C 
HETATM   24  C   UNK N   1      35.050  14.675   8.371  0.00  0.00     0.035 C 
HETATM   25  C   UNK N   1      35.095  13.339   8.762  0.00  0.00     0.051 C 
HETATM   26  C   UNK N   1      34.735  13.003  10.074  0.00  0.00     0.103 C 
HETATM   27  N   UNK N   1      34.173  13.934  10.887  0.00  0.00    -0.350 N 
HETATM   28  C   UNK N   1      34.047  15.217  10.498  0.00  0.00     0.119 C 
ATOM     29  HN  UNK N   1      33.840  13.657  11.810  1.00  0.00     0.166 HD
BRANCH  26  30
HETATM   30  N   UNK N   1      35.044  11.737  10.597  0.00  0.00    -0.362 N 
HETATM   31  C   UNK N   1      34.132  11.078  11.475  0.00  0.00     0.156 C 
HETATM   32  C   UNK N   1      34.799  11.162  12.841  0.00  0.00     0.136 C 
HETATM   33  O   UNK N   1      36.061  10.500  12.829  0.00  0.00    -0.378 OA
HETATM   34  C   UNK N   1      33.898  10.514  13.864  0.00  0.00     0.041 C 
HETATM   35  C   UNK N   1      36.975  11.092  11.908  0.00  0.00     0.136 C 
HETATM   36  C   UNK N   1      36.387  11.220  10.509  0.00  0.00     0.156 C 
HETATM   37  C   UNK N   1      37.499  12.434  12.399  0.00  0.00     0.041 C 
ENDBRANCH  26  30
ENDBRANCH   3  23
TORSDOF 6
ENDMDL
MODEL 8
REMARK VINA RESULT:      -7.5      4.609      7.926
REMARK  6 active torsions:
REMARK  status: ('A' for Active; 'I' for Inactive)
REMARK    1  A    between atoms: C_2  and  C_3 
REMARK       I    between atoms: C_2  and  N_21 
REMARK    2  A    between atoms: C_7  and  C_8 
REMARK    3  A    between atoms: C_11  and  O_14 
REMARK    4  A    between atoms: O_14  and  C_15 
REMARK    5  A    between atoms: N_21  and  C_22 
REMARK    6  A    between atoms: C_25  and  N_29 
ROOT
HETATM    1  O   UNK N   1      33.074  21.340  -2.170  0.00  0.00    -0.267 OA
HETATM    2  C   UNK N   1      32.619  21.263  -3.295  0.00  0.00     0.256 C 
HETATM    3  N   UNK N   1      32.773  20.096  -3.998  0.00  0.00    -0.322 N 
HETATM    4  H   UNK N   1      33.104  19.289  -3.541  0.00  0.00     0.169 HD
ENDROOT
BRANCH   2   5
HETATM    5  C   UNK N   1      31.924  22.468  -3.904  0.00  0.00     0.039 A 
HETATM    6  C   UNK N   1      32.672  23.465  -4.562  0.00  0.00     0.017 A 
HETATM    7  C   UNK N   1      32.066  24.614  -5.062  0.00  0.00     0.002 A 
HETATM    8  C   UNK N   1      30.690  24.769  -4.961  0.00  0.00     0.013 A 
HETATM    9  C   UNK N   1      29.898  23.789  -4.343  0.00  0.00    -0.019 A 
HETATM   10  C   UNK N   1      30.532  22.630  -3.786  0.00  0.00    -0.035 A 
HETATM   11  C   UNK N   1      29.764  21.578  -3.041  0.00  0.00     0.050 C 
BRANCH   9  12
HETATM   12  C   UNK N   1      28.418  23.907  -4.466  0.00  0.00    -0.025 C 
HETATM   13  C   UNK N   1      27.654  24.496  -3.437  0.00  0.00     0.015 C 
HETATM   14  C   UNK N   1      26.381  25.011  -3.717  0.00  0.00     0.038 C 
HETATM   15  C   UNK N   1      25.891  24.968  -5.028  0.00  0.00     0.078 C 
HETATM   16  C   UNK N   1      26.599  24.271  -6.006  0.00  0.00     0.038 C 
HETATM   17  C   UNK N   1      27.837  23.750  -5.722  0.00  0.00     0.015 C 
BRANCH  15  18
HETATM   18  O   UNK N   1      24.819  25.716  -5.376  0.00  0.00    -0.255 OA
BRANCH  18  19
HETATM   19  C   UNK N   1      24.910  27.097  -5.498  0.00  0.00     0.530 C 
HETATM   20  F   UNK N   1      25.094  27.663  -4.256  0.00  0.00    -0.144 F 
HETATM   21  F   UNK N   1      26.000  27.421  -6.296  0.00  0.00    -0.144 F 
HETATM   22  F   UNK N   1      23.761  27.621  -6.069  0.00  0.00    -0.144 F 
ENDBRANCH  18  19
ENDBRANCH  15  18
ENDBRANCH   9  12
ENDBRANCH   2   5
BRANCH   3  23
HETATM   23  C   UNK N   1      32.461  20.045  -5.373  0.00  0.00     0.050 C 
HETATM   24  C   UNK N   1      31.130  19.909  -5.758  0.00  0.00     0.035 C 
HETATM   25  C   UNK N   1      30.732  20.376  -7.009  0.00  0.00     0.051 C 
HETATM   26  C   UNK N   1      31.669  21.039  -7.815  0.00  0.00     0.103 C 
HETATM   27  N   UNK N   1      32.980  21.056  -7.463  0.00  0.00    -0.350 N 
HETATM   28  C   UNK N   1      33.398  20.538  -6.293  0.00  0.00     0.119 C 
ATOM     29  HN  UNK N   1      33.663  21.470  -8.098  1.00  0.00     0.166 HD
BRANCH  26  30
HETATM   30  N   UNK N   1      31.251  21.779  -8.933  0.00  0.00    -0.362 N 
HETATM   31  C   UNK N   1      31.309  23.205  -8.915  0.00  0.00     0.156 C 
HETATM   32  C   UNK N   1      29.853  23.637  -8.813  0.00  0.00     0.136 C 
HETATM   33  O   UNK N   1      29.107  23.173  -9.935  0.00  0.00    -0.378 OA
HETATM   34  C   UNK N   1      29.794  25.144  -8.756  0.00  0.00     0.041 C 
HETATM   35  C   UNK N   1      29.090  21.749 -10.023  0.00  0.00     0.136 C 
HETATM   36  C   UNK N   1      30.488  21.149  -9.980  0.00  0.00     0.156 C 
HETATM   37  C   UNK N   1      28.199  21.118  -8.961  0.00  0.00     0.041 C 
ENDBRANCH  26  30
ENDBRANCH   3  23
TORSDOF 6
ENDMDL
MODEL 9
REMARK VINA RESULT:      -7.4     13.334     17.371
REMARK  6 active torsions:
REMARK  status: ('A' for Active; 'I' for Inactive)
REMARK    1  A    between atoms: C_2  and  C_3 
REMARK       I    between atoms: C_2  and  N_21 
REMARK    2  A    between atoms: C_7  and  C_8 
REMARK    3  A    between atoms: C_11  and  O_14 
REMARK    4  A    between atoms: O_14  and  C_15 
REMARK    5  A    between atoms: N_21  and  C_22 
REMARK    6  A    between atoms: C_25  and  N_29 
ROOT
HETATM    1  O   UNK N   1      35.197  19.014   8.523  0.00  0.00    -0.267 OA
HETATM    2  C   UNK N   1      34.734  17.891   8.563  0.00  0.00     0.256 C 
HETATM    3  N   UNK N   1      34.950  17.119   9.676  0.00  0.00    -0.322 N 
HETATM    4  H   UNK N   1      35.337  17.526  10.486  0.00  0.00     0.169 HD
ENDROOT
BRANCH   2   5
HETATM    5  C   UNK N   1      33.958  17.361   7.370  0.00  0.00     0.039 A 
HETATM    6  C   UNK N   1      34.608  16.600   6.379  0.00  0.00     0.017 A 
HETATM    7  C   UNK N   1      33.934  16.167   5.240  0.00  0.00     0.002 A 
HETATM    8  C   UNK N   1      32.581  16.440   5.092  0.00  0.00     0.013 A 
HETATM    9  C   UNK N   1      31.881  17.166   6.068  0.00  0.00    -0.019 A 
HETATM   10  C   UNK N   1      32.590  17.653   7.215  0.00  0.00    -0.035 A 
HETATM   11  C   UNK N   1      31.931  18.504   8.261  0.00  0.00     0.050 C 
BRANCH   9  12
HETATM   12  C   UNK N   1      30.397  17.232   5.960  0.00  0.00    -0.025 C 
HETATM   13  C   UNK N   1      29.595  17.334   7.116  0.00  0.00     0.015 C 
HETATM   14  C   UNK N   1      28.290  17.838   7.020  0.00  0.00     0.038 C 
HETATM   15  C   UNK N   1      27.805  18.269   5.778  0.00  0.00     0.078 C 
HETATM   16  C   UNK N   1      28.559  18.045   4.628  0.00  0.00     0.038 C 
HETATM   17  C   UNK N   1      29.829  17.531   4.724  0.00  0.00     0.015 C 
BRANCH  15  18
HETATM   18  O   UNK N   1      26.686  19.027   5.715  0.00  0.00    -0.255 OA
BRANCH  18  19
HETATM   19  C   UNK N   1      26.727  20.398   5.937  0.00  0.00     0.530 C 
HETATM   20  F   UNK N   1      27.971  20.885   5.605  0.00  0.00    -0.144 F 
HETATM   21  F   UNK N   1      25.780  21.025   5.137  0.00  0.00    -0.144 F 
HETATM   22  F   UNK N   1      26.463  20.693   7.265  0.00  0.00    -0.144 F 
ENDBRANCH  18  19
ENDBRANCH  15  18
ENDBRANCH   9  12
ENDBRANCH   2   5
BRANCH   3  23
HETATM   23  C   UNK N   1      34.625  15.747   9.666  0.00  0.00     0.050 C 
HETATM   24  C   UNK N   1      33.284  15.372   9.655  0.00  0.00     0.035 C 
HETATM   25  C   UNK N   1      32.928  14.134   9.124  0.00  0.00     0.051 C 
HETATM   26  C   UNK N   1      33.923  13.333   8.546  0.00  0.00     0.103 C 
HETATM   27  N   UNK N   1      35.231  13.672   8.672  0.00  0.00    -0.350 N 
HETATM   28  C   UNK N   1      35.601  14.828   9.255  0.00  0.00     0.119 C 
ATOM     29  HN  UNK N   1      35.948  13.039   8.319  1.00  0.00     0.166 HD
BRANCH  26  30
HETATM   30  N   UNK N   1      33.576  12.233   7.745  0.00  0.00    -0.362 N 
HETATM   31  C   UNK N   1      33.893  10.907   8.166  0.00  0.00     0.156 C 
HETATM   32  C   UNK N   1      35.026  10.482   7.243  0.00  0.00     0.136 C 
HETATM   33  O   UNK N   1      34.603  10.495   5.882  0.00  0.00    -0.378 OA
HETATM   34  C   UNK N   1      35.467   9.088   7.621  0.00  0.00     0.041 C 
HETATM   35  C   UNK N   1      34.211  11.796   5.450  0.00  0.00     0.136 C 
HETATM   36  C   UNK N   1      33.177  12.427   6.373  0.00  0.00     0.156 C 
HETATM   37  C   UNK N   1      35.403  12.724   5.260  0.00  0.00     0.041 C 
ENDBRANCH  26  30
ENDBRANCH   3  23
TORSDOF 6
ENDMDL
