MODEL 1
REMARK VINA RESULT:      -8.0      0.000      0.000
REMARK  8 active torsions:
REMARK  status: ('A' for Active; 'I' for Inactive)
REMARK       I    between atoms: C_3  and  N_9 
REMARK    1  A    between atoms: C_8  and  N_10 
REMARK    2  A    between atoms: N_9  and  C_18 
REMARK    3  A    between atoms: N_10  and  C_11 
REMARK    4  A    between atoms: C_12  and  S_35 
REMARK    5  A    between atoms: C_20  and  O_30 
REMARK    6  A    between atoms: C_23  and  C_24 
REMARK    7  A    between atoms: O_30  and  C_31 
REMARK    8  A    between atoms: S_35  and  C_36 
ROOT
HETATM    1  N   UNK N   1      20.430  18.547   3.878  0.00  0.00    -0.200 N 
ATOM      2  HN  UNK N   1      19.428  18.699   3.768  1.00  0.00     0.183 HD
HETATM    3  C   UNK N   1      20.880  17.457   4.547  0.00  0.00     0.684 A 
HETATM    4  C   UNK N   1      21.313  19.440   3.351  0.00  0.00     0.133 A 
HETATM    5  N   UNK N   1      22.209  17.250   4.654  0.00  0.00    -0.175 N 
ATOM      6  HN  UNK N   1      22.526  16.420   5.156  1.00  0.00     0.186 HD
HETATM    7  C   UNK N   1      22.698  19.244   3.476  0.00  0.00     0.094 A 
HETATM    8  C   UNK N   1      23.143  18.071   4.138  0.00  0.00     0.144 A 
HETATM    9  N   UNK N   1      19.970  16.600   5.232  0.00  0.00    -0.189 N 
HETATM   10 Cl   UNK N   1      23.736  20.531   2.894  0.00  0.00    -0.079 Cl
HETATM   11  H   UNK N   1      19.014  16.657   5.008  0.00  0.00     0.184 HD
ENDROOT
BRANCH   9  12
HETATM   12  C   UNK N   1      20.383  15.659   6.232  0.00  0.00     0.083 A 
HETATM   13  C   UNK N   1      20.913  14.412   5.876  0.00  0.00     0.040 A 
HETATM   14  C   UNK N   1      21.397  13.521   6.819  0.00  0.00    -0.053 A 
HETATM   15  C   UNK N   1      21.389  13.875   8.179  0.00  0.00    -0.045 A 
HETATM   16  C   UNK N   1      21.951  12.220   6.341  0.00  0.00     0.049 C 
HETATM   17  C   UNK N   1      20.842  15.117   8.555  0.00  0.00     0.047 A 
HETATM   18  C   UNK N   1      20.318  16.005   7.588  0.00  0.00     0.097 A 
BRANCH  15  19
HETATM   19  C   UNK N   1      21.992  12.936   9.198  0.00  0.00     0.022 C 
HETATM   20  C   UNK N   1      21.208  12.925  10.511  0.00  0.00     0.028 C 
HETATM   21  C   UNK N   1      21.765  11.870  11.482  0.00  0.00     0.114 C 
HETATM   22  N   UNK N   1      22.970  11.211  10.965  0.00  0.00    -0.421 N 
HETATM   23  C   UNK N   1      23.965  12.231  10.622  0.00  0.00     0.114 C 
HETATM   24  H   UNK N   1      23.095  10.205  10.860  0.00  0.00     0.153 HD
HETATM   25  C   UNK N   1      23.482  13.141   9.481  0.00  0.00     0.028 C 
ENDBRANCH  15  19
BRANCH  18  26
HETATM   26  O   UNK N   1      19.750  17.191   7.931  0.00  0.00    -0.344 OA
BRANCH  26  27
HETATM   27  C   UNK N   1      19.200  17.512   9.158  0.00  0.00     0.120 C 
HETATM   28  C   UNK N   1      19.610  18.930   9.497  0.00  0.00     0.040 C 
HETATM   29  C   UNK N   1      17.681  17.466   9.125  0.00  0.00     0.040 C 
ENDBRANCH  26  27
ENDBRANCH  18  26
ENDBRANCH   9  12
BRANCH   8  30
HETATM   30  N   UNK N   1      24.491  17.693   4.388  0.00  0.00    -0.339 N 
HETATM   31  H   UNK N   1      24.712  16.812   4.008  0.00  0.00     0.167 HD
BRANCH  30  32
HETATM   32  C   UNK N   1      25.592  18.286   5.056  0.00  0.00     0.055 A 
HETATM   33  C   UNK N   1      26.682  17.461   5.412  0.00  0.00     0.086 A 
HETATM   34  C   UNK N   1      27.802  18.018   6.035  0.00  0.00     0.026 A 
HETATM   35  C   UNK N   1      27.850  19.386   6.304  0.00  0.00     0.002 A 
HETATM   36  C   UNK N   1      26.788  20.208   5.927  0.00  0.00     0.002 A 
HETATM   37  C   UNK N   1      25.670  19.660   5.296  0.00  0.00     0.031 A 
BRANCH  33  38
HETATM   38  S   UNK N   1      26.699  15.703   5.000  0.00  0.00     0.181 S 
HETATM   39  O   UNK N   1      28.116  15.192   5.310  0.00  0.00    -0.222 OA
HETATM   40  O   UNK N   1      26.720  15.585   3.468  0.00  0.00    -0.222 OA
BRANCH  38  41
HETATM   41  C   UNK N   1      25.514  14.462   5.611  0.00  0.00     0.105 C 
HETATM   42  C   UNK N   1      24.587  14.047   4.488  0.00  0.00     0.026 C 
HETATM   43  C   UNK N   1      24.689  15.042   6.744  0.00  0.00     0.026 C 
ENDBRANCH  38  41
ENDBRANCH  33  38
ENDBRANCH  30  32
ENDBRANCH   8  30
TORSDOF 8
ENDMDL
MODEL 2
REMARK VINA RESULT:      -7.9      2.909      7.878
REMARK  8 active torsions:
REMARK  status: ('A' for Active; 'I' for Inactive)
REMARK       I    between atoms: C_3  and  N_9 
REMARK    1  A    between atoms: C_8  and  N_10 
REMARK    2  A    between atoms: N_9  and  C_18 
REMARK    3  A    between atoms: N_10  and  C_11 
REMARK    4  A    between atoms: C_12  and  S_35 
REMARK    5  A    between atoms: C_20  and  O_30 
REMARK    6  A    between atoms: C_23  and  C_24 
REMARK    7  A    between atoms: O_30  and  C_31 
REMARK    8  A    between atoms: S_35  and  C_36 
ROOT
HETATM    1  N   UNK N   1      23.107  15.167   2.770  0.00  0.00    -0.200 N 
ATOM      2  HN  UNK N   1      23.406  15.107   1.797  1.00  0.00     0.183 HD
HETATM    3  C   UNK N   1      23.867  15.837   3.672  0.00  0.00     0.684 A 
HETATM    4  C   UNK N   1      21.946  14.572   3.161  0.00  0.00     0.133 A 
HETATM    5  N   UNK N   1      23.441  15.937   4.948  0.00  0.00    -0.175 N 
ATOM      6  HN  UNK N   1      24.024  16.452   5.609  1.00  0.00     0.186 HD
HETATM    7  C   UNK N   1      21.506  14.653   4.491  0.00  0.00     0.094 A 
HETATM    8  C   UNK N   1      22.293  15.401   5.404  0.00  0.00     0.144 A 
HETATM    9  N   UNK N   1      25.154  16.330   3.311  0.00  0.00    -0.189 N 
HETATM   10 Cl   UNK N   1      20.079  13.725   4.912  0.00  0.00    -0.079 Cl
HETATM   11  H   UNK N   1      25.376  16.405   2.355  0.00  0.00     0.184 HD
ENDROOT
BRANCH   9  12
HETATM   12  C   UNK N   1      26.141  16.723   4.275  0.00  0.00     0.083 A 
HETATM   13  C   UNK N   1      26.259  18.057   4.685  0.00  0.00     0.040 A 
HETATM   14  C   UNK N   1      27.146  18.447   5.676  0.00  0.00    -0.053 A 
HETATM   15  C   UNK N   1      27.938  17.481   6.320  0.00  0.00    -0.045 A 
HETATM   16  C   UNK N   1      27.194  19.890   6.051  0.00  0.00     0.049 C 
HETATM   17  C   UNK N   1      27.844  16.138   5.906  0.00  0.00     0.047 A 
HETATM   18  C   UNK N   1      26.962  15.755   4.870  0.00  0.00     0.097 A 
BRANCH  15  19
HETATM   19  C   UNK N   1      28.844  17.895   7.456  0.00  0.00     0.022 C 
HETATM   20  C   UNK N   1      30.180  17.153   7.432  0.00  0.00     0.028 C 
HETATM   21  C   UNK N   1      31.131  17.684   8.518  0.00  0.00     0.114 C 
HETATM   22  N   UNK N   1      30.495  18.687   9.379  0.00  0.00    -0.421 N 
HETATM   23  C   UNK N   1      29.264  18.126   9.944  0.00  0.00     0.114 C 
HETATM   24  H   UNK N   1      30.852  19.626   9.556  0.00  0.00     0.153 HD
HETATM   25  C   UNK N   1      28.226  17.813   8.854  0.00  0.00     0.028 C 
ENDBRANCH  15  19
BRANCH  18  26
HETATM   26  O   UNK N   1      26.883  14.473   4.427  0.00  0.00    -0.344 OA
BRANCH  26  27
HETATM   27  C   UNK N   1      26.903  13.333   5.208  0.00  0.00     0.120 C 
HETATM   28  C   UNK N   1      25.689  13.366   6.114  0.00  0.00     0.040 C 
HETATM   29  C   UNK N   1      26.817  12.070   4.367  0.00  0.00     0.040 C 
ENDBRANCH  26  27
ENDBRANCH  18  26
ENDBRANCH   9  12
BRANCH   8  30
HETATM   30  N   UNK N   1      22.041  15.592   6.791  0.00  0.00    -0.339 N 
HETATM   31  H   UNK N   1      22.064  16.541   7.051  0.00  0.00     0.167 HD
BRANCH  30  32
HETATM   32  C   UNK N   1      21.764  14.737   7.887  0.00  0.00     0.055 A 
HETATM   33  C   UNK N   1      20.645  15.029   8.697  0.00  0.00     0.086 A 
HETATM   34  C   UNK N   1      20.318  14.185   9.763  0.00  0.00     0.026 A 
HETATM   35  C   UNK N   1      21.088  13.053  10.026  0.00  0.00     0.002 A 
HETATM   36  C   UNK N   1      22.177  12.745   9.209  0.00  0.00     0.002 A 
HETATM   37  C   UNK N   1      22.504  13.578   8.139  0.00  0.00     0.031 A 
BRANCH  33  38
HETATM   38  S   UNK N   1      19.567  16.432   8.336  0.00  0.00     0.181 S 
HETATM   39  O   UNK N   1      19.002  16.202   6.926  0.00  0.00    -0.222 OA
HETATM   40  O   UNK N   1      20.466  17.646   8.051  0.00  0.00    -0.222 OA
BRANCH  38  41
HETATM   41  C   UNK N   1      18.206  17.020   9.394  0.00  0.00     0.105 C 
HETATM   42  C   UNK N   1      16.939  17.138   8.575  0.00  0.00     0.026 C 
HETATM   43  C   UNK N   1      18.546  18.380   9.975  0.00  0.00     0.026 C 
ENDBRANCH  38  41
ENDBRANCH  33  38
ENDBRANCH  30  32
ENDBRANCH   8  30
TORSDOF 8
ENDMDL
MODEL 3
REMARK VINA RESULT:      -7.9      3.955      8.519
REMARK  8 active torsions:
REMARK  status: ('A' for Active; 'I' for Inactive)
REMARK       I    between atoms: C_3  and  N_9 
REMARK    1  A    between atoms: C_8  and  N_10 
REMARK    2  A    between atoms: N_9  and  C_18 
REMARK    3  A    between atoms: N_10  and  C_11 
REMARK    4  A    between atoms: C_12  and  S_35 
REMARK    5  A    between atoms: C_20  and  O_30 
REMARK    6  A    between atoms: C_23  and  C_24 
REMARK    7  A    between atoms: O_30  and  C_31 
REMARK    8  A    between atoms: S_35  and  C_36 
ROOT
HETATM    1  N   UNK N   1      24.578  17.808   4.887  0.00  0.00    -0.200 N 
ATOM      2  HN  UNK N   1      24.469  18.729   4.461  1.00  0.00     0.183 HD
HETATM    3  C   UNK N   1      25.616  17.570   5.727  0.00  0.00     0.684 A 
HETATM    4  C   UNK N   1      23.680  16.823   4.610  0.00  0.00     0.133 A 
HETATM    5  N   UNK N   1      25.727  16.358   6.310  0.00  0.00    -0.175 N 
ATOM      6  HN  UNK N   1      26.512  16.202   6.944  1.00  0.00     0.186 HD
HETATM    7  C   UNK N   1      23.801  15.552   5.196  0.00  0.00     0.094 A 
HETATM    8  C   UNK N   1      24.867  15.344   6.109  0.00  0.00     0.144 A 
HETATM    9  N   UNK N   1      26.644  18.542   5.904  0.00  0.00    -0.189 N 
HETATM   10 Cl   UNK N   1      22.680  14.319   4.652  0.00  0.00    -0.079 Cl
HETATM   11  H   UNK N   1      26.468  19.467   5.619  0.00  0.00     0.184 HD
ENDROOT
BRANCH   9  12
HETATM   12  C   UNK N   1      27.921  18.234   6.478  0.00  0.00     0.083 A 
HETATM   13  C   UNK N   1      28.195  18.514   7.823  0.00  0.00     0.040 A 
HETATM   14  C   UNK N   1      29.389  18.150   8.423  0.00  0.00    -0.053 A 
HETATM   15  C   UNK N   1      30.356  17.452   7.679  0.00  0.00    -0.045 A 
HETATM   16  C   UNK N   1      29.585  18.483   9.864  0.00  0.00     0.049 C 
HETATM   17  C   UNK N   1      30.104  17.180   6.320  0.00  0.00     0.047 A 
HETATM   18  C   UNK N   1      28.897  17.587   5.708  0.00  0.00     0.097 A 
BRANCH  15  19
HETATM   19  C   UNK N   1      31.623  16.984   8.356  0.00  0.00     0.022 C 
HETATM   20  C   UNK N   1      32.824  17.866   8.013  0.00  0.00     0.028 C 
HETATM   21  C   UNK N   1      34.069  17.446   8.813  0.00  0.00     0.114 C 
HETATM   22  N   UNK N   1      33.838  16.245   9.622  0.00  0.00    -0.421 N 
HETATM   23  C   UNK N   1      33.346  15.169   8.756  0.00  0.00     0.114 C 
HETATM   24  H   UNK N   1      33.994  16.169  10.627  0.00  0.00     0.153 HD
HETATM   25  C   UNK N   1      31.979  15.510   8.141  0.00  0.00     0.028 C 
ENDBRANCH  15  19
BRANCH  18  26
HETATM   26  O   UNK N   1      28.649  17.370   4.390  0.00  0.00    -0.344 OA
BRANCH  26  27
HETATM   27  C   UNK N   1      28.717  16.157   3.731  0.00  0.00     0.120 C 
HETATM   28  C   UNK N   1      27.408  15.951   2.996  0.00  0.00     0.040 C 
HETATM   29  C   UNK N   1      29.833  16.137   2.700  0.00  0.00     0.040 C 
ENDBRANCH  26  27
ENDBRANCH  18  26
ENDBRANCH   9  12
BRANCH   8  30
HETATM   30  N   UNK N   1      25.179  14.136   6.793  0.00  0.00    -0.339 N 
HETATM   31  H   UNK N   1      25.667  14.294   7.633  0.00  0.00     0.167 HD
BRANCH  30  32
HETATM   32  C   UNK N   1      24.953  12.758   6.549  0.00  0.00     0.055 A 
HETATM   33  C   UNK N   1      24.176  12.033   7.480  0.00  0.00     0.086 A 
HETATM   34  C   UNK N   1      23.898  10.682   7.253  0.00  0.00     0.026 A 
HETATM   35  C   UNK N   1      24.380  10.047   6.108  0.00  0.00     0.002 A 
HETATM   36  C   UNK N   1      25.124  10.768   5.172  0.00  0.00     0.002 A 
HETATM   37  C   UNK N   1      25.397  12.119   5.388  0.00  0.00     0.031 A 
BRANCH  33  38
HETATM   38  S   UNK N   1      23.455  12.837   8.927  0.00  0.00     0.181 S 
HETATM   39  O   UNK N   1      22.689  14.066   8.412  0.00  0.00    -0.222 OA
HETATM   40  O   UNK N   1      24.593  13.547   9.678  0.00  0.00    -0.222 OA
BRANCH  38  41
HETATM   41  C   UNK N   1      22.421  12.022  10.185  0.00  0.00     0.105 C 
HETATM   42  C   UNK N   1      21.125  12.787  10.353  0.00  0.00     0.026 C 
HETATM   43  C   UNK N   1      23.149  11.985  11.515  0.00  0.00     0.026 C 
ENDBRANCH  38  41
ENDBRANCH  33  38
ENDBRANCH  30  32
ENDBRANCH   8  30
TORSDOF 8
ENDMDL
MODEL 4
REMARK VINA RESULT:      -7.8      2.608      7.241
REMARK  8 active torsions:
REMARK  status: ('A' for Active; 'I' for Inactive)
REMARK       I    between atoms: C_3  and  N_9 
REMARK    1  A    between atoms: C_8  and  N_10 
REMARK    2  A    between atoms: N_9  and  C_18 
REMARK    3  A    between atoms: N_10  and  C_11 
REMARK    4  A    between atoms: C_12  and  S_35 
REMARK    5  A    between atoms: C_20  and  O_30 
REMARK    6  A    between atoms: C_23  and  C_24 
REMARK    7  A    between atoms: O_30  and  C_31 
REMARK    8  A    between atoms: S_35  and  C_36 
ROOT
HETATM    1  N   UNK N   1      22.118  19.006   2.921  0.00  0.00    -0.200 N 
ATOM      2  HN  UNK N   1      22.267  19.526   2.056  1.00  0.00     0.183 HD
HETATM    3  C   UNK N   1      23.059  19.030   3.897  0.00  0.00     0.684 A 
HETATM    4  C   UNK N   1      20.973  18.288   3.090  0.00  0.00     0.133 A 
HETATM    5  N   UNK N   1      22.832  18.365   5.048  0.00  0.00    -0.175 N 
ATOM      6  HN  UNK N   1      23.550  18.401   5.773  1.00  0.00     0.186 HD
HETATM    7  C   UNK N   1      20.739  17.575   4.277  0.00  0.00     0.094 A 
HETATM    8  C   UNK N   1      21.716  17.656   5.301  0.00  0.00     0.144 A 
HETATM    9  N   UNK N   1      24.323  19.649   3.670  0.00  0.00    -0.189 N 
HETATM   10 Cl   UNK N   1      19.306  16.566   4.325  0.00  0.00    -0.079 Cl
HETATM   11  H   UNK N   1      24.412  20.268   2.911  0.00  0.00     0.184 HD
ENDROOT
BRANCH   9  12
HETATM   12  C   UNK N   1      25.470  19.412   4.497  0.00  0.00     0.083 A 
HETATM   13  C   UNK N   1      26.063  20.453   5.225  0.00  0.00     0.040 A 
HETATM   14  C   UNK N   1      27.118  20.234   6.096  0.00  0.00    -0.053 A 
HETATM   15  C   UNK N   1      27.602  18.929   6.288  0.00  0.00    -0.045 A 
HETATM   16  C   UNK N   1      27.678  21.405   6.833  0.00  0.00     0.049 C 
HETATM   17  C   UNK N   1      27.028  17.875   5.550  0.00  0.00     0.047 A 
HETATM   18  C   UNK N   1      25.975  18.113   4.638  0.00  0.00     0.097 A 
BRANCH  15  19
HETATM   19  C   UNK N   1      28.697  18.680   7.299  0.00  0.00     0.022 C 
HETATM   20  C   UNK N   1      29.609  17.522   6.894  0.00  0.00     0.028 C 
HETATM   21  C   UNK N   1      30.787  17.373   7.870  0.00  0.00     0.114 C 
HETATM   22  N   UNK N   1      30.695  18.297   9.006  0.00  0.00    -0.421 N 
HETATM   23  C   UNK N   1      29.399  18.118   9.668  0.00  0.00     0.114 C 
HETATM   24  H   UNK N   1      31.416  18.958   9.291  0.00  0.00     0.153 HD
HETATM   25  C   UNK N   1      28.228  18.495   8.745  0.00  0.00     0.028 C 
ENDBRANCH  15  19
BRANCH  18  26
HETATM   26  O   UNK N   1      25.434  17.119   3.886  0.00  0.00    -0.344 OA
BRANCH  26  27
HETATM   27  C   UNK N   1      25.647  15.762   4.045  0.00  0.00     0.120 C 
HETATM   28  C   UNK N   1      24.297  15.094   4.207  0.00  0.00     0.040 C 
HETATM   29  C   UNK N   1      26.322  15.151   2.829  0.00  0.00     0.040 C 
ENDBRANCH  26  27
ENDBRANCH  18  26
ENDBRANCH   9  12
BRANCH   8  30
HETATM   30  N   UNK N   1      21.684  17.001   6.564  0.00  0.00    -0.339 N 
HETATM   31  H   UNK N   1      22.559  16.626   6.816  0.00  0.00     0.167 HD
BRANCH  30  32
HETATM   32  C   UNK N   1      20.689  16.761   7.544  0.00  0.00     0.055 A 
HETATM   33  C   UNK N   1      20.548  15.448   8.046  0.00  0.00     0.086 A 
HETATM   34  C   UNK N   1      19.604  15.182   9.043  0.00  0.00     0.026 A 
HETATM   35  C   UNK N   1      18.805  16.207   9.547  0.00  0.00     0.002 A 
HETATM   36  C   UNK N   1      18.962  17.511   9.074  0.00  0.00     0.002 A 
HETATM   37  C   UNK N   1      19.908  17.786   8.086  0.00  0.00     0.031 A 
BRANCH  33  38
HETATM   38  S   UNK N   1      21.625  14.111   7.488  0.00  0.00     0.181 S 
HETATM   39  O   UNK N   1      23.061  14.657   7.525  0.00  0.00    -0.222 OA
HETATM   40  O   UNK N   1      21.446  13.976   5.967  0.00  0.00    -0.222 OA
BRANCH  38  41
HETATM   41  C   UNK N   1      21.653  12.422   8.169  0.00  0.00     0.105 C 
HETATM   42  C   UNK N   1      21.999  12.471   9.641  0.00  0.00     0.026 C 
HETATM   43  C   UNK N   1      22.692  11.585   7.445  0.00  0.00     0.026 C 
ENDBRANCH  38  41
ENDBRANCH  33  38
ENDBRANCH  30  32
ENDBRANCH   8  30
TORSDOF 8
ENDMDL
MODEL 5
REMARK VINA RESULT:      -7.7      2.896      7.155
REMARK  8 active torsions:
REMARK  status: ('A' for Active; 'I' for Inactive)
REMARK       I    between atoms: C_3  and  N_9 
REMARK    1  A    between atoms: C_8  and  N_10 
REMARK    2  A    between atoms: N_9  and  C_18 
REMARK    3  A    between atoms: N_10  and  C_11 
REMARK    4  A    between atoms: C_12  and  S_35 
REMARK    5  A    between atoms: C_20  and  O_30 
REMARK    6  A    between atoms: C_23  and  C_24 
REMARK    7  A    between atoms: O_30  and  C_31 
REMARK    8  A    between atoms: S_35  and  C_36 
ROOT
HETATM    1  N   UNK N   1      22.422  19.259   3.322  0.00  0.00    -0.200 N 
ATOM      2  HN  UNK N   1      22.528  20.072   2.716  1.00  0.00     0.183 HD
HETATM    3  C   UNK N   1      23.488  18.788   4.016  0.00  0.00     0.684 A 
HETATM    4  C   UNK N   1      21.210  18.649   3.431  0.00  0.00     0.133 A 
HETATM    5  N   UNK N   1      23.324  17.733   4.840  0.00  0.00    -0.175 N 
ATOM      6  HN  UNK N   1      24.137  17.399   5.359  1.00  0.00     0.186 HD
HETATM    7  C   UNK N   1      21.035  17.536   4.270  0.00  0.00     0.094 A 
HETATM    8  C   UNK N   1      22.154  17.094   5.023  0.00  0.00     0.144 A 
HETATM    9  N   UNK N   1      24.791  19.321   3.793  0.00  0.00    -0.189 N 
HETATM   10 Cl   UNK N   1      19.474  16.741   4.217  0.00  0.00    -0.079 Cl
HETATM   11  H   UNK N   1      24.870  20.187   3.332  0.00  0.00     0.184 HD
ENDROOT
BRANCH   9  12
HETATM   12  C   UNK N   1      25.991  18.656   4.210  0.00  0.00     0.083 A 
HETATM   13  C   UNK N   1      26.535  17.607   3.456  0.00  0.00     0.040 A 
HETATM   14  C   UNK N   1      27.737  17.006   3.791  0.00  0.00    -0.053 A 
HETATM   15  C   UNK N   1      28.460  17.469   4.903  0.00  0.00    -0.045 A 
HETATM   16  C   UNK N   1      28.239  15.902   2.921  0.00  0.00     0.049 C 
HETATM   17  C   UNK N   1      27.918  18.510   5.682  0.00  0.00     0.047 A 
HETATM   18  C   UNK N   1      26.673  19.094   5.352  0.00  0.00     0.097 A 
BRANCH  15  19
HETATM   19  C   UNK N   1      29.809  16.868   5.219  0.00  0.00     0.022 C 
HETATM   20  C   UNK N   1      30.041  16.719   6.722  0.00  0.00     0.028 C 
HETATM   21  C   UNK N   1      31.363  15.989   7.013  0.00  0.00     0.114 C 
HETATM   22  N   UNK N   1      32.130  15.711   5.794  0.00  0.00    -0.421 N 
HETATM   23  C   UNK N   1      32.337  16.963   5.060  0.00  0.00     0.114 C 
HETATM   24  H   UNK N   1      32.466  14.793   5.503  0.00  0.00     0.153 HD
HETATM   25  C   UNK N   1      31.009  17.566   4.572  0.00  0.00     0.028 C 
ENDBRANCH  15  19
BRANCH  18  26
HETATM   26  O   UNK N   1      26.112  20.071   6.111  0.00  0.00    -0.344 OA
BRANCH  26  27
HETATM   27  C   UNK N   1      26.774  20.911   6.988  0.00  0.00     0.120 C 
HETATM   28  C   UNK N   1      27.541  21.930   6.169  0.00  0.00     0.040 C 
HETATM   29  C   UNK N   1      25.807  21.669   7.881  0.00  0.00     0.040 C 
ENDBRANCH  26  27
ENDBRANCH  18  26
ENDBRANCH   9  12
BRANCH   8  30
HETATM   30  N   UNK N   1      22.198  15.983   5.911  0.00  0.00    -0.339 N 
HETATM   31  H   UNK N   1      22.871  15.315   5.645  0.00  0.00     0.167 HD
BRANCH  30  32
HETATM   32  C   UNK N   1      21.502  15.612   7.087  0.00  0.00     0.055 A 
HETATM   33  C   UNK N   1      22.016  14.549   7.862  0.00  0.00     0.086 A 
HETATM   34  C   UNK N   1      21.379  14.181   9.051  0.00  0.00     0.026 A 
HETATM   35  C   UNK N   1      20.238  14.861   9.477  0.00  0.00     0.002 A 
HETATM   36  C   UNK N   1      19.744  15.931   8.729  0.00  0.00     0.002 A 
HETATM   37  C   UNK N   1      20.381  16.309   7.547  0.00  0.00     0.031 A 
BRANCH  33  38
HETATM   38  S   UNK N   1      23.541  13.701   7.395  0.00  0.00     0.181 S 
HETATM   39  O   UNK N   1      24.559  14.795   7.034  0.00  0.00    -0.222 OA
HETATM   40  O   UNK N   1      23.323  13.091   6.001  0.00  0.00    -0.222 OA
BRANCH  38  41
HETATM   41  C   UNK N   1      24.402  12.445   8.394  0.00  0.00     0.105 C 
HETATM   42  C   UNK N   1      23.495  11.252   8.604  0.00  0.00     0.026 C 
HETATM   43  C   UNK N   1      24.779  13.022   9.745  0.00  0.00     0.026 C 
ENDBRANCH  38  41
ENDBRANCH  33  38
ENDBRANCH  30  32
ENDBRANCH   8  30
TORSDOF 8
ENDMDL
MODEL 6
REMARK VINA RESULT:      -7.7      7.936     11.737
REMARK  8 active torsions:
REMARK  status: ('A' for Active; 'I' for Inactive)
REMARK       I    between atoms: C_3  and  N_9 
REMARK    1  A    between atoms: C_8  and  N_10 
REMARK    2  A    between atoms: N_9  and  C_18 
REMARK    3  A    between atoms: N_10  and  C_11 
REMARK    4  A    between atoms: C_12  and  S_35 
REMARK    5  A    between atoms: C_20  and  O_30 
REMARK    6  A    between atoms: C_23  and  C_24 
REMARK    7  A    between atoms: O_30  and  C_31 
REMARK    8  A    between atoms: S_35  and  C_36 
ROOT
HETATM    1  N   UNK N   1      34.932  17.284  10.204  0.00  0.00    -0.200 N 
ATOM      2  HN  UNK N   1      34.800  18.219  10.589  1.00  0.00     0.183 HD
HETATM    3  C   UNK N   1      34.389  16.964   9.003  0.00  0.00     0.684 A 
HETATM    4  C   UNK N   1      35.652  16.360  10.899  0.00  0.00     0.133 A 
HETATM    5  N   UNK N   1      34.601  15.733   8.491  0.00  0.00    -0.175 N 
ATOM      6  HN  UNK N   1      34.190  15.515   7.582  1.00  0.00     0.186 HD
HETATM    7  C   UNK N   1      35.859  15.071  10.383  0.00  0.00     0.094 A 
HETATM    8  C   UNK N   1      35.323  14.777   9.103  0.00  0.00     0.144 A 
HETATM    9  N   UNK N   1      33.509  17.868   8.341  0.00  0.00    -0.189 N 
HETATM   10 Cl   UNK N   1      36.670  13.920  11.428  0.00  0.00    -0.079 Cl
HETATM   11  H   UNK N   1      33.500  18.809   8.629  0.00  0.00     0.184 HD
ENDROOT
BRANCH   9  12
HETATM   12  C   UNK N   1      32.636  17.471   7.274  0.00  0.00     0.083 A 
HETATM   13  C   UNK N   1      33.071  17.485   5.942  0.00  0.00     0.040 A 
HETATM   14  C   UNK N   1      32.277  17.027   4.904  0.00  0.00    -0.053 A 
HETATM   15  C   UNK N   1      31.003  16.502   5.181  0.00  0.00    -0.045 A 
HETATM   16  C   UNK N   1      32.831  17.074   3.519  0.00  0.00     0.049 C 
HETATM   17  C   UNK N   1      30.545  16.498   6.513  0.00  0.00     0.047 A 
HETATM   18  C   UNK N   1      31.348  17.000   7.562  0.00  0.00     0.097 A 
BRANCH  15  19
HETATM   19  C   UNK N   1      30.172  15.927   4.059  0.00  0.00     0.022 C 
HETATM   20  C   UNK N   1      28.721  16.407   4.107  0.00  0.00     0.028 C 
HETATM   21  C   UNK N   1      27.931  15.912   2.884  0.00  0.00     0.114 C 
HETATM   22  N   UNK N   1      28.719  15.017   2.030  0.00  0.00    -0.421 N 
HETATM   23  C   UNK N   1      29.237  13.911   2.842  0.00  0.00     0.114 C 
HETATM   24  H   UNK N   1      28.882  15.143   1.032  0.00  0.00     0.153 HD
HETATM   25  C   UNK N   1      30.214  14.403   3.922  0.00  0.00     0.028 C 
ENDBRANCH  15  19
BRANCH  18  26
HETATM   26  O   UNK N   1      30.911  17.044   8.848  0.00  0.00    -0.344 OA
BRANCH  26  27
HETATM   27  C   UNK N   1      29.676  17.489   9.280  0.00  0.00     0.120 C 
HETATM   28  C   UNK N   1      29.268  16.650  10.473  0.00  0.00     0.040 C 
HETATM   29  C   UNK N   1      29.726  18.940   9.731  0.00  0.00     0.040 C 
ENDBRANCH  26  27
ENDBRANCH  18  26
ENDBRANCH   9  12
BRANCH   8  30
HETATM   30  N   UNK N   1      35.401  13.536   8.411  0.00  0.00    -0.339 N 
HETATM   31  H   UNK N   1      35.924  13.601   7.579  0.00  0.00     0.167 HD
BRANCH  30  32
HETATM   32  C   UNK N   1      34.901  12.229   8.636  0.00  0.00     0.055 A 
HETATM   33  C   UNK N   1      33.956  11.708   7.725  0.00  0.00     0.086 A 
HETATM   34  C   UNK N   1      33.471  10.408   7.892  0.00  0.00     0.026 A 
HETATM   35  C   UNK N   1      33.920   9.620   8.953  0.00  0.00     0.002 A 
HETATM   36  C   UNK N   1      34.875  10.122   9.838  0.00  0.00     0.002 A 
HETATM   37  C   UNK N   1      35.370  11.416   9.671  0.00  0.00     0.031 A 
BRANCH  33  38
HETATM   38  S   UNK N   1      33.417  12.659   6.287  0.00  0.00     0.181 S 
HETATM   39  O   UNK N   1      32.822  13.970   6.825  0.00  0.00    -0.222 OA
HETATM   40  O   UNK N   1      32.135  12.003   5.751  0.00  0.00    -0.222 OA
BRANCH  38  41
HETATM   41  C   UNK N   1      34.447  13.066   4.842  0.00  0.00     0.105 C 
HETATM   42  C   UNK N   1      35.043  14.446   5.012  0.00  0.00     0.026 C 
HETATM   43  C   UNK N   1      33.606  13.044   3.579  0.00  0.00     0.026 C 
ENDBRANCH  38  41
ENDBRANCH  33  38
ENDBRANCH  30  32
ENDBRANCH   8  30
TORSDOF 8
ENDMDL
MODEL 7
REMARK VINA RESULT:      -7.6      7.628     11.523
REMARK  8 active torsions:
REMARK  status: ('A' for Active; 'I' for Inactive)
REMARK       I    between atoms: C_3  and  N_9 
REMARK    1  A    between atoms: C_8  and  N_10 
REMARK    2  A    between atoms: N_9  and  C_18 
REMARK    3  A    between atoms: N_10  and  C_11 
REMARK    4  A    between atoms: C_12  and  S_35 
REMARK    5  A    between atoms: C_20  and  O_30 
REMARK    6  A    between atoms: C_23  and  C_24 
REMARK    7  A    between atoms: O_30  and  C_31 
REMARK    8  A    between atoms: S_35  and  C_36 
ROOT
HETATM    1  N   UNK N   1      35.037  17.427   9.803  0.00  0.00    -0.200 N 
ATOM      2  HN  UNK N   1      35.337  18.396   9.695  1.00  0.00     0.183 HD
HETATM    3  C   UNK N   1      33.945  16.978   9.136  0.00  0.00     0.684 A 
HETATM    4  C   UNK N   1      35.736  16.588  10.617  0.00  0.00     0.133 A 
HETATM    5  N   UNK N   1      33.582  15.685   9.262  0.00  0.00    -0.175 N 
ATOM      6  HN  UNK N   1      32.761  15.365   8.746  1.00  0.00     0.186 HD
HETATM    7  C   UNK N   1      35.352  15.247  10.770  0.00  0.00     0.094 A 
HETATM    8  C   UNK N   1      34.236  14.789  10.024  0.00  0.00     0.144 A 
HETATM    9  N   UNK N   1      33.120  17.881   8.405  0.00  0.00    -0.189 N 
HETATM   10 Cl   UNK N   1      36.231  14.302  11.957  0.00  0.00    -0.079 Cl
HETATM   11  H   UNK N   1      33.481  18.768   8.180  0.00  0.00     0.184 HD
ENDROOT
BRANCH   9  12
HETATM   12  C   UNK N   1      31.788  17.558   7.983  0.00  0.00     0.083 A 
HETATM   13  C   UNK N   1      30.673  17.984   8.717  0.00  0.00     0.040 A 
HETATM   14  C   UNK N   1      29.377  17.758   8.285  0.00  0.00    -0.053 A 
HETATM   15  C   UNK N   1      29.155  17.106   7.060  0.00  0.00    -0.045 A 
HETATM   16  C   UNK N   1      28.254  18.258   9.132  0.00  0.00     0.049 C 
HETATM   17  C   UNK N   1      30.265  16.655   6.319  0.00  0.00     0.047 A 
HETATM   18  C   UNK N   1      31.584  16.860   6.785  0.00  0.00     0.097 A 
BRANCH  15  19
HETATM   19  C   UNK N   1      27.744  16.933   6.551  0.00  0.00     0.022 C 
HETATM   20  C   UNK N   1      27.500  15.536   5.981  0.00  0.00     0.028 C 
HETATM   21  C   UNK N   1      26.025  15.345   5.589  0.00  0.00     0.114 C 
HETATM   22  N   UNK N   1      25.237  16.571   5.751  0.00  0.00    -0.421 N 
HETATM   23  C   UNK N   1      25.875  17.656   5.000  0.00  0.00     0.114 C 
HETATM   24  H   UNK N   1      24.382  16.657   6.300  0.00  0.00     0.153 HD
HETATM   25  C   UNK N   1      27.268  17.994   5.555  0.00  0.00     0.028 C 
ENDBRANCH  15  19
BRANCH  18  26
HETATM   26  O   UNK N   1      32.668  16.398   6.107  0.00  0.00    -0.344 OA
BRANCH  26  27
HETATM   27  C   UNK N   1      33.218  16.952   4.967  0.00  0.00     0.120 C 
HETATM   28  C   UNK N   1      33.667  15.818   4.067  0.00  0.00     0.040 C 
HETATM   29  C   UNK N   1      32.205  17.780   4.196  0.00  0.00     0.040 C 
ENDBRANCH  26  27
ENDBRANCH  18  26
ENDBRANCH   9  12
BRANCH   8  30
HETATM   30  N   UNK N   1      33.673  13.482  10.047  0.00  0.00    -0.339 N 
HETATM   31  H   UNK N   1      32.716  13.489  10.279  0.00  0.00     0.167 HD
BRANCH  30  32
HETATM   32  C   UNK N   1      34.166  12.174   9.815  0.00  0.00     0.055 A 
HETATM   33  C   UNK N   1      34.101  11.658   8.502  0.00  0.00     0.086 A 
HETATM   34  C   UNK N   1      34.614  10.387   8.227  0.00  0.00     0.026 A 
HETATM   35  C   UNK N   1      35.193   9.627   9.244  0.00  0.00     0.002 A 
HETATM   36  C   UNK N   1      35.285  10.146  10.536  0.00  0.00     0.002 A 
HETATM   37  C   UNK N   1      34.783  11.418  10.815  0.00  0.00     0.031 A 
BRANCH  33  38
HETATM   38  S   UNK N   1      33.443  12.644   7.139  0.00  0.00     0.181 S 
HETATM   39  O   UNK N   1      34.418  13.814   6.931  0.00  0.00    -0.222 OA
HETATM   40  O   UNK N   1      32.229  13.420   7.673  0.00  0.00    -0.222 OA
BRANCH  38  41
HETATM   41  C   UNK N   1      32.981  12.004   5.498  0.00  0.00     0.105 C 
HETATM   42  C   UNK N   1      34.152  12.142   4.549  0.00  0.00     0.026 C 
HETATM   43  C   UNK N   1      31.803  12.784   4.946  0.00  0.00     0.026 C 
ENDBRANCH  38  41
ENDBRANCH  33  38
ENDBRANCH  30  32
ENDBRANCH   8  30
TORSDOF 8
ENDMDL
MODEL 8
REMARK VINA RESULT:      -7.4      3.114      7.139
REMARK  8 active torsions:
REMARK  status: ('A' for Active; 'I' for Inactive)
REMARK       I    between atoms: C_3  and  N_9 
REMARK    1  A    between atoms: C_8  and  N_10 
REMARK    2  A    between atoms: N_9  and  C_18 
REMARK    3  A    between atoms: N_10  and  C_11 
REMARK    4  A    between atoms: C_12  and  S_35 
REMARK    5  A    between atoms: C_20  and  O_30 
REMARK    6  A    between atoms: C_23  and  C_24 
REMARK    7  A    between atoms: O_30  and  C_31 
REMARK    8  A    between atoms: S_35  and  C_36 
ROOT
HETATM    1  N   UNK N   1      21.682  18.958   3.089  0.00  0.00    -0.200 N 
ATOM      2  HN  UNK N   1      21.654  19.677   2.367  1.00  0.00     0.183 HD
HETATM    3  C   UNK N   1      22.784  18.824   3.869  0.00  0.00     0.684 A 
HETATM    4  C   UNK N   1      20.612  18.134   3.268  0.00  0.00     0.133 A 
HETATM    5  N   UNK N   1      22.792  17.891   4.844  0.00  0.00    -0.175 N 
ATOM      6  HN  UNK N   1      23.628  17.812   5.423  1.00  0.00     0.186 HD
HETATM    7  C   UNK N   1      20.621  17.147   4.266  0.00  0.00     0.094 A 
HETATM    8  C   UNK N   1      21.766  17.060   5.100  0.00  0.00     0.144 A 
HETATM    9  N   UNK N   1      23.963  19.574   3.591  0.00  0.00    -0.189 N 
HETATM   10 Cl   UNK N   1      19.255  16.048   4.306  0.00  0.00    -0.079 Cl
HETATM   11  H   UNK N   1      23.891  20.360   3.003  0.00  0.00     0.184 HD
ENDROOT
BRANCH   9  12
HETATM   12  C   UNK N   1      25.249  19.238   4.130  0.00  0.00     0.083 A 
HETATM   13  C   UNK N   1      25.925  20.116   4.988  0.00  0.00     0.040 A 
HETATM   14  C   UNK N   1      27.127  19.780   5.588  0.00  0.00    -0.053 A 
HETATM   15  C   UNK N   1      27.686  18.511   5.362  0.00  0.00    -0.045 A 
HETATM   16  C   UNK N   1      27.767  20.779   6.494  0.00  0.00     0.049 C 
HETATM   17  C   UNK N   1      27.028  17.624   4.487  0.00  0.00     0.047 A 
HETATM   18  C   UNK N   1      25.820  17.989   3.852  0.00  0.00     0.097 A 
BRANCH  15  19
HETATM   19  C   UNK N   1      28.954  18.115   6.081  0.00  0.00     0.022 C 
HETATM   20  C   UNK N   1      29.873  17.260   5.209  0.00  0.00     0.028 C 
HETATM   21  C   UNK N   1      31.210  16.979   5.916  0.00  0.00     0.114 C 
HETATM   22  N   UNK N   1      31.239  17.500   7.287  0.00  0.00    -0.421 N 
HETATM   23  C   UNK N   1      30.094  16.964   8.030  0.00  0.00     0.114 C 
HETATM   24  H   UNK N   1      31.943  18.133   7.664  0.00  0.00     0.153 HD
HETATM   25  C   UNK N   1      28.757  17.446   7.444  0.00  0.00     0.028 C 
ENDBRANCH  15  19
BRANCH  18  26
HETATM   26  O   UNK N   1      25.189  17.166   2.974  0.00  0.00    -0.344 OA
BRANCH  26  27
HETATM   27  C   UNK N   1      25.316  15.791   2.903  0.00  0.00     0.120 C 
HETATM   28  C   UNK N   1      23.932  15.203   2.719  0.00  0.00     0.040 C 
HETATM   29  C   UNK N   1      26.161  15.364   1.714  0.00  0.00     0.040 C 
ENDBRANCH  26  27
ENDBRANCH  18  26
ENDBRANCH   9  12
BRANCH   8  30
HETATM   30  N   UNK N   1      21.986  16.126   6.150  0.00  0.00    -0.339 N 
HETATM   31  H   UNK N   1      21.198  16.020   6.731  0.00  0.00     0.167 HD
BRANCH  30  32
HETATM   32  C   UNK N   1      23.072  15.312   6.557  0.00  0.00     0.055 A 
HETATM   33  C   UNK N   1      22.796  14.002   7.008  0.00  0.00     0.086 A 
HETATM   34  C   UNK N   1      23.845  13.157   7.379  0.00  0.00     0.026 A 
HETATM   35  C   UNK N   1      25.166  13.600   7.303  0.00  0.00     0.002 A 
HETATM   36  C   UNK N   1      25.445  14.884   6.831  0.00  0.00     0.002 A 
HETATM   37  C   UNK N   1      24.402  15.729   6.450  0.00  0.00     0.031 A 
BRANCH  33  38
HETATM   38  S   UNK N   1      21.109  13.358   7.035  0.00  0.00     0.181 S 
HETATM   39  O   UNK N   1      20.200  14.522   7.462  0.00  0.00    -0.222 OA
HETATM   40  O   UNK N   1      20.974  12.465   8.279  0.00  0.00    -0.222 OA
BRANCH  38  41
HETATM   41  C   UNK N   1      20.288  12.483   5.664  0.00  0.00     0.105 C 
HETATM   42  C   UNK N   1      20.566  10.999   5.768  0.00  0.00     0.026 C 
HETATM   43  C   UNK N   1      20.811  12.992   4.334  0.00  0.00     0.026 C 
ENDBRANCH  38  41
ENDBRANCH  33  38
ENDBRANCH  30  32
ENDBRANCH   8  30
TORSDOF 8
ENDMDL
MODEL 9
REMARK VINA RESULT:      -7.4      8.325     11.999
REMARK  8 active torsions:
REMARK  status: ('A' for Active; 'I' for Inactive)
REMARK       I    between atoms: C_3  and  N_9 
REMARK    1  A    between atoms: C_8  and  N_10 
REMARK    2  A    between atoms: N_9  and  C_18 
REMARK    3  A    between atoms: N_10  and  C_11 
REMARK    4  A    between atoms: C_12  and  S_35 
REMARK    5  A    between atoms: C_20  and  O_30 
REMARK    6  A    between atoms: C_23  and  C_24 
REMARK    7  A    between atoms: O_30  and  C_31 
REMARK    8  A    between atoms: S_35  and  C_36 
ROOT
HETATM    1  N   UNK N   1      34.858  17.030  10.648  0.00  0.00    -0.200 N 
ATOM      2  HN  UNK N   1      34.620  17.866  11.180  1.00  0.00     0.183 HD
HETATM    3  C   UNK N   1      34.345  16.849   9.405  0.00  0.00     0.684 A 
HETATM    4  C   UNK N   1      35.690  16.097  11.188  0.00  0.00     0.133 A 
HETATM    5  N   UNK N   1      34.697  15.754   8.700  0.00  0.00    -0.175 N 
ATOM      6  HN  UNK N   1      34.306  15.641   7.764  1.00  0.00     0.186 HD
HETATM    7  C   UNK N   1      36.044  14.944  10.469  0.00  0.00     0.094 A 
HETATM    8  C   UNK N   1      35.534  14.803   9.153  0.00  0.00     0.144 A 
HETATM    9  N   UNK N   1      33.357  17.739   8.893  0.00  0.00    -0.189 N 
HETATM   10 Cl   UNK N   1      36.997  13.742  11.318  0.00  0.00    -0.079 Cl
HETATM   11  H   UNK N   1      33.239  18.611   9.332  0.00  0.00     0.184 HD
ENDROOT
BRANCH   9  12
HETATM   12  C   UNK N   1      32.527  17.422   7.767  0.00  0.00     0.083 A 
HETATM   13  C   UNK N   1      33.002  17.565   6.456  0.00  0.00     0.040 A 
HETATM   14  C   UNK N   1      32.251  17.186   5.356  0.00  0.00    -0.053 A 
HETATM   15  C   UNK N   1      30.982  16.612   5.543  0.00  0.00    -0.045 A 
HETATM   16  C   UNK N   1      32.846  17.369   3.999  0.00  0.00     0.049 C 
HETATM   17  C   UNK N   1      30.483  16.478   6.854  0.00  0.00     0.047 A 
HETATM   18  C   UNK N   1      31.243  16.900   7.969  0.00  0.00     0.097 A 
BRANCH  15  19
HETATM   19  C   UNK N   1      30.200  16.124   4.347  0.00  0.00     0.022 C 
HETATM   20  C   UNK N   1      28.750  16.608   4.366  0.00  0.00     0.028 C 
HETATM   21  C   UNK N   1      28.013  16.207   3.077  0.00  0.00     0.114 C 
HETATM   22  N   UNK N   1      28.835  15.369   2.197  0.00  0.00    -0.421 N 
HETATM   23  C   UNK N   1      29.312  14.205   2.950  0.00  0.00     0.114 C 
HETATM   24  H   UNK N   1      29.042  15.565   1.219  0.00  0.00     0.153 HD
HETATM   25  C   UNK N   1      30.243  14.612   4.104  0.00  0.00     0.028 C 
ENDBRANCH  15  19
BRANCH  18  26
HETATM   26  O   UNK N   1      30.765  16.818   9.239  0.00  0.00    -0.344 OA
BRANCH  26  27
HETATM   27  C   UNK N   1      29.807  17.634   9.809  0.00  0.00     0.120 C 
HETATM   28  C   UNK N   1      30.030  19.043   9.298  0.00  0.00     0.040 C 
HETATM   29  C   UNK N   1      28.401  17.216   9.412  0.00  0.00     0.040 C 
ENDBRANCH  26  27
ENDBRANCH  18  26
ENDBRANCH   9  12
BRANCH   8  30
HETATM   30  N   UNK N   1      35.752  13.711   8.267  0.00  0.00    -0.339 N 
HETATM   31  H   UNK N   1      34.936  13.182   8.114  0.00  0.00     0.167 HD
BRANCH  30  32
HETATM   32  C   UNK N   1      36.867  13.206   7.554  0.00  0.00     0.055 A 
HETATM   33  C   UNK N   1      36.776  13.116   6.147  0.00  0.00     0.086 A 
HETATM   34  C   UNK N   1      37.871  12.660   5.406  0.00  0.00     0.026 A 
HETATM   35  C   UNK N   1      39.054  12.298   6.050  0.00  0.00     0.002 A 
HETATM   36  C   UNK N   1      39.157  12.413   7.437  0.00  0.00     0.002 A 
HETATM   37  C   UNK N   1      38.071  12.876   8.181  0.00  0.00     0.031 A 
BRANCH  33  38
HETATM   38  S   UNK N   1      35.296  13.661   5.267  0.00  0.00     0.181 S 
HETATM   39  O   UNK N   1      35.679  13.758   3.781  0.00  0.00    -0.222 OA
HETATM   40  O   UNK N   1      35.098  15.153   5.573  0.00  0.00    -0.222 OA
BRANCH  38  41
HETATM   41  C   UNK N   1      33.656  12.876   5.370  0.00  0.00     0.105 C 
HETATM   42  C   UNK N   1      32.832  13.556   6.442  0.00  0.00     0.026 C 
HETATM   43  C   UNK N   1      33.801  11.407   5.717  0.00  0.00     0.026 C 
ENDBRANCH  38  41
ENDBRANCH  33  38
ENDBRANCH  30  32
ENDBRANCH   8  30
TORSDOF 8
ENDMDL
