REMARK  10 active torsions:
REMARK  status: ('A' for Active; 'I' for Inactive)
REMARK    1  A    between atoms: Tc_1  and  Tc_1 
REMARK    2  A    between atoms: O_4  and  C_23 
REMARK    3  A    between atoms: O_5  and  C_24 
REMARK    4  A    between atoms: N_8  and  C_11 
REMARK    5  A    between atoms: N_8  and  C_18 
REMARK    6  A    between atoms: N_8  and  C_19 
REMARK    7  A    between atoms: N_9  and  C_10 
REMARK       I    between atoms: N_9  and  C_14 
REMARK    8  A    between atoms: C_11  and  C_14 
REMARK    9  A    between atoms: C_18  and  C_24 
REMARK   10  A    between atoms: C_19  and  C_23 
ROOT
HETATM    1 Tc   UNK N   1       4.861  -1.569   0.099  0.00  0.00     0.000 Tc
ENDROOT
TORSDOF 10
