REMARK  10 active torsions:
REMARK  status: ('A' for Active; 'I' for Inactive)
REMARK    1  A    between atoms: C_1  and  O_9 
REMARK    2  A    between atoms: C_2  and  O_10 
REMARK    3  A    between atoms: C_7  and  C_11 
REMARK    4  A    between atoms: C_11  and  N_12 
REMARK    5  A    between atoms: N_12  and  C_13 
REMARK    6  A    between atoms: C_13  and  C_17 
REMARK    7  A    between atoms: C_17  and  C_18 
REMARK    8  A    between atoms: C_18  and  N_19 
REMARK    9  A    between atoms: C_28  and  O_31 
REMARK   10  A    between atoms: C_29  and  O_33 
ROOT
HETATM    1  C   UNK N   1      27.357 -16.620  -0.377  0.00  0.00     0.050 C 
ENDROOT
BRANCH   1   2
HETATM    2  C   UNK N   1      27.795 -17.723   0.582  0.00  0.00     0.273 C 
BRANCH   2   3
HETATM    3  N   UNK N   1      28.029 -18.953  -0.159  0.00  0.00     0.085 N 
HETATM    4  C   UNK N   1      27.570 -20.087   0.638  0.00  0.00     0.309 C 
BRANCH   3   5
HETATM    5  C   UNK N   1      29.452 -19.036  -0.494  0.00  0.00     0.281 C 
BRANCH   5   6
HETATM    6  C   UNK N   1      30.314 -19.583   0.643  0.00  0.00     0.052 A 
HETATM    7  C   UNK N   1      31.738 -19.293   0.393  0.00  0.00    -0.043 A 
HETATM    8  C   UNK N   1      32.630 -18.233   0.366  0.00  0.00     0.047 A 
HETATM    9  C   UNK N   1      32.079 -20.526   0.125  0.00  0.00    -0.048 A 
HETATM   10  C   UNK N   1      33.975 -18.514   0.043  0.00  0.00     0.102 A 
HETATM   11  C   UNK N   1      34.356 -19.889  -0.234  0.00  0.00     0.102 A 
HETATM   12  C   UNK N   1      33.370 -20.899  -0.205  0.00  0.00     0.047 A 
HETATM   13  C   UNK N   1      30.730 -21.098   0.318  0.00  0.00     0.050 A 
BRANCH  10  14
HETATM   14  O   UNK N   1      34.823 -17.455  -0.008  0.00  0.00    -0.353 OA
HETATM   15  C   UNK N   1      36.045 -17.431  -0.634  0.00  0.00     0.210 C 
ENDBRANCH  10  14
BRANCH  11  16
HETATM   16  O   UNK N   1      35.622 -20.274  -0.504  0.00  0.00    -0.353 OA
HETATM   17  C   UNK N   1      36.665 -20.020   0.355  0.00  0.00     0.210 C 
ENDBRANCH  11  16
ENDBRANCH   5   6
ENDBRANCH   3   5
ENDBRANCH   2   3
ENDBRANCH   1   2
BRANCH   1  18
HETATM   18  C   UNK N   1      26.106 -17.011  -1.167  0.00  0.00     0.127 C 
BRANCH  18  19
HETATM   19  N   UNK N   1      24.993 -17.256  -0.275  0.00  0.00    -0.352 N 
HETATM   20  C   UNK N   1      24.103 -16.270   0.007  0.00  0.00     0.224 C 
HETATM   21  C   UNK N   1      23.031 -16.514   1.018  0.00  0.00     0.142 C 
HETATM   22  O   UNK N   1      24.198 -15.172  -0.518  0.00  0.00    -0.273 OA
HETATM   23  C   UNK N   1      22.011 -17.495   0.539  0.00  0.00    -0.040 A 
HETATM   24  C   UNK N   1      22.320 -18.786   0.037  0.00  0.00    -0.047 A 
HETATM   25  C   UNK N   1      20.681 -17.087   0.603  0.00  0.00     0.047 A 
HETATM   26  C   UNK N   1      23.711 -19.350  -0.121  0.00  0.00     0.059 C 
HETATM   27  C   UNK N   1      21.274 -19.625  -0.349  0.00  0.00     0.047 A 
HETATM   28  C   UNK N   1      24.887 -18.532   0.393  0.00  0.00     0.130 C 
HETATM   29  C   UNK N   1      19.936 -19.233  -0.257  0.00  0.00     0.102 A 
HETATM   30  C   UNK N   1      19.634 -17.915   0.201  0.00  0.00     0.102 A 
BRANCH  29  31
HETATM   31  O   UNK N   1      19.002 -20.159  -0.586  0.00  0.00    -0.353 OA
HETATM   32  C   UNK N   1      17.818 -20.328   0.094  0.00  0.00     0.210 C 
ENDBRANCH  29  31
BRANCH  30  33
HETATM   33  O   UNK N   1      18.386 -17.387   0.251  0.00  0.00    -0.353 OA
HETATM   34  C   UNK N   1      17.396 -17.651  -0.666  0.00  0.00     0.210 C 
ENDBRANCH  30  33
ENDBRANCH  18  19
ENDBRANCH   1  18
TORSDOF 10
