MODEL 1
REMARK VINA RESULT:      -7.1      0.000      0.000
REMARK  5 active torsions:
REMARK  status: ('A' for Active; 'I' for Inactive)
REMARK    1  A    between atoms: C_13  and  C_11 
REMARK    2  A    between atoms: C_14  and  C_12 
REMARK    3  A    between atoms: O_17  and  C_13 
REMARK    4  A    between atoms: O_18  and  C_14 
REMARK    5  A    between atoms: O_18  and  O_17 
ROOT
HETATM    1  O   UNK N   1      29.702  23.986  -3.294  0.00  0.00    -0.144 OA
ENDROOT
BRANCH   1   2
HETATM    2  C   UNK N   1      30.347  23.013  -2.603  0.00  0.00     0.323 C 
HETATM    3  O   UNK N   1      30.289  23.028  -1.384  0.00  0.00    -0.257 OA
BRANCH   2   4
HETATM    4  C   UNK N   1      31.131  21.946  -3.283  0.00  0.00     0.042 A 
HETATM    5  C   UNK N   1      32.451  21.690  -2.882  0.00  0.00     0.017 A 
HETATM    6  C   UNK N   1      33.204  20.699  -3.520  0.00  0.00     0.001 A 
HETATM    7  C   UNK N   1      32.641  19.950  -4.556  0.00  0.00     0.000 A 
HETATM    8  C   UNK N   1      31.325  20.190  -4.955  0.00  0.00     0.001 A 
HETATM    9  C   UNK N   1      30.577  21.184  -4.323  0.00  0.00     0.017 A 
ENDBRANCH   2   4
ENDBRANCH   1   2
BRANCH   1  10
HETATM   10  O   UNK N   1      28.575  23.800  -3.850  0.00  0.00    -0.144 OA
BRANCH  10  11
HETATM   11  C   UNK N   1      27.409  24.263  -3.331  0.00  0.00     0.323 C 
HETATM   12  O   UNK N   1      27.013  23.789  -2.280  0.00  0.00    -0.257 OA
BRANCH  11  13
HETATM   13  C   UNK N   1      26.601  25.317  -4.004  0.00  0.00     0.042 A 
HETATM   14  C   UNK N   1      26.426  26.561  -3.380  0.00  0.00     0.017 A 
HETATM   15  C   UNK N   1      25.667  27.560  -3.996  0.00  0.00     0.001 A 
HETATM   16  C   UNK N   1      25.080  27.326  -5.242  0.00  0.00     0.000 A 
HETATM   17  C   UNK N   1      25.251  26.093  -5.874  0.00  0.00     0.001 A 
HETATM   18  C   UNK N   1      26.008  25.095  -5.256  0.00  0.00     0.017 A 
ENDBRANCH  11  13
ENDBRANCH  10  11
ENDBRANCH   1  10
TORSDOF 5
ENDMDL
MODEL 2
REMARK VINA RESULT:      -7.0      0.443      7.337
REMARK  5 active torsions:
REMARK  status: ('A' for Active; 'I' for Inactive)
REMARK    1  A    between atoms: C_13  and  C_11 
REMARK    2  A    between atoms: C_14  and  C_12 
REMARK    3  A    between atoms: O_17  and  C_13 
REMARK    4  A    between atoms: O_18  and  C_14 
REMARK    5  A    between atoms: O_18  and  O_17 
ROOT
HETATM    1  O   UNK N   1      28.676  24.211  -3.392  0.00  0.00    -0.144 OA
ENDROOT
BRANCH   1   2
HETATM    2  C   UNK N   1      27.338  24.349  -3.219  0.00  0.00     0.323 C 
HETATM    3  O   UNK N   1      26.760  23.555  -2.494  0.00  0.00    -0.257 OA
BRANCH   2   4
HETATM    4  C   UNK N   1      26.557  25.421  -3.894  0.00  0.00     0.042 A 
HETATM    5  C   UNK N   1      25.917  25.154  -5.113  0.00  0.00     0.017 A 
HETATM    6  C   UNK N   1      25.191  26.156  -5.765  0.00  0.00     0.001 A 
HETATM    7  C   UNK N   1      25.090  27.428  -5.199  0.00  0.00     0.000 A 
HETATM    8  C   UNK N   1      25.714  27.701  -3.980  0.00  0.00     0.001 A 
HETATM    9  C   UNK N   1      26.444  26.704  -3.335  0.00  0.00     0.017 A 
ENDBRANCH   2   4
ENDBRANCH   1   2
BRANCH   1  10
HETATM   10  O   UNK N   1      29.233  23.082  -3.559  0.00  0.00    -0.144 OA
BRANCH  10  11
HETATM   11  C   UNK N   1      30.257  22.641  -2.786  0.00  0.00     0.323 C 
HETATM   12  O   UNK N   1      30.332  23.043  -1.637  0.00  0.00    -0.257 OA
BRANCH  11  13
HETATM   13  C   UNK N   1      31.289  21.695  -3.294  0.00  0.00     0.042 A 
HETATM   14  C   UNK N   1      30.976  20.830  -4.354  0.00  0.00     0.017 A 
HETATM   15  C   UNK N   1      31.931  19.934  -4.840  0.00  0.00     0.001 A 
HETATM   16  C   UNK N   1      33.208  19.896  -4.275  0.00  0.00     0.000 A 
HETATM   17  C   UNK N   1      33.531  20.754  -3.223  0.00  0.00     0.001 A 
HETATM   18  C   UNK N   1      32.575  21.648  -2.737  0.00  0.00     0.017 A 
ENDBRANCH  11  13
ENDBRANCH  10  11
ENDBRANCH   1  10
TORSDOF 5
ENDMDL
MODEL 3
REMARK VINA RESULT:      -7.0     12.989     15.278
REMARK  5 active torsions:
REMARK  status: ('A' for Active; 'I' for Inactive)
REMARK    1  A    between atoms: C_13  and  C_11 
REMARK    2  A    between atoms: C_14  and  C_12 
REMARK    3  A    between atoms: O_17  and  C_13 
REMARK    4  A    between atoms: O_18  and  C_14 
REMARK    5  A    between atoms: O_18  and  O_17 
ROOT
HETATM    1  O   UNK N   1      35.818  16.876  10.098  0.00  0.00    -0.144 OA
ENDROOT
BRANCH   1   2
HETATM    2  C   UNK N   1      35.796  15.527   9.966  0.00  0.00     0.323 C 
HETATM    3  O   UNK N   1      36.585  14.864  10.621  0.00  0.00    -0.257 OA
BRANCH   2   4
HETATM    4  C   UNK N   1      34.857  14.835   9.041  0.00  0.00     0.042 A 
HETATM    5  C   UNK N   1      35.254  14.560   7.724  0.00  0.00     0.017 A 
HETATM    6  C   UNK N   1      34.377  13.923   6.840  0.00  0.00     0.001 A 
HETATM    7  C   UNK N   1      33.102  13.548   7.267  0.00  0.00     0.000 A 
HETATM    8  C   UNK N   1      32.701  13.809   8.579  0.00  0.00     0.001 A 
HETATM    9  C   UNK N   1      33.574  14.451   9.458  0.00  0.00     0.017 A 
ENDBRANCH   2   4
ENDBRANCH   1   2
BRANCH   1  10
HETATM   10  O   UNK N   1      34.804  17.604   9.864  0.00  0.00    -0.144 OA
BRANCH  10  11
HETATM   11  C   UNK N   1      34.604  18.234   8.678  0.00  0.00     0.323 C 
HETATM   12  O   UNK N   1      35.316  19.185   8.399  0.00  0.00    -0.257 OA
BRANCH  11  13
HETATM   13  C   UNK N   1      33.546  17.811   7.720  0.00  0.00     0.042 A 
HETATM   14  C   UNK N   1      32.232  17.626   8.175  0.00  0.00     0.017 A 
HETATM   15  C   UNK N   1      31.227  17.225   7.289  0.00  0.00     0.001 A 
HETATM   16  C   UNK N   1      31.527  17.009   5.942  0.00  0.00     0.000 A 
HETATM   17  C   UNK N   1      32.831  17.194   5.478  0.00  0.00     0.001 A 
HETATM   18  C   UNK N   1      33.833  17.592   6.364  0.00  0.00     0.017 A 
ENDBRANCH  11  13
ENDBRANCH  10  11
ENDBRANCH   1  10
TORSDOF 5
ENDMDL
MODEL 4
REMARK VINA RESULT:      -7.0     13.035     15.986
REMARK  5 active torsions:
REMARK  status: ('A' for Active; 'I' for Inactive)
REMARK    1  A    between atoms: C_13  and  C_11 
REMARK    2  A    between atoms: C_14  and  C_12 
REMARK    3  A    between atoms: O_17  and  C_13 
REMARK    4  A    between atoms: O_18  and  C_14 
REMARK    5  A    between atoms: O_18  and  O_17 
ROOT
HETATM    1  O   UNK N   1      34.846  17.604   9.918  0.00  0.00    -0.144 OA
ENDROOT
BRANCH   1   2
HETATM    2  C   UNK N   1      34.636  18.235   8.736  0.00  0.00     0.323 C 
HETATM    3  O   UNK N   1      35.337  19.194   8.454  0.00  0.00    -0.257 OA
BRANCH   2   4
HETATM    4  C   UNK N   1      33.572  17.806   7.786  0.00  0.00     0.042 A 
HETATM    5  C   UNK N   1      33.889  17.588   6.438  0.00  0.00     0.017 A 
HETATM    6  C   UNK N   1      32.897  17.198   5.532  0.00  0.00     0.001 A 
HETATM    7  C   UNK N   1      31.584  17.013   5.970  0.00  0.00     0.000 A 
HETATM    8  C   UNK N   1      31.260  17.217   7.312  0.00  0.00     0.001 A 
HETATM    9  C   UNK N   1      32.249  17.614   8.213  0.00  0.00     0.017 A 
ENDBRANCH   2   4
ENDBRANCH   1   2
BRANCH   1  10
HETATM   10  O   UNK N   1      35.850  16.853  10.124  0.00  0.00    -0.144 OA
BRANCH  10  11
HETATM   11  C   UNK N   1      35.801  15.502  10.002  0.00  0.00     0.323 C 
HETATM   12  O   UNK N   1      36.568  14.830  10.672  0.00  0.00    -0.257 OA
BRANCH  11  13
HETATM   13  C   UNK N   1      34.855  14.820   9.077  0.00  0.00     0.042 A 
HETATM   14  C   UNK N   1      35.265  14.506   7.772  0.00  0.00     0.017 A 
HETATM   15  C   UNK N   1      34.388  13.869   6.890  0.00  0.00     0.001 A 
HETATM   16  C   UNK N   1      33.095  13.537   7.304  0.00  0.00     0.000 A 
HETATM   17  C   UNK N   1      32.678  13.842   8.601  0.00  0.00     0.001 A 
HETATM   18  C   UNK N   1      33.555  14.480   9.480  0.00  0.00     0.017 A 
ENDBRANCH  11  13
ENDBRANCH  10  11
ENDBRANCH   1  10
TORSDOF 5
ENDMDL
MODEL 5
REMARK VINA RESULT:      -6.7      4.033      5.285
REMARK  5 active torsions:
REMARK  status: ('A' for Active; 'I' for Inactive)
REMARK    1  A    between atoms: C_13  and  C_11 
REMARK    2  A    between atoms: C_14  and  C_12 
REMARK    3  A    between atoms: O_17  and  C_13 
REMARK    4  A    between atoms: O_18  and  C_14 
REMARK    5  A    between atoms: O_18  and  O_17 
ROOT
HETATM    1  O   UNK N   1      25.728  23.648  -7.958  0.00  0.00    -0.144 OA
ENDROOT
BRANCH   1   2
HETATM    2  C   UNK N   1      25.789  23.156  -6.696  0.00  0.00     0.323 C 
HETATM    3  O   UNK N   1      25.054  22.229  -6.396  0.00  0.00    -0.257 OA
BRANCH   2   4
HETATM    4  C   UNK N   1      26.708  23.719  -5.668  0.00  0.00     0.042 A 
HETATM    5  C   UNK N   1      26.204  24.095  -4.415  0.00  0.00     0.017 A 
HETATM    6  C   UNK N   1      27.053  24.638  -3.445  0.00  0.00     0.001 A 
HETATM    7  C   UNK N   1      28.413  24.799  -3.717  0.00  0.00     0.000 A 
HETATM    8  C   UNK N   1      28.927  24.417  -4.957  0.00  0.00     0.001 A 
HETATM    9  C   UNK N   1      28.078  23.883  -5.927  0.00  0.00     0.017 A 
ENDBRANCH   2   4
ENDBRANCH   1   2
BRANCH   1  10
HETATM   10  O   UNK N   1      25.154  24.746  -8.238  0.00  0.00    -0.144 OA
BRANCH  10  11
HETATM   11  C   UNK N   1      25.811  25.932  -8.294  0.00  0.00     0.323 C 
HETATM   12  O   UNK N   1      26.242  26.307  -9.372  0.00  0.00    -0.257 OA
BRANCH  11  13
HETATM   13  C   UNK N   1      26.030  26.779  -7.089  0.00  0.00     0.042 A 
HETATM   14  C   UNK N   1      27.248  27.458  -6.930  0.00  0.00     0.017 A 
HETATM   15  C   UNK N   1      27.471  28.254  -5.803  0.00  0.00     0.001 A 
HETATM   16  C   UNK N   1      26.478  28.381  -4.828  0.00  0.00     0.000 A 
HETATM   17  C   UNK N   1      25.262  27.713  -4.978  0.00  0.00     0.001 A 
HETATM   18  C   UNK N   1      25.041  26.917  -6.103  0.00  0.00     0.017 A 
ENDBRANCH  11  13
ENDBRANCH  10  11
ENDBRANCH   1  10
TORSDOF 5
ENDMDL
MODEL 6
REMARK VINA RESULT:      -6.7      3.014      3.744
REMARK  5 active torsions:
REMARK  status: ('A' for Active; 'I' for Inactive)
REMARK    1  A    between atoms: C_13  and  C_11 
REMARK    2  A    between atoms: C_14  and  C_12 
REMARK    3  A    between atoms: O_17  and  C_13 
REMARK    4  A    between atoms: O_18  and  C_14 
REMARK    5  A    between atoms: O_18  and  O_17 
ROOT
HETATM    1  O   UNK N   1      26.288  24.953  -3.023  0.00  0.00    -0.144 OA
ENDROOT
BRANCH   1   2
HETATM    2  C   UNK N   1      27.379  24.164  -3.183  0.00  0.00     0.323 C 
HETATM    3  O   UNK N   1      27.701  23.423  -2.267  0.00  0.00    -0.257 OA
BRANCH   2   4
HETATM    4  C   UNK N   1      28.199  24.186  -4.425  0.00  0.00     0.042 A 
HETATM    5  C   UNK N   1      29.455  24.810  -4.419  0.00  0.00     0.017 A 
HETATM    6  C   UNK N   1      30.230  24.850  -5.582  0.00  0.00     0.001 A 
HETATM    7  C   UNK N   1      29.761  24.257  -6.757  0.00  0.00     0.000 A 
HETATM    8  C   UNK N   1      28.518  23.624  -6.770  0.00  0.00     0.001 A 
HETATM    9  C   UNK N   1      27.742  23.592  -5.611  0.00  0.00     0.017 A 
ENDBRANCH   2   4
ENDBRANCH   1   2
BRANCH   1  10
HETATM   10  O   UNK N   1      26.372  26.197  -2.777  0.00  0.00    -0.144 OA
BRANCH  10  11
HETATM   11  C   UNK N   1      25.995  27.154  -3.663  0.00  0.00     0.323 C 
HETATM   12  O   UNK N   1      25.371  28.116  -3.246  0.00  0.00    -0.257 OA
BRANCH  11  13
HETATM   13  C   UNK N   1      26.308  27.063  -5.115  0.00  0.00     0.042 A 
HETATM   14  C   UNK N   1      27.475  27.662  -5.612  0.00  0.00     0.017 A 
HETATM   15  C   UNK N   1      27.782  27.589  -6.974  0.00  0.00     0.001 A 
HETATM   16  C   UNK N   1      26.927  26.914  -7.849  0.00  0.00     0.000 A 
HETATM   17  C   UNK N   1      25.765  26.312  -7.365  0.00  0.00     0.001 A 
HETATM   18  C   UNK N   1      25.459  26.387  -6.005  0.00  0.00     0.017 A 
ENDBRANCH  11  13
ENDBRANCH  10  11
ENDBRANCH   1  10
TORSDOF 5
ENDMDL
MODEL 7
REMARK VINA RESULT:      -6.7      2.950      6.179
REMARK  5 active torsions:
REMARK  status: ('A' for Active; 'I' for Inactive)
REMARK    1  A    between atoms: C_13  and  C_11 
REMARK    2  A    between atoms: C_14  and  C_12 
REMARK    3  A    between atoms: O_17  and  C_13 
REMARK    4  A    between atoms: O_18  and  C_14 
REMARK    5  A    between atoms: O_18  and  O_17 
ROOT
HETATM    1  O   UNK N   1      26.367  26.136  -2.747  0.00  0.00    -0.144 OA
ENDROOT
BRANCH   1   2
HETATM    2  C   UNK N   1      26.006  27.111  -3.618  0.00  0.00     0.323 C 
HETATM    3  O   UNK N   1      25.377  28.068  -3.193  0.00  0.00    -0.257 OA
BRANCH   2   4
HETATM    4  C   UNK N   1      26.335  27.041  -5.068  0.00  0.00     0.042 A 
HETATM    5  C   UNK N   1      25.448  26.412  -5.954  0.00  0.00     0.017 A 
HETATM    6  C   UNK N   1      25.750  26.328  -7.316  0.00  0.00     0.001 A 
HETATM    7  C   UNK N   1      26.937  26.879  -7.806  0.00  0.00     0.000 A 
HETATM    8  C   UNK N   1      27.821  27.517  -6.934  0.00  0.00     0.001 A 
HETATM    9  C   UNK N   1      27.522  27.593  -5.574  0.00  0.00     0.017 A 
ENDBRANCH   2   4
ENDBRANCH   1   2
BRANCH   1  10
HETATM   10  O   UNK N   1      26.319  24.901  -3.042  0.00  0.00    -0.144 OA
BRANCH  10  11
HETATM   11  C   UNK N   1      27.427  24.131  -3.187  0.00  0.00     0.323 C 
HETATM   12  O   UNK N   1      27.756  23.407  -2.261  0.00  0.00    -0.257 OA
BRANCH  11  13
HETATM   13  C   UNK N   1      28.252  24.148  -4.425  0.00  0.00     0.042 A 
HETATM   14  C   UNK N   1      27.744  23.583  -5.605  0.00  0.00     0.017 A 
HETATM   15  C   UNK N   1      28.507  23.587  -6.776  0.00  0.00     0.001 A 
HETATM   16  C   UNK N   1      29.782  24.157  -6.779  0.00  0.00     0.000 A 
HETATM   17  C   UNK N   1      30.296  24.724  -5.612  0.00  0.00     0.001 A 
HETATM   18  C   UNK N   1      29.534  24.718  -4.443  0.00  0.00     0.017 A 
ENDBRANCH  11  13
ENDBRANCH  10  11
ENDBRANCH   1  10
TORSDOF 5
ENDMDL
MODEL 8
REMARK VINA RESULT:      -6.7      3.277      5.202
REMARK  5 active torsions:
REMARK  status: ('A' for Active; 'I' for Inactive)
REMARK    1  A    between atoms: C_13  and  C_11 
REMARK    2  A    between atoms: C_14  and  C_12 
REMARK    3  A    between atoms: O_17  and  C_13 
REMARK    4  A    between atoms: O_18  and  C_14 
REMARK    5  A    between atoms: O_18  and  O_17 
ROOT
HETATM    1  O   UNK N   1      29.497  24.783  -4.146  0.00  0.00    -0.144 OA
ENDROOT
BRANCH   1   2
HETATM    2  C   UNK N   1      29.900  25.431  -5.267  0.00  0.00     0.323 C 
HETATM    3  O   UNK N   1      30.831  24.966  -5.906  0.00  0.00    -0.257 OA
BRANCH   2   4
HETATM    4  C   UNK N   1      29.257  26.692  -5.729  0.00  0.00     0.042 A 
HETATM    5  C   UNK N   1      28.573  26.716  -6.953  0.00  0.00     0.017 A 
HETATM    6  C   UNK N   1      27.975  27.897  -7.406  0.00  0.00     0.001 A 
HETATM    7  C   UNK N   1      28.048  29.058  -6.634  0.00  0.00     0.000 A 
HETATM    8  C   UNK N   1      28.716  29.042  -5.409  0.00  0.00     0.001 A 
HETATM    9  C   UNK N   1      29.319  27.865  -4.962  0.00  0.00     0.017 A 
ENDBRANCH   2   4
ENDBRANCH   1   2
BRANCH   1  10
HETATM   10  O   UNK N   1      28.444  24.073  -4.105  0.00  0.00    -0.144 OA
BRANCH  10  11
HETATM   11  C   UNK N   1      27.303  24.477  -3.492  0.00  0.00     0.323 C 
HETATM   12  O   UNK N   1      26.950  23.893  -2.480  0.00  0.00    -0.257 OA
BRANCH  11  13
HETATM   13  C   UNK N   1      26.470  25.594  -4.015  0.00  0.00     0.042 A 
HETATM   14  C   UNK N   1      25.769  25.432  -5.220  0.00  0.00     0.017 A 
HETATM   15  C   UNK N   1      24.985  26.472  -5.727  0.00  0.00     0.001 A 
HETATM   16  C   UNK N   1      24.893  27.681  -5.034  0.00  0.00     0.000 A 
HETATM   17  C   UNK N   1      25.583  27.852  -3.833  0.00  0.00     0.001 A 
HETATM   18  C   UNK N   1      26.367  26.813  -3.328  0.00  0.00     0.017 A 
ENDBRANCH  11  13
ENDBRANCH  10  11
ENDBRANCH   1  10
TORSDOF 5
ENDMDL
MODEL 9
REMARK VINA RESULT:      -6.6     11.192     13.049
REMARK  5 active torsions:
REMARK  status: ('A' for Active; 'I' for Inactive)
REMARK    1  A    between atoms: C_13  and  C_11 
REMARK    2  A    between atoms: C_14  and  C_12 
REMARK    3  A    between atoms: O_17  and  C_13 
REMARK    4  A    between atoms: O_18  and  C_14 
REMARK    5  A    between atoms: O_18  and  O_17 
ROOT
HETATM    1  O   UNK N   1      31.698  16.959   7.903  0.00  0.00    -0.144 OA
ENDROOT
BRANCH   1   2
HETATM    2  C   UNK N   1      30.414  17.035   7.471  0.00  0.00     0.323 C 
HETATM    3  O   UNK N   1      29.572  17.493   8.227  0.00  0.00    -0.257 OA
BRANCH   2   4
HETATM    4  C   UNK N   1      30.003  16.565   6.120  0.00  0.00     0.042 A 
HETATM    5  C   UNK N   1      30.263  15.243   5.733  0.00  0.00     0.017 A 
HETATM    6  C   UNK N   1      29.894  14.792   4.462  0.00  0.00     0.001 A 
HETATM    7  C   UNK N   1      29.253  15.656   3.571  0.00  0.00     0.000 A 
HETATM    8  C   UNK N   1      28.980  16.972   3.950  0.00  0.00     0.001 A 
HETATM    9  C   UNK N   1      29.356  17.422   5.216  0.00  0.00     0.017 A 
ENDBRANCH   2   4
ENDBRANCH   1   2
BRANCH   1  10
HETATM   10  O   UNK N   1      32.543  17.886   7.706  0.00  0.00    -0.144 OA
BRANCH  10  11
HETATM   11  C   UNK N   1      33.591  17.763   6.852  0.00  0.00     0.323 C 
HETATM   12  O   UNK N   1      34.665  18.241   7.179  0.00  0.00    -0.257 OA
BRANCH  11  13
HETATM   13  C   UNK N   1      33.471  17.075   5.538  0.00  0.00     0.042 A 
HETATM   14  C   UNK N   1      33.963  15.769   5.390  0.00  0.00     0.017 A 
HETATM   15  C   UNK N   1      33.862  15.111   4.161  0.00  0.00     0.001 A 
HETATM   16  C   UNK N   1      33.265  15.750   3.071  0.00  0.00     0.000 A 
HETATM   17  C   UNK N   1      32.769  17.047   3.208  0.00  0.00     0.001 A 
HETATM   18  C   UNK N   1      32.873  17.705   4.435  0.00  0.00     0.017 A 
ENDBRANCH  11  13
ENDBRANCH  10  11
ENDBRANCH   1  10
TORSDOF 5
ENDMDL
