MODEL 1
REMARK VINA RESULT:      -5.9      0.000      0.000
REMARK  15 active torsions:
REMARK  status: ('A' for Active; 'I' for Inactive)
REMARK    1  A    between atoms: C_5  and  C_4 
REMARK    2  A    between atoms: C_6  and  C_4 
REMARK    3  A    between atoms: C_7  and  C_5 
REMARK    4  A    between atoms: C_8  and  C_6 
REMARK    5  A    between atoms: C_9  and  C_7 
REMARK    6  A    between atoms: C_10  and  C_8 
REMARK    7  A    between atoms: C_11  and  C_9 
REMARK    8  A    between atoms: C_12  and  C_10 
REMARK    9  A    between atoms: C_13  and  C_11 
REMARK   10  A    between atoms: C_15  and  C_12 
REMARK   11  A    between atoms: C_20  and  C_13 
REMARK   12  A    between atoms: O_23  and  C_18 
REMARK   13  A    between atoms: O_24  and  C_19 
REMARK   14  A    between atoms: C_20  and  C_25 
REMARK   15  A    between atoms: C_25  and  O_26 
ROOT
HETATM    1  C   UNK N   1      26.334  18.077   3.876  0.00  0.00     0.043 C 
ENDROOT
BRANCH   1   2
HETATM    2  C   UNK N   1      26.963  18.141   5.257  0.00  0.00     0.005 C 
BRANCH   2   3
HETATM    3  C   UNK N   1      27.476  19.547   5.506  0.00  0.00     0.000 C 
BRANCH   3   4
HETATM    4  C   UNK N   1      27.567  19.791   7.003  0.00  0.00     0.000 C 
BRANCH   4   5
HETATM    5  C   UNK N   1      28.784  19.107   7.596  0.00  0.00     0.000 C 
BRANCH   5   6
HETATM    6  C   UNK N   1      28.416  18.334   8.856  0.00  0.00     0.000 C 
BRANCH   6   7
HETATM    7  C   UNK N   1      29.655  17.744   9.513  0.00  0.00     0.000 C 
BRANCH   7   8
HETATM    8  C   UNK N   1      30.924  18.301   8.884  0.00  0.00     0.000 C 
BRANCH   8   9
HETATM    9  C   UNK N   1      31.822  17.174   8.405  0.00  0.00     0.000 C 
BRANCH   9  10
HETATM   10  C   UNK N   1      32.568  17.584   7.157  0.00  0.00     0.002 C 
BRANCH  10  11
HETATM   11  C   UNK N   1      34.035  17.253   7.314  0.00  0.00     0.026 C 
BRANCH  11  12
HETATM   12  C   UNK N   1      34.544  17.851   8.605  0.00  0.00     0.164 C 
BRANCH  12  13
HETATM   13  O   UNK N   1      35.037  19.130   8.358  0.00  0.00    -0.401 OA
HETATM   14  H   UNK N   1      34.653  19.921   8.769  0.00  0.00     0.209 HD
ENDBRANCH  12  13
ENDBRANCH  11  12
ENDBRANCH  10  11
ENDBRANCH   9  10
ENDBRANCH   8   9
ENDBRANCH   7   8
ENDBRANCH   6   7
ENDBRANCH   5   6
ENDBRANCH   4   5
ENDBRANCH   3   4
ENDBRANCH   2   3
ENDBRANCH   1   2
BRANCH   1  15
HETATM   15  C   UNK N   1      24.894  18.521   3.891  0.00  0.00     0.005 A 
HETATM   16  C   UNK N   1      24.522  19.670   3.288  0.00  0.00     0.001 A 
HETATM   17  C   UNK N   1      25.530  20.546   2.607  0.00  0.00     0.053 C 
HETATM   18  C   UNK N   1      23.098  20.077   3.275  0.00  0.00     0.214 A 
HETATM   19  C   UNK N   1      22.054  19.213   3.878  0.00  0.00     0.156 A 
HETATM   20  O   UNK N   1      22.772  21.127   2.735  0.00  0.00    -0.285 OA
HETATM   21  C   UNK N   1      22.432  18.057   4.511  0.00  0.00     0.156 A 
HETATM   22  C   UNK N   1      23.866  17.673   4.548  0.00  0.00     0.214 A 
HETATM   23  O   UNK N   1      24.198  16.645   5.119  0.00  0.00    -0.285 OA
BRANCH  19  24
HETATM   24  O   UNK N   1      20.759  19.619   3.740  0.00  0.00    -0.350 OA
HETATM   25  C   UNK N   1      19.862  19.163   2.802  0.00  0.00     0.210 C 
ENDBRANCH  19  24
BRANCH  21  26
HETATM   26  O   UNK N   1      21.548  17.230   5.122  0.00  0.00    -0.350 OA
HETATM   27  C   UNK N   1      21.135  17.439   6.417  0.00  0.00     0.210 C 
ENDBRANCH  21  26
ENDBRANCH   1  15
TORSDOF 15
ENDMDL
MODEL 2
REMARK VINA RESULT:      -5.8      1.766      3.238
REMARK  15 active torsions:
REMARK  status: ('A' for Active; 'I' for Inactive)
REMARK    1  A    between atoms: C_5  and  C_4 
REMARK    2  A    between atoms: C_6  and  C_4 
REMARK    3  A    between atoms: C_7  and  C_5 
REMARK    4  A    between atoms: C_8  and  C_6 
REMARK    5  A    between atoms: C_9  and  C_7 
REMARK    6  A    between atoms: C_10  and  C_8 
REMARK    7  A    between atoms: C_11  and  C_9 
REMARK    8  A    between atoms: C_12  and  C_10 
REMARK    9  A    between atoms: C_13  and  C_11 
REMARK   10  A    between atoms: C_15  and  C_12 
REMARK   11  A    between atoms: C_20  and  C_13 
REMARK   12  A    between atoms: O_23  and  C_18 
REMARK   13  A    between atoms: O_24  and  C_19 
REMARK   14  A    between atoms: C_20  and  C_25 
REMARK   15  A    between atoms: C_25  and  O_26 
ROOT
HETATM    1  C   UNK N   1      25.008  19.871   4.505  0.00  0.00     0.043 C 
ENDROOT
BRANCH   1   2
HETATM    2  C   UNK N   1      26.127  19.926   3.478  0.00  0.00     0.005 C 
BRANCH   2   3
HETATM    3  C   UNK N   1      27.463  19.924   4.196  0.00  0.00     0.000 C 
BRANCH   3   4
HETATM    4  C   UNK N   1      27.373  20.810   5.428  0.00  0.00     0.000 C 
BRANCH   4   5
HETATM    5  C   UNK N   1      27.727  20.037   6.685  0.00  0.00     0.000 C 
BRANCH   5   6
HETATM    6  C   UNK N   1      28.288  18.663   6.340  0.00  0.00     0.000 C 
BRANCH   6   7
HETATM    7  C   UNK N   1      28.248  17.741   7.549  0.00  0.00     0.000 C 
BRANCH   7   8
HETATM    8  C   UNK N   1      28.399  18.530   8.842  0.00  0.00     0.000 C 
BRANCH   8   9
HETATM    9  C   UNK N   1      29.856  18.588   9.265  0.00  0.00     0.000 C 
BRANCH   9  10
HETATM   10  C   UNK N   1      30.567  17.306   8.896  0.00  0.00     0.002 C 
BRANCH  10  11
HETATM   11  C   UNK N   1      31.874  17.634   8.210  0.00  0.00     0.026 C 
BRANCH  11  12
HETATM   12  C   UNK N   1      32.057  16.714   7.024  0.00  0.00     0.164 C 
BRANCH  12  13
HETATM   13  O   UNK N   1      31.555  17.331   5.880  0.00  0.00    -0.401 OA
HETATM   14  H   UNK N   1      31.854  18.208   5.593  0.00  0.00     0.209 HD
ENDBRANCH  12  13
ENDBRANCH  11  12
ENDBRANCH  10  11
ENDBRANCH   9  10
ENDBRANCH   8   9
ENDBRANCH   7   8
ENDBRANCH   6   7
ENDBRANCH   5   6
ENDBRANCH   4   5
ENDBRANCH   3   4
ENDBRANCH   2   3
ENDBRANCH   1   2
BRANCH   1  15
HETATM   15  C   UNK N   1      23.743  19.290   3.929  0.00  0.00     0.005 A 
HETATM   16  C   UNK N   1      23.433  17.991   4.124  0.00  0.00     0.001 A 
HETATM   17  C   UNK N   1      24.345  17.086   4.896  0.00  0.00     0.053 C 
HETATM   18  C   UNK N   1      22.167  17.439   3.587  0.00  0.00     0.214 A 
HETATM   19  C   UNK N   1      21.201  18.308   2.873  0.00  0.00     0.156 A 
HETATM   20  O   UNK N   1      21.900  16.257   3.760  0.00  0.00    -0.285 OA
HETATM   21  C   UNK N   1      21.524  19.622   2.654  0.00  0.00     0.156 A 
HETATM   22  C   UNK N   1      22.810  20.159   3.167  0.00  0.00     0.214 A 
HETATM   23  O   UNK N   1      23.096  21.330   2.963  0.00  0.00    -0.285 OA
BRANCH  19  24
HETATM   24  O   UNK N   1      20.020  17.739   2.494  0.00  0.00    -0.350 OA
HETATM   25  C   UNK N   1      19.775  17.100   1.301  0.00  0.00     0.210 C 
ENDBRANCH  19  24
BRANCH  21  26
HETATM   26  O   UNK N   1      20.716  20.476   1.977  0.00  0.00    -0.350 OA
HETATM   27  C   UNK N   1      20.835  20.663   0.620  0.00  0.00     0.210 C 
ENDBRANCH  21  26
ENDBRANCH   1  15
TORSDOF 15
ENDMDL
MODEL 3
REMARK VINA RESULT:      -5.8     11.513     14.207
REMARK  15 active torsions:
REMARK  status: ('A' for Active; 'I' for Inactive)
REMARK    1  A    between atoms: C_5  and  C_4 
REMARK    2  A    between atoms: C_6  and  C_4 
REMARK    3  A    between atoms: C_7  and  C_5 
REMARK    4  A    between atoms: C_8  and  C_6 
REMARK    5  A    between atoms: C_9  and  C_7 
REMARK    6  A    between atoms: C_10  and  C_8 
REMARK    7  A    between atoms: C_11  and  C_9 
REMARK    8  A    between atoms: C_12  and  C_10 
REMARK    9  A    between atoms: C_13  and  C_11 
REMARK   10  A    between atoms: C_15  and  C_12 
REMARK   11  A    between atoms: C_20  and  C_13 
REMARK   12  A    between atoms: O_23  and  C_18 
REMARK   13  A    between atoms: O_24  and  C_19 
REMARK   14  A    between atoms: C_20  and  C_25 
REMARK   15  A    between atoms: C_25  and  O_26 
ROOT
HETATM    1  C   UNK N   1      25.137  26.286  -5.616  0.00  0.00     0.043 C 
ENDROOT
BRANCH   1   2
HETATM    2  C   UNK N   1      25.777  24.993  -5.138  0.00  0.00     0.005 C 
BRANCH   2   3
HETATM    3  C   UNK N   1      25.549  23.911  -6.177  0.00  0.00     0.000 C 
BRANCH   3   4
HETATM    4  C   UNK N   1      26.822  23.098  -6.344  0.00  0.00     0.000 C 
BRANCH   4   5
HETATM    5  C   UNK N   1      28.007  23.803  -5.712  0.00  0.00     0.000 C 
BRANCH   5   6
HETATM    6  C   UNK N   1      29.253  22.928  -5.761  0.00  0.00     0.000 C 
BRANCH   6   7
HETATM    7  C   UNK N   1      29.089  21.808  -6.777  0.00  0.00     0.000 C 
BRANCH   7   8
HETATM    8  C   UNK N   1      30.107  20.701  -6.539  0.00  0.00     0.000 C 
BRANCH   8   9
HETATM    9  C   UNK N   1      30.588  20.720  -5.099  0.00  0.00     0.000 C 
BRANCH   9  10
HETATM   10  C   UNK N   1      31.983  20.148  -4.998  0.00  0.00     0.002 C 
BRANCH  10  11
HETATM   11  C   UNK N   1      32.875  21.118  -4.257  0.00  0.00     0.026 C 
BRANCH  11  12
HETATM   12  C   UNK N   1      32.165  21.594  -3.011  0.00  0.00     0.164 C 
BRANCH  12  13
HETATM   13  O   UNK N   1      32.867  21.163  -1.887  0.00  0.00    -0.401 OA
HETATM   14  H   UNK N   1      33.326  20.309  -1.860  0.00  0.00     0.209 HD
ENDBRANCH  12  13
ENDBRANCH  11  12
ENDBRANCH  10  11
ENDBRANCH   9  10
ENDBRANCH   8   9
ENDBRANCH   7   8
ENDBRANCH   6   7
ENDBRANCH   5   6
ENDBRANCH   4   5
ENDBRANCH   3   4
ENDBRANCH   2   3
ENDBRANCH   1   2
BRANCH   1  15
HETATM   15  C   UNK N   1      26.087  27.452  -5.524  0.00  0.00     0.005 A 
HETATM   16  C   UNK N   1      26.914  27.747  -6.549  0.00  0.00     0.001 A 
HETATM   17  C   UNK N   1      26.928  26.915  -7.795  0.00  0.00     0.053 C 
HETATM   18  C   UNK N   1      27.815  28.920  -6.464  0.00  0.00     0.214 A 
HETATM   19  C   UNK N   1      27.792  29.813  -5.280  0.00  0.00     0.156 A 
HETATM   20  O   UNK N   1      28.570  29.173  -7.394  0.00  0.00    -0.285 OA
HETATM   21  C   UNK N   1      26.970  29.502  -4.228  0.00  0.00     0.156 A 
HETATM   22  C   UNK N   1      26.093  28.306  -4.309  0.00  0.00     0.214 A 
HETATM   23  O   UNK N   1      25.366  28.030  -3.365  0.00  0.00    -0.285 OA
BRANCH  19  24
HETATM   24  O   UNK N   1      28.588  30.920  -5.325  0.00  0.00    -0.350 OA
HETATM   25  C   UNK N   1      29.873  31.015  -4.840  0.00  0.00     0.210 C 
ENDBRANCH  19  24
BRANCH  21  26
HETATM   26  O   UNK N   1      26.915  30.241  -3.093  0.00  0.00    -0.350 OA
HETATM   27  C   UNK N   1      27.797  30.044  -2.056  0.00  0.00     0.210 C 
ENDBRANCH  21  26
ENDBRANCH   1  15
TORSDOF 15
ENDMDL
MODEL 4
REMARK VINA RESULT:      -5.7      1.787      3.262
REMARK  15 active torsions:
REMARK  status: ('A' for Active; 'I' for Inactive)
REMARK    1  A    between atoms: C_5  and  C_4 
REMARK    2  A    between atoms: C_6  and  C_4 
REMARK    3  A    between atoms: C_7  and  C_5 
REMARK    4  A    between atoms: C_8  and  C_6 
REMARK    5  A    between atoms: C_9  and  C_7 
REMARK    6  A    between atoms: C_10  and  C_8 
REMARK    7  A    between atoms: C_11  and  C_9 
REMARK    8  A    between atoms: C_12  and  C_10 
REMARK    9  A    between atoms: C_13  and  C_11 
REMARK   10  A    between atoms: C_15  and  C_12 
REMARK   11  A    between atoms: C_20  and  C_13 
REMARK   12  A    between atoms: O_23  and  C_18 
REMARK   13  A    between atoms: O_24  and  C_19 
REMARK   14  A    between atoms: C_20  and  C_25 
REMARK   15  A    between atoms: C_25  and  O_26 
ROOT
HETATM    1  C   UNK N   1      25.042  17.234   4.929  0.00  0.00     0.043 C 
ENDROOT
BRANCH   1   2
HETATM    2  C   UNK N   1      25.119  15.948   4.123  0.00  0.00     0.005 C 
BRANCH   2   3
HETATM    3  C   UNK N   1      26.551  15.448   4.118  0.00  0.00     0.000 C 
BRANCH   3   4
HETATM    4  C   UNK N   1      27.335  16.178   3.040  0.00  0.00     0.000 C 
BRANCH   4   5
HETATM    5  C   UNK N   1      28.735  16.517   3.516  0.00  0.00     0.000 C 
BRANCH   5   6
HETATM    6  C   UNK N   1      28.812  16.502   5.038  0.00  0.00     0.000 C 
BRANCH   6   7
HETATM    7  C   UNK N   1      28.889  17.917   5.591  0.00  0.00     0.000 C 
BRANCH   7   8
HETATM    8  C   UNK N   1      27.760  18.180   6.577  0.00  0.00     0.000 C 
BRANCH   8   9
HETATM    9  C   UNK N   1      28.243  19.051   7.723  0.00  0.00     0.000 C 
BRANCH   9  10
HETATM   10  C   UNK N   1      28.404  18.232   8.982  0.00  0.00     0.002 C 
BRANCH  10  11
HETATM   11  C   UNK N   1      29.727  18.563   9.636  0.00  0.00     0.026 C 
BRANCH  11  12
HETATM   12  C   UNK N   1      30.853  18.125   8.727  0.00  0.00     0.164 C 
BRANCH  12  13
HETATM   13  O   UNK N   1      31.478  17.006   9.274  0.00  0.00    -0.401 OA
HETATM   14  H   UNK N   1      31.788  16.985  10.193  0.00  0.00     0.209 HD
ENDBRANCH  12  13
ENDBRANCH  11  12
ENDBRANCH  10  11
ENDBRANCH   9  10
ENDBRANCH   8   9
ENDBRANCH   7   8
ENDBRANCH   6   7
ENDBRANCH   5   6
ENDBRANCH   4   5
ENDBRANCH   3   4
ENDBRANCH   2   3
ENDBRANCH   1   2
BRANCH   1  15
HETATM   15  C   UNK N   1      24.128  18.246   4.289  0.00  0.00     0.005 A 
HETATM   16  C   UNK N   1      24.635  19.309   3.628  0.00  0.00     0.001 A 
HETATM   17  C   UNK N   1      26.115  19.524   3.531  0.00  0.00     0.053 C 
HETATM   18  C   UNK N   1      23.728  20.277   2.969  0.00  0.00     0.214 A 
HETATM   19  C   UNK N   1      22.259  20.073   2.980  0.00  0.00     0.156 A 
HETATM   20  O   UNK N   1      24.196  21.244   2.382  0.00  0.00    -0.285 OA
HETATM   21  C   UNK N   1      21.741  19.007   3.670  0.00  0.00     0.156 A 
HETATM   22  C   UNK N   1      22.656  18.060   4.356  0.00  0.00     0.214 A 
HETATM   23  O   UNK N   1      22.188  17.115   4.975  0.00  0.00    -0.285 OA
BRANCH  19  24
HETATM   24  O   UNK N   1      21.505  20.962   2.271  0.00  0.00    -0.350 OA
HETATM   25  C   UNK N   1      20.968  20.753   1.021  0.00  0.00     0.210 C 
ENDBRANCH  19  24
BRANCH  21  26
HETATM   26  O   UNK N   1      20.409  18.769   3.764  0.00  0.00    -0.350 OA
HETATM   27  C   UNK N   1      19.757  17.940   2.882  0.00  0.00     0.210 C 
ENDBRANCH  21  26
ENDBRANCH   1  15
TORSDOF 15
ENDMDL
MODEL 5
REMARK VINA RESULT:      -5.7     11.167     13.662
REMARK  15 active torsions:
REMARK  status: ('A' for Active; 'I' for Inactive)
REMARK    1  A    between atoms: C_5  and  C_4 
REMARK    2  A    between atoms: C_6  and  C_4 
REMARK    3  A    between atoms: C_7  and  C_5 
REMARK    4  A    between atoms: C_8  and  C_6 
REMARK    5  A    between atoms: C_9  and  C_7 
REMARK    6  A    between atoms: C_10  and  C_8 
REMARK    7  A    between atoms: C_11  and  C_9 
REMARK    8  A    between atoms: C_12  and  C_10 
REMARK    9  A    between atoms: C_13  and  C_11 
REMARK   10  A    between atoms: C_15  and  C_12 
REMARK   11  A    between atoms: C_20  and  C_13 
REMARK   12  A    between atoms: O_23  and  C_18 
REMARK   13  A    between atoms: O_24  and  C_19 
REMARK   14  A    between atoms: C_20  and  C_25 
REMARK   15  A    between atoms: C_25  and  O_26 
ROOT
HETATM    1  C   UNK N   1      26.711  26.707  -7.489  0.00  0.00     0.043 C 
ENDROOT
BRANCH   1   2
HETATM    2  C   UNK N   1      27.272  25.301  -7.613  0.00  0.00     0.005 C 
BRANCH   2   3
HETATM    3  C   UNK N   1      26.180  24.299  -7.288  0.00  0.00     0.000 C 
BRANCH   3   4
HETATM    4  C   UNK N   1      26.575  23.507  -6.052  0.00  0.00     0.000 C 
BRANCH   4   5
HETATM    5  C   UNK N   1      25.792  23.967  -4.836  0.00  0.00     0.000 C 
BRANCH   5   6
HETATM    6  C   UNK N   1      26.730  24.384  -3.710  0.00  0.00     0.000 C 
BRANCH   6   7
HETATM    7  C   UNK N   1      28.176  24.072  -4.064  0.00  0.00     0.000 C 
BRANCH   7   8
HETATM    8  C   UNK N   1      28.899  23.427  -2.889  0.00  0.00     0.000 C 
BRANCH   8   9
HETATM    9  C   UNK N   1      29.913  22.409  -3.380  0.00  0.00     0.000 C 
BRANCH   9  10
HETATM   10  C   UNK N   1      31.297  22.758  -2.885  0.00  0.00     0.002 C 
BRANCH  10  11
HETATM   11  C   UNK N   1      32.200  21.552  -3.017  0.00  0.00     0.026 C 
BRANCH  11  12
HETATM   12  C   UNK N   1      31.941  20.882  -4.348  0.00  0.00     0.164 C 
BRANCH  12  13
HETATM   13  O   UNK N   1      31.825  19.507  -4.158  0.00  0.00    -0.401 OA
HETATM   14  H   UNK N   1      32.380  19.024  -3.525  0.00  0.00     0.209 HD
ENDBRANCH  12  13
ENDBRANCH  11  12
ENDBRANCH  10  11
ENDBRANCH   9  10
ENDBRANCH   8   9
ENDBRANCH   7   8
ENDBRANCH   6   7
ENDBRANCH   5   6
ENDBRANCH   4   5
ENDBRANCH   3   4
ENDBRANCH   2   3
ENDBRANCH   1   2
BRANCH   1  15
HETATM   15  C   UNK N   1      26.999  27.313  -6.140  0.00  0.00     0.005 A 
HETATM   16  C   UNK N   1      25.998  27.548  -5.265  0.00  0.00     0.001 A 
HETATM   17  C   UNK N   1      24.575  27.235  -5.616  0.00  0.00     0.053 C 
HETATM   18  C   UNK N   1      26.296  28.106  -3.925  0.00  0.00     0.214 A 
HETATM   19  C   UNK N   1      27.694  28.372  -3.506  0.00  0.00     0.156 A 
HETATM   20  O   UNK N   1      25.381  28.326  -3.143  0.00  0.00    -0.285 OA
HETATM   21  C   UNK N   1      28.709  28.156  -4.401  0.00  0.00     0.156 A 
HETATM   22  C   UNK N   1      28.398  27.626  -5.753  0.00  0.00     0.214 A 
HETATM   23  O   UNK N   1      29.307  27.442  -6.550  0.00  0.00    -0.285 OA
BRANCH  19  24
HETATM   24  O   UNK N   1      27.885  28.798  -2.224  0.00  0.00    -0.350 OA
HETATM   25  C   UNK N   1      28.062  30.102  -1.822  0.00  0.00     0.210 C 
ENDBRANCH  19  24
BRANCH  21  26
HETATM   26  O   UNK N   1      30.010  28.409  -4.114  0.00  0.00    -0.350 OA
HETATM   27  C   UNK N   1      30.780  27.523  -3.396  0.00  0.00     0.210 C 
ENDBRANCH  21  26
ENDBRANCH   1  15
TORSDOF 15
ENDMDL
MODEL 6
REMARK VINA RESULT:      -5.6     11.526     14.871
REMARK  15 active torsions:
REMARK  status: ('A' for Active; 'I' for Inactive)
REMARK    1  A    between atoms: C_5  and  C_4 
REMARK    2  A    between atoms: C_6  and  C_4 
REMARK    3  A    between atoms: C_7  and  C_5 
REMARK    4  A    between atoms: C_8  and  C_6 
REMARK    5  A    between atoms: C_9  and  C_7 
REMARK    6  A    between atoms: C_10  and  C_8 
REMARK    7  A    between atoms: C_11  and  C_9 
REMARK    8  A    between atoms: C_12  and  C_10 
REMARK    9  A    between atoms: C_13  and  C_11 
REMARK   10  A    between atoms: C_15  and  C_12 
REMARK   11  A    between atoms: C_20  and  C_13 
REMARK   12  A    between atoms: O_23  and  C_18 
REMARK   13  A    between atoms: O_24  and  C_19 
REMARK   14  A    between atoms: C_20  and  C_25 
REMARK   15  A    between atoms: C_25  and  O_26 
ROOT
HETATM    1  C   UNK N   1      26.615  26.829  -7.593  0.00  0.00     0.043 C 
ENDROOT
BRANCH   1   2
HETATM    2  C   UNK N   1      27.745  25.816  -7.653  0.00  0.00     0.005 C 
BRANCH   2   3
HETATM    3  C   UNK N   1      27.249  24.556  -8.337  0.00  0.00     0.000 C 
BRANCH   3   4
HETATM    4  C   UNK N   1      26.202  23.887  -7.461  0.00  0.00     0.000 C 
BRANCH   4   5
HETATM    5  C   UNK N   1      26.786  22.697  -6.724  0.00  0.00     0.000 C 
BRANCH   5   6
HETATM    6  C   UNK N   1      27.978  22.120  -7.477  0.00  0.00     0.000 C 
BRANCH   6   7
HETATM    7  C   UNK N   1      29.073  21.688  -6.513  0.00  0.00     0.000 C 
BRANCH   7   8
HETATM    8  C   UNK N   1      30.001  22.849  -6.186  0.00  0.00     0.000 C 
BRANCH   8   9
HETATM    9  C   UNK N   1      29.818  23.289  -4.744  0.00  0.00     0.000 C 
BRANCH   9  10
HETATM   10  C   UNK N   1      29.645  24.788  -4.664  0.00  0.00     0.002 C 
BRANCH  10  11
HETATM   11  C   UNK N   1      28.327  25.108  -3.995  0.00  0.00     0.026 C 
BRANCH  11  12
HETATM   12  C   UNK N   1      27.897  23.929  -3.153  0.00  0.00     0.164 C 
BRANCH  12  13
HETATM   13  O   UNK N   1      26.514  23.958  -2.989  0.00  0.00    -0.401 OA
HETATM   14  H   UNK N   1      25.956  24.618  -3.429  0.00  0.00     0.209 HD
ENDBRANCH  12  13
ENDBRANCH  11  12
ENDBRANCH  10  11
ENDBRANCH   9  10
ENDBRANCH   8   9
ENDBRANCH   7   8
ENDBRANCH   6   7
ENDBRANCH   5   6
ENDBRANCH   4   5
ENDBRANCH   3   4
ENDBRANCH   2   3
ENDBRANCH   1   2
BRANCH   1  15
HETATM   15  C   UNK N   1      26.694  27.689  -6.358  0.00  0.00     0.005 A 
HETATM   16  C   UNK N   1      25.930  27.414  -5.279  0.00  0.00     0.001 A 
HETATM   17  C   UNK N   1      24.969  26.263  -5.286  0.00  0.00     0.053 C 
HETATM   18  C   UNK N   1      26.044  28.241  -4.056  0.00  0.00     0.214 A 
HETATM   19  C   UNK N   1      27.027  29.349  -3.976  0.00  0.00     0.156 A 
HETATM   20  O   UNK N   1      25.340  27.990  -3.087  0.00  0.00    -0.285 OA
HETATM   21  C   UNK N   1      27.787  29.645  -5.077  0.00  0.00     0.156 A 
HETATM   22  C   UNK N   1      27.643  28.830  -6.311  0.00  0.00     0.214 A 
HETATM   23  O   UNK N   1      28.318  29.103  -7.293  0.00  0.00    -0.285 OA
BRANCH  19  24
HETATM   24  O   UNK N   1      27.130  30.000  -2.781  0.00  0.00    -0.350 OA
HETATM   25  C   UNK N   1      28.012  29.699  -1.768  0.00  0.00     0.210 C 
ENDBRANCH  19  24
BRANCH  21  26
HETATM   26  O   UNK N   1      28.680  30.664  -5.103  0.00  0.00    -0.350 OA
HETATM   27  C   UNK N   1      29.998  30.483  -4.755  0.00  0.00     0.210 C 
ENDBRANCH  21  26
ENDBRANCH   1  15
TORSDOF 15
ENDMDL
MODEL 7
REMARK VINA RESULT:      -5.6      8.735     11.954
REMARK  15 active torsions:
REMARK  status: ('A' for Active; 'I' for Inactive)
REMARK    1  A    between atoms: C_5  and  C_4 
REMARK    2  A    between atoms: C_6  and  C_4 
REMARK    3  A    between atoms: C_7  and  C_5 
REMARK    4  A    between atoms: C_8  and  C_6 
REMARK    5  A    between atoms: C_9  and  C_7 
REMARK    6  A    between atoms: C_10  and  C_8 
REMARK    7  A    between atoms: C_11  and  C_9 
REMARK    8  A    between atoms: C_12  and  C_10 
REMARK    9  A    between atoms: C_13  and  C_11 
REMARK   10  A    between atoms: C_15  and  C_12 
REMARK   11  A    between atoms: C_20  and  C_13 
REMARK   12  A    between atoms: O_23  and  C_18 
REMARK   13  A    between atoms: O_24  and  C_19 
REMARK   14  A    between atoms: C_20  and  C_25 
REMARK   15  A    between atoms: C_25  and  O_26 
ROOT
HETATM    1  C   UNK N   1      34.884  13.580  11.167  0.00  0.00     0.043 C 
ENDROOT
BRANCH   1   2
HETATM    2  C   UNK N   1      36.151  12.748  11.066  0.00  0.00     0.005 C 
BRANCH   2   3
HETATM    3  C   UNK N   1      36.854  12.746  12.410  0.00  0.00     0.000 C 
BRANCH   3   4
HETATM    4  C   UNK N   1      35.979  13.449  13.436  0.00  0.00     0.000 C 
BRANCH   4   5
HETATM    5  C   UNK N   1      36.591  13.371  14.822  0.00  0.00     0.000 C 
BRANCH   5   6
HETATM    6  C   UNK N   1      35.874  12.335  15.677  0.00  0.00     0.000 C 
BRANCH   6   7
HETATM    7  C   UNK N   1      34.430  12.166  15.229  0.00  0.00     0.000 C 
BRANCH   7   8
HETATM    8  C   UNK N   1      34.041  10.695  15.184  0.00  0.00     0.000 C 
BRANCH   8   9
HETATM    9  C   UNK N   1      34.695  10.006  13.999  0.00  0.00     0.000 C 
BRANCH   9  10
HETATM   10  C   UNK N   1      33.908  10.264  12.735  0.00  0.00     0.002 C 
BRANCH  10  11
HETATM   11  C   UNK N   1      34.274   9.231  11.692  0.00  0.00     0.026 C 
BRANCH  11  12
HETATM   12  C   UNK N   1      33.904   9.755  10.323  0.00  0.00     0.164 C 
BRANCH  12  13
HETATM   13  O   UNK N   1      32.991  10.799  10.460  0.00  0.00    -0.401 OA
HETATM   14  H   UNK N   1      32.794  11.411   9.733  0.00  0.00     0.209 HD
ENDBRANCH  12  13
ENDBRANCH  11  12
ENDBRANCH  10  11
ENDBRANCH   9  10
ENDBRANCH   8   9
ENDBRANCH   7   8
ENDBRANCH   6   7
ENDBRANCH   5   6
ENDBRANCH   4   5
ENDBRANCH   3   4
ENDBRANCH   2   3
ENDBRANCH   1   2
BRANCH   1  15
HETATM   15  C   UNK N   1      34.728  14.513   9.994  0.00  0.00     0.005 A 
HETATM   16  C   UNK N   1      34.987  15.831  10.127  0.00  0.00     0.001 A 
HETATM   17  C   UNK N   1      35.414  16.407  11.443  0.00  0.00     0.053 C 
HETATM   18  C   UNK N   1      34.869  16.734   8.958  0.00  0.00     0.214 A 
HETATM   19  C   UNK N   1      34.513  16.203   7.619  0.00  0.00     0.156 A 
HETATM   20  O   UNK N   1      35.095  17.930   9.090  0.00  0.00    -0.285 OA
HETATM   21  C   UNK N   1      34.227  14.869   7.488  0.00  0.00     0.156 A 
HETATM   22  C   UNK N   1      34.316  13.977   8.672  0.00  0.00     0.214 A 
HETATM   23  O   UNK N   1      34.054  12.789   8.550  0.00  0.00    -0.285 OA
BRANCH  19  24
HETATM   24  O   UNK N   1      34.516  17.089   6.581  0.00  0.00    -0.350 OA
HETATM   25  C   UNK N   1      33.409  17.566   5.919  0.00  0.00     0.210 C 
ENDBRANCH  19  24
BRANCH  21  26
HETATM   26  O   UNK N   1      33.856  14.309   6.310  0.00  0.00    -0.350 OA
HETATM   27  C   UNK N   1      32.539  14.037   6.020  0.00  0.00     0.210 C 
ENDBRANCH  21  26
ENDBRANCH   1  15
TORSDOF 15
ENDMDL
MODEL 8
REMARK VINA RESULT:      -5.5      1.837      2.250
REMARK  15 active torsions:
REMARK  status: ('A' for Active; 'I' for Inactive)
REMARK    1  A    between atoms: C_5  and  C_4 
REMARK    2  A    between atoms: C_6  and  C_4 
REMARK    3  A    between atoms: C_7  and  C_5 
REMARK    4  A    between atoms: C_8  and  C_6 
REMARK    5  A    between atoms: C_9  and  C_7 
REMARK    6  A    between atoms: C_10  and  C_8 
REMARK    7  A    between atoms: C_11  and  C_9 
REMARK    8  A    between atoms: C_12  and  C_10 
REMARK    9  A    between atoms: C_13  and  C_11 
REMARK   10  A    between atoms: C_15  and  C_12 
REMARK   11  A    between atoms: C_20  and  C_13 
REMARK   12  A    between atoms: O_23  and  C_18 
REMARK   13  A    between atoms: O_24  and  C_19 
REMARK   14  A    between atoms: C_20  and  C_25 
REMARK   15  A    between atoms: C_25  and  O_26 
ROOT
HETATM    1  C   UNK N   1      26.926  17.875   4.170  0.00  0.00     0.043 C 
ENDROOT
BRANCH   1   2
HETATM    2  C   UNK N   1      27.497  18.187   5.543  0.00  0.00     0.005 C 
BRANCH   2   3
HETATM    3  C   UNK N   1      27.658  16.895   6.321  0.00  0.00     0.000 C 
BRANCH   3   4
HETATM    4  C   UNK N   1      28.054  17.217   7.752  0.00  0.00     0.000 C 
BRANCH   4   5
HETATM    5  C   UNK N   1      28.748  18.563   7.838  0.00  0.00     0.000 C 
BRANCH   5   6
HETATM    6  C   UNK N   1      29.883  18.528   8.854  0.00  0.00     0.000 C 
BRANCH   6   7
HETATM    7  C   UNK N   1      30.855  17.400   8.545  0.00  0.00     0.000 C 
BRANCH   7   8
HETATM    8  C   UNK N   1      32.160  17.943   7.981  0.00  0.00     0.000 C 
BRANCH   8   9
HETATM    9  C   UNK N   1      32.603  17.126   6.780  0.00  0.00     0.000 C 
BRANCH   9  10
HETATM   10  C   UNK N   1      31.406  16.662   5.983  0.00  0.00     0.002 C 
BRANCH  10  11
HETATM   11  C   UNK N   1      31.216  17.566   4.785  0.00  0.00     0.026 C 
BRANCH  11  12
HETATM   12  C   UNK N   1      32.438  17.481   3.900  0.00  0.00     0.164 C 
BRANCH  12  13
HETATM   13  O   UNK N   1      32.325  16.375   3.061  0.00  0.00    -0.401 OA
HETATM   14  H   UNK N   1      32.751  16.341   2.190  0.00  0.00     0.209 HD
ENDBRANCH  12  13
ENDBRANCH  11  12
ENDBRANCH  10  11
ENDBRANCH   9  10
ENDBRANCH   8   9
ENDBRANCH   7   8
ENDBRANCH   6   7
ENDBRANCH   5   6
ENDBRANCH   4   5
ENDBRANCH   3   4
ENDBRANCH   2   3
ENDBRANCH   1   2
BRANCH   1  15
HETATM   15  C   UNK N   1      25.501  18.347   4.031  0.00  0.00     0.005 A 
HETATM   16  C   UNK N   1      25.231  19.581   3.556  0.00  0.00     0.001 A 
HETATM   17  C   UNK N   1      26.333  20.522   3.176  0.00  0.00     0.053 C 
HETATM   18  C   UNK N   1      23.826  20.022   3.385  0.00  0.00     0.214 A 
HETATM   19  C   UNK N   1      22.700  19.104   3.686  0.00  0.00     0.156 A 
HETATM   20  O   UNK N   1      23.591  21.147   2.965  0.00  0.00    -0.285 OA
HETATM   21  C   UNK N   1      22.972  17.859   4.189  0.00  0.00     0.156 A 
HETATM   22  C   UNK N   1      24.383  17.438   4.388  0.00  0.00     0.214 A 
HETATM   23  O   UNK N   1      24.620  16.329   4.844  0.00  0.00    -0.285 OA
BRANCH  19  24
HETATM   24  O   UNK N   1      21.443  19.559   3.413  0.00  0.00    -0.350 OA
HETATM   25  C   UNK N   1      20.770  19.415   2.222  0.00  0.00     0.210 C 
ENDBRANCH  19  24
BRANCH  21  26
HETATM   26  O   UNK N   1      22.003  16.974   4.527  0.00  0.00    -0.350 OA
HETATM   27  C   UNK N   1      21.491  16.078   3.618  0.00  0.00     0.210 C 
ENDBRANCH  21  26
ENDBRANCH   1  15
TORSDOF 15
ENDMDL
MODEL 9
REMARK VINA RESULT:      -5.5      3.408      5.822
REMARK  15 active torsions:
REMARK  status: ('A' for Active; 'I' for Inactive)
REMARK    1  A    between atoms: C_5  and  C_4 
REMARK    2  A    between atoms: C_6  and  C_4 
REMARK    3  A    between atoms: C_7  and  C_5 
REMARK    4  A    between atoms: C_8  and  C_6 
REMARK    5  A    between atoms: C_9  and  C_7 
REMARK    6  A    between atoms: C_10  and  C_8 
REMARK    7  A    between atoms: C_11  and  C_9 
REMARK    8  A    between atoms: C_12  and  C_10 
REMARK    9  A    between atoms: C_13  and  C_11 
REMARK   10  A    between atoms: C_15  and  C_12 
REMARK   11  A    between atoms: C_20  and  C_13 
REMARK   12  A    between atoms: O_23  and  C_18 
REMARK   13  A    between atoms: O_24  and  C_19 
REMARK   14  A    between atoms: C_20  and  C_25 
REMARK   15  A    between atoms: C_25  and  O_26 
ROOT
HETATM    1  C   UNK N   1      30.362  16.966   7.843  0.00  0.00     0.043 C 
ENDROOT
BRANCH   1   2
HETATM    2  C   UNK N   1      31.503  17.908   8.191  0.00  0.00     0.005 C 
BRANCH   2   3
HETATM    3  C   UNK N   1      32.759  17.097   8.445  0.00  0.00     0.000 C 
BRANCH   3   4
HETATM    4  C   UNK N   1      33.902  17.669   7.622  0.00  0.00     0.000 C 
BRANCH   4   5
HETATM    5  C   UNK N   1      33.706  17.387   6.144  0.00  0.00     0.000 C 
BRANCH   5   6
HETATM    6  C   UNK N   1      33.882  15.904   5.844  0.00  0.00     0.000 C 
BRANCH   6   7
HETATM    7  C   UNK N   1      35.198  15.388   6.408  0.00  0.00     0.000 C 
BRANCH   7   8
HETATM    8  C   UNK N   1      34.971  14.175   7.300  0.00  0.00     0.000 C 
BRANCH   8   9
HETATM    9  C   UNK N   1      35.525  14.426   8.691  0.00  0.00     0.000 C 
BRANCH   9  10
HETATM   10  C   UNK N   1      34.553  13.945   9.744  0.00  0.00     0.002 C 
BRANCH  10  11
HETATM   11  C   UNK N   1      34.506  14.940  10.881  0.00  0.00     0.026 C 
BRANCH  11  12
HETATM   12  C   UNK N   1      35.612  15.954  10.699  0.00  0.00     0.164 C 
BRANCH  12  13
HETATM   13  O   UNK N   1      35.119  17.229  10.968  0.00  0.00    -0.401 OA
HETATM   14  H   UNK N   1      34.378  17.378  11.576  0.00  0.00     0.209 HD
ENDBRANCH  12  13
ENDBRANCH  11  12
ENDBRANCH  10  11
ENDBRANCH   9  10
ENDBRANCH   8   9
ENDBRANCH   7   8
ENDBRANCH   6   7
ENDBRANCH   5   6
ENDBRANCH   4   5
ENDBRANCH   3   4
ENDBRANCH   2   3
ENDBRANCH   1   2
BRANCH   1  15
HETATM   15  C   UNK N   1      29.417  17.574   6.839  0.00  0.00     0.005 A 
HETATM   16  C   UNK N   1      29.395  17.133   5.563  0.00  0.00     0.001 A 
HETATM   17  C   UNK N   1      30.320  16.048   5.104  0.00  0.00     0.053 C 
HETATM   18  C   UNK N   1      28.434  17.709   4.594  0.00  0.00     0.214 A 
HETATM   19  C   UNK N   1      27.453  18.739   5.016  0.00  0.00     0.156 A 
HETATM   20  O   UNK N   1      28.428  17.311   3.436  0.00  0.00    -0.285 OA
HETATM   21  C   UNK N   1      27.489  19.204   6.304  0.00  0.00     0.156 A 
HETATM   22  C   UNK N   1      28.478  18.644   7.261  0.00  0.00     0.214 A 
HETATM   23  O   UNK N   1      28.510  19.067   8.408  0.00  0.00    -0.285 OA
BRANCH  19  24
HETATM   24  O   UNK N   1      26.545  19.147   4.082  0.00  0.00    -0.350 OA
HETATM   25  C   UNK N   1      26.647  20.265   3.287  0.00  0.00     0.210 C 
ENDBRANCH  19  24
BRANCH  21  26
HETATM   26  O   UNK N   1      26.656  20.170   6.762  0.00  0.00    -0.350 OA
HETATM   27  C   UNK N   1      26.926  21.507   6.579  0.00  0.00     0.210 C 
ENDBRANCH  21  26
ENDBRANCH   1  15
TORSDOF 15
ENDMDL
