REMARK  3 active torsions:
REMARK  status: ('A' for Active; 'I' for Inactive)
REMARK    1  A    between atoms: N_20  and  C_16 
REMARK    2  A    between atoms: S_21  and  C_17 
REMARK    3  A    between atoms: S_21  and  C_18 
ROOT
HETATM    1  C   UNK N   1       2.230  -3.297  -0.286  0.00  0.00     0.002 A 
HETATM    2  C   UNK N   1       3.347  -2.925   0.449  0.00  0.00     0.002 A 
HETATM    3  C   UNK N   1       1.270  -2.345  -0.616  0.00  0.00     0.031 A 
HETATM    4  C   UNK N   1       3.505  -1.601   0.846  0.00  0.00     0.021 A 
HETATM    5  C   UNK N   1       1.411  -0.990  -0.249  0.00  0.00     0.047 A 
HETATM    6  C   UNK N   1       2.587  -0.607   0.482  0.00  0.00     0.032 A 
ENDROOT
BRANCH   6   7
HETATM    7  S   UNK N   1       2.842   1.034   1.215  0.00  0.00    -0.088 SA
BRANCH   7   8
HETATM    8  C   UNK N   1       4.231   1.905   0.402  0.00  0.00     0.011 A 
HETATM    9  C   UNK N   1       4.162   3.306   0.469  0.00  0.00     0.020 A 
HETATM   10  C   UNK N   1       5.205   4.111   0.006  0.00  0.00     0.008 A 
HETATM   11  C   UNK N   1       6.347   3.528  -0.533  0.00  0.00    -0.061 A 
HETATM   12  C   UNK N   1       7.478   4.380  -0.987  0.00  0.00     0.048 C 
HETATM   13  C   UNK N   1       6.437   2.140  -0.625  0.00  0.00     0.014 A 
HETATM   14  C   UNK N   1       5.398   1.320  -0.166  0.00  0.00    -0.044 A 
HETATM   15  C   UNK N   1       5.615  -0.139  -0.275  0.00  0.00     0.049 C 
ENDBRANCH   7   8
ENDBRANCH   6   7
BRANCH   5  16
HETATM   16  N   UNK N   1       0.338  -0.092  -0.588  0.00  0.00    -0.377 N 
HETATM   17  C   UNK N   1      -0.940  -0.620  -1.017  0.00  0.00     0.150 C 
HETATM   18  C   UNK N   1      -2.018  -0.088  -0.072  0.00  0.00     0.252 C 
HETATM   19  N   UNK N   1      -1.991   1.377  -0.071  0.00  0.00    -0.072 N 
HETATM   20  C   UNK N   1      -0.696   1.838   0.436  0.00  0.00     0.252 C 
HETATM   21  H   UNK N   1      -2.755   1.981  -0.375  0.00  0.00     0.277 HD
HETATM   22  H   UNK N   1      -1.841   2.384  -0.018  0.00  0.00     0.277 HD
HETATM   23  C   UNK N   1       0.435   1.344  -0.467  0.00  0.00     0.150 C 
ENDBRANCH   5  16
TORSDOF 3
