MODEL 1
REMARK VINA RESULT:      -5.3      0.000      0.000
REMARK  1 active torsions:
REMARK  status: ('A' for Active; 'I' for Inactive)
REMARK    1  A    between atoms: C_6  and  O_12 
ROOT
HETATM    1  C   UNK N   1      20.142  15.925   1.876  0.00  0.00     0.043 A 
HETATM    2  C   UNK N   1      20.481  16.006   3.226  0.00  0.00     0.040 A 
HETATM    3  C   UNK N   1      20.801  17.231   3.811  0.00  0.00     0.020 A 
HETATM    4  C   UNK N   1      20.779  18.402   3.030  0.00  0.00     0.010 A 
HETATM    5  C   UNK N   1      20.436  18.324   1.660  0.00  0.00     0.078 A 
HETATM    6  C   UNK N   1      20.119  17.084   1.085  0.00  0.00     0.109 A 
HETATM    7  C   UNK N   1      21.092  19.650   3.580  0.00  0.00     0.016 A 
HETATM    8  C   UNK N   1      21.064  20.791   2.775  0.00  0.00     0.018 A 
HETATM    9  C   UNK N   1      20.722  20.674   1.427  0.00  0.00     0.088 A 
HETATM   10  N   UNK N   1      20.418  19.458   0.900  0.00  0.00    -0.363 N 
ATOM     11  HN  UNK N   1      20.171  19.390  -0.087  1.00  0.00     0.165 HD
HETATM   12  I   UNK N   1      19.680  14.030   1.074  0.00  0.00    -0.042 I 
HETATM   13  I   UNK N   1      21.312  17.223   5.863  0.00  0.00    -0.044 I 
ENDROOT
BRANCH   6  14
HETATM   14  O   UNK N   1      19.798  17.005  -0.218  0.00  0.00    -0.357 OA
HETATM   15  H   UNK N   1      19.361  16.244  -0.548  0.00  0.00     0.217 HD
ENDBRANCH   6  14
TORSDOF 1
ENDMDL
MODEL 2
REMARK VINA RESULT:      -5.1      3.296      4.467
REMARK  1 active torsions:
REMARK  status: ('A' for Active; 'I' for Inactive)
REMARK    1  A    between atoms: C_6  and  O_12 
ROOT
HETATM    1  C   UNK N   1      24.797  19.440   4.002  0.00  0.00     0.043 A 
HETATM    2  C   UNK N   1      24.240  18.440   4.797  0.00  0.00     0.040 A 
HETATM    3  C   UNK N   1      22.879  18.146   4.730  0.00  0.00     0.020 A 
HETATM    4  C   UNK N   1      22.054  18.869   3.846  0.00  0.00     0.010 A 
HETATM    5  C   UNK N   1      22.614  19.886   3.038  0.00  0.00     0.078 A 
HETATM    6  C   UNK N   1      23.986  20.171   3.119  0.00  0.00     0.109 A 
HETATM    7  C   UNK N   1      20.684  18.604   3.749  0.00  0.00     0.016 A 
HETATM    8  C   UNK N   1      19.895  19.343   2.864  0.00  0.00     0.018 A 
HETATM    9  C   UNK N   1      20.483  20.339   2.084  0.00  0.00     0.088 A 
HETATM   10  N   UNK N   1      21.816  20.590   2.184  0.00  0.00    -0.363 N 
ATOM     11  HN  UNK N   1      22.230  21.322   1.607  1.00  0.00     0.165 HD
HETATM   12  I   UNK N   1      26.864  19.820   4.174  0.00  0.00    -0.042 I 
HETATM   13  I   UNK N   1      22.151  16.616   5.995  0.00  0.00    -0.044 I 
ENDROOT
BRANCH   6  14
HETATM   14  O   UNK N   1      24.522  21.140   2.357  0.00  0.00    -0.357 OA
HETATM   15  H   UNK N   1      24.825  20.943   1.492  0.00  0.00     0.217 HD
ENDBRANCH   6  14
TORSDOF 1
ENDMDL
MODEL 3
REMARK VINA RESULT:      -5.1      8.786      9.725
REMARK  1 active torsions:
REMARK  status: ('A' for Active; 'I' for Inactive)
REMARK    1  A    between atoms: C_6  and  O_12 
ROOT
HETATM    1  C   UNK N   1      27.412  19.233   4.942  0.00  0.00     0.043 A 
HETATM    2  C   UNK N   1      28.436  18.415   4.469  0.00  0.00     0.040 A 
HETATM    3  C   UNK N   1      29.286  17.748   5.351  0.00  0.00     0.020 A 
HETATM    4  C   UNK N   1      29.107  17.902   6.739  0.00  0.00     0.010 A 
HETATM    5  C   UNK N   1      28.070  18.734   7.225  0.00  0.00     0.078 A 
HETATM    6  C   UNK N   1      27.225  19.399   6.323  0.00  0.00     0.109 A 
HETATM    7  C   UNK N   1      29.938  17.251   7.658  0.00  0.00     0.016 A 
HETATM    8  C   UNK N   1      29.734  17.429   9.027  0.00  0.00     0.018 A 
HETATM    9  C   UNK N   1      28.701  18.258   9.468  0.00  0.00     0.088 A 
HETATM   10  N   UNK N   1      27.897  18.887   8.569  0.00  0.00    -0.363 N 
ATOM     11  HN  UNK N   1      27.148  19.490   8.908  1.00  0.00     0.165 HD
HETATM   12  I   UNK N   1      26.179  20.206   3.535  0.00  0.00    -0.042 I 
HETATM   13  I   UNK N   1      30.809  16.546   4.512  0.00  0.00    -0.044 I 
ENDROOT
BRANCH   6  14
HETATM   14  O   UNK N   1      26.241  20.193   6.780  0.00  0.00    -0.357 OA
HETATM   15  H   UNK N   1      25.845  20.824   6.211  0.00  0.00     0.217 HD
ENDBRANCH   6  14
TORSDOF 1
ENDMDL
MODEL 4
REMARK VINA RESULT:      -5.1     10.987     11.748
REMARK  1 active torsions:
REMARK  status: ('A' for Active; 'I' for Inactive)
REMARK    1  A    between atoms: C_6  and  O_12 
ROOT
HETATM    1  C   UNK N   1      29.938  17.552   7.589  0.00  0.00     0.043 A 
HETATM    2  C   UNK N   1      31.242  17.616   8.077  0.00  0.00     0.040 A 
HETATM    3  C   UNK N   1      32.334  17.501   7.218  0.00  0.00     0.020 A 
HETATM    4  C   UNK N   1      32.118  17.319   5.838  0.00  0.00     0.010 A 
HETATM    5  C   UNK N   1      30.796  17.252   5.338  0.00  0.00     0.078 A 
HETATM    6  C   UNK N   1      29.708  17.367   6.217  0.00  0.00     0.109 A 
HETATM    7  C   UNK N   1      33.187  17.200   4.943  0.00  0.00     0.016 A 
HETATM    8  C   UNK N   1      32.937  17.017   3.582  0.00  0.00     0.018 A 
HETATM    9  C   UNK N   1      31.619  16.954   3.127  0.00  0.00     0.088 A 
HETATM   10  N   UNK N   1      30.585  17.072   4.002  0.00  0.00    -0.363 N 
ATOM     11  HN  UNK N   1      29.628  17.023   3.653  1.00  0.00     0.165 HD
HETATM   12  I   UNK N   1      28.347  17.729   8.961  0.00  0.00    -0.042 I 
HETATM   13  I   UNK N   1      34.263  17.601   8.080  0.00  0.00    -0.044 I 
ENDROOT
BRANCH   6  14
HETATM   14  O   UNK N   1      28.450  17.299   5.747  0.00  0.00    -0.357 OA
HETATM   15  H   UNK N   1      27.778  17.832   6.125  0.00  0.00     0.217 HD
ENDBRANCH   6  14
TORSDOF 1
ENDMDL
MODEL 5
REMARK VINA RESULT:      -5.1     11.405     12.243
REMARK  1 active torsions:
REMARK  status: ('A' for Active; 'I' for Inactive)
REMARK    1  A    between atoms: C_6  and  O_12 
ROOT
HETATM    1  C   UNK N   1      32.604  16.419   6.936  0.00  0.00     0.043 A 
HETATM    2  C   UNK N   1      31.701  16.411   5.874  0.00  0.00     0.040 A 
HETATM    3  C   UNK N   1      30.414  16.925   6.024  0.00  0.00     0.020 A 
HETATM    4  C   UNK N   1      30.020  17.463   7.265  0.00  0.00     0.010 A 
HETATM    5  C   UNK N   1      30.932  17.472   8.346  0.00  0.00     0.078 A 
HETATM    6  C   UNK N   1      32.223  16.949   8.179  0.00  0.00     0.109 A 
HETATM    7  C   UNK N   1      28.738  17.989   7.457  0.00  0.00     0.016 A 
HETATM    8  C   UNK N   1      28.379  18.510   8.701  0.00  0.00     0.018 A 
HETATM    9  C   UNK N   1      29.306  18.502   9.744  0.00  0.00     0.088 A 
HETATM   10  N   UNK N   1      30.551  17.989   9.550  0.00  0.00    -0.363 N 
ATOM     11  HN  UNK N   1      31.216  17.990  10.324  1.00  0.00     0.165 HD
HETATM   12  I   UNK N   1      34.527  15.615   6.620  0.00  0.00    -0.042 I 
HETATM   13  I   UNK N   1      29.132  16.844   4.344  0.00  0.00    -0.044 I 
ENDROOT
BRANCH   6  14
HETATM   14  O   UNK N   1      33.092  16.951   9.205  0.00  0.00    -0.357 OA
HETATM   15  H   UNK N   1      32.826  16.634  10.046  0.00  0.00     0.217 HD
ENDBRANCH   6  14
TORSDOF 1
ENDMDL
MODEL 6
REMARK VINA RESULT:      -5.1     18.287     19.274
REMARK  1 active torsions:
REMARK  status: ('A' for Active; 'I' for Inactive)
REMARK    1  A    between atoms: C_6  and  O_12 
ROOT
HETATM    1  C   UNK N   1      35.534  13.922  10.759  0.00  0.00     0.043 A 
HETATM    2  C   UNK N   1      35.009  12.679  11.108  0.00  0.00     0.040 A 
HETATM    3  C   UNK N   1      35.084  12.213  12.420  0.00  0.00     0.020 A 
HETATM    4  C   UNK N   1      35.698  13.008  13.407  0.00  0.00     0.010 A 
HETATM    5  C   UNK N   1      36.235  14.269  13.057  0.00  0.00     0.078 A 
HETATM    6  C   UNK N   1      36.152  14.723  11.732  0.00  0.00     0.109 A 
HETATM    7  C   UNK N   1      35.794  12.576  14.734  0.00  0.00     0.016 A 
HETATM    8  C   UNK N   1      36.413  13.389  15.687  0.00  0.00     0.018 A 
HETATM    9  C   UNK N   1      36.931  14.626  15.303  0.00  0.00     0.088 A 
HETATM   10  N   UNK N   1      36.833  15.040  14.011  0.00  0.00    -0.363 N 
ATOM     11  HN  UNK N   1      37.218  15.947  13.748  1.00  0.00     0.165 HD
HETATM   12  I   UNK N   1      35.380  14.544   8.750  0.00  0.00    -0.042 I 
HETATM   13  I   UNK N   1      34.262  10.306  12.823  0.00  0.00    -0.044 I 
ENDROOT
BRANCH   6  14
HETATM   14  O   UNK N   1      36.665  15.919  11.394  0.00  0.00    -0.357 OA
HETATM   15  H   UNK N   1      37.411  16.256  11.850  0.00  0.00     0.217 HD
ENDBRANCH   6  14
TORSDOF 1
ENDMDL
MODEL 7
REMARK VINA RESULT:      -5.0     20.402     21.474
REMARK  1 active torsions:
REMARK  status: ('A' for Active; 'I' for Inactive)
REMARK    1  A    between atoms: C_6  and  O_12 
ROOT
HETATM    1  C   UNK N   1      34.741  10.711  14.752  0.00  0.00     0.043 A 
HETATM    2  C   UNK N   1      34.952   9.615  15.587  0.00  0.00     0.040 A 
HETATM    3  C   UNK N   1      35.166   9.787  16.954  0.00  0.00     0.020 A 
HETATM    4  C   UNK N   1      35.166  11.085  17.500  0.00  0.00     0.010 A 
HETATM    5  C   UNK N   1      34.954  12.201  16.656  0.00  0.00     0.078 A 
HETATM    6  C   UNK N   1      34.742  12.010  15.282  0.00  0.00     0.109 A 
HETATM    7  C   UNK N   1      35.376  11.300  18.867  0.00  0.00     0.016 A 
HETATM    8  C   UNK N   1      35.374  12.601  19.374  0.00  0.00     0.018 A 
HETATM    9  C   UNK N   1      35.162  13.676  18.510  0.00  0.00     0.088 A 
HETATM   10  N   UNK N   1      34.958  13.459  17.183  0.00  0.00    -0.363 N 
ATOM     11  HN  UNK N   1      34.804  14.257  16.566  1.00  0.00     0.165 HD
HETATM   12  I   UNK N   1      34.432  10.357  12.696  0.00  0.00    -0.042 I 
HETATM   13  I   UNK N   1      35.488   8.048  18.114  0.00  0.00    -0.044 I 
ENDROOT
BRANCH   6  14
HETATM   14  O   UNK N   1      34.544  13.068  14.476  0.00  0.00    -0.357 OA
HETATM   15  H   UNK N   1      34.098  13.826  14.798  0.00  0.00     0.217 HD
ENDBRANCH   6  14
TORSDOF 1
ENDMDL
MODEL 8
REMARK VINA RESULT:      -5.0      8.397      8.996
REMARK  1 active torsions:
REMARK  status: ('A' for Active; 'I' for Inactive)
REMARK    1  A    between atoms: C_6  and  O_12 
ROOT
HETATM    1  C   UNK N   1      29.833  16.451   5.355  0.00  0.00     0.043 A 
HETATM    2  C   UNK N   1      29.725  16.693   6.723  0.00  0.00     0.040 A 
HETATM    3  C   UNK N   1      29.019  17.796   7.202  0.00  0.00     0.020 A 
HETATM    4  C   UNK N   1      28.404  18.677   6.292  0.00  0.00     0.010 A 
HETATM    5  C   UNK N   1      28.512  18.436   4.902  0.00  0.00     0.078 A 
HETATM    6  C   UNK N   1      29.228  17.322   4.436  0.00  0.00     0.109 A 
HETATM    7  C   UNK N   1      27.687  19.795   6.732  0.00  0.00     0.016 A 
HETATM    8  C   UNK N   1      27.093  20.649   5.801  0.00  0.00     0.018 A 
HETATM    9  C   UNK N   1      27.221  20.379   4.438  0.00  0.00     0.088 A 
HETATM   10  N   UNK N   1      27.920  19.291   4.018  0.00  0.00    -0.363 N 
ATOM     11  HN  UNK N   1      28.004  19.108   3.018  1.00  0.00     0.165 HD
HETATM   12  I   UNK N   1      30.925  14.762   4.721  0.00  0.00    -0.042 I 
HETATM   13  I   UNK N   1      28.940  18.064   9.298  0.00  0.00    -0.044 I 
ENDROOT
BRANCH   6  14
HETATM   14  O   UNK N   1      29.336  17.092   3.116  0.00  0.00    -0.357 OA
HETATM   15  H   UNK N   1      29.907  16.419   2.803  0.00  0.00     0.217 HD
ENDBRANCH   6  14
TORSDOF 1
ENDMDL
MODEL 9
REMARK VINA RESULT:      -4.9     11.610     12.330
REMARK  1 active torsions:
REMARK  status: ('A' for Active; 'I' for Inactive)
REMARK    1  A    between atoms: C_6  and  O_12 
ROOT
HETATM    1  C   UNK N   1      29.445  16.873   6.418  0.00  0.00     0.043 A 
HETATM    2  C   UNK N   1      30.129  16.780   5.208  0.00  0.00     0.040 A 
HETATM    3  C   UNK N   1      31.514  16.941   5.153  0.00  0.00     0.020 A 
HETATM    4  C   UNK N   1      32.231  17.200   6.337  0.00  0.00     0.010 A 
HETATM    5  C   UNK N   1      31.541  17.297   7.568  0.00  0.00     0.078 A 
HETATM    6  C   UNK N   1      30.147  17.134   7.605  0.00  0.00     0.109 A 
HETATM    7  C   UNK N   1      33.620  17.369   6.324  0.00  0.00     0.016 A 
HETATM    8  C   UNK N   1      34.299  17.628   7.516  0.00  0.00     0.018 A 
HETATM    9  C   UNK N   1      33.584  17.717   8.711  0.00  0.00     0.088 A 
HETATM   10  N   UNK N   1      32.234  17.552   8.715  0.00  0.00    -0.363 N 
ATOM     11  HN  UNK N   1      31.726  17.620   9.597  1.00  0.00     0.165 HD
HETATM   12  I   UNK N   1      27.352  16.620   6.405  0.00  0.00    -0.042 I 
HETATM   13  I   UNK N   1      32.435  16.791   3.256  0.00  0.00    -0.044 I 
ENDROOT
BRANCH   6  14
HETATM   14  O   UNK N   1      29.487  17.229   8.772  0.00  0.00    -0.357 OA
HETATM   15  H   UNK N   1      28.740  17.790   8.844  0.00  0.00     0.217 HD
ENDBRANCH   6  14
TORSDOF 1
ENDMDL
