MODEL 1
REMARK VINA RESULT:      -7.9      0.000      0.000
REMARK  4 active torsions:
REMARK  status: ('A' for Active; 'I' for Inactive)
REMARK    1  A    between atoms: C_21  and  C_16 
REMARK    2  A    between atoms: N_34  and  C_17 
REMARK    3  A    between atoms: N_33  and  C_18 
REMARK    4  A    between atoms: N_30  and  C_20 
REMARK       I    between atoms: N_30  and  C_24 
ROOT
HETATM    1  C   UNK N   1      29.712  13.361   1.882  0.00  0.00     0.050 C 
HETATM    2  C   UNK N   1      28.176  15.266   3.284  0.00  0.00     0.122 A 
HETATM    3  C   UNK N   1      30.325  14.204   2.968  0.00  0.00    -0.027 A 
HETATM    4  C   UNK N   1      29.516  15.128   3.627  0.00  0.00     0.032 A 
HETATM    5  C   UNK N   1      31.689  14.088   3.325  0.00  0.00     0.084 A 
HETATM    6  C   UNK N   1      30.033  15.945   4.648  0.00  0.00     0.138 A 
HETATM    7  C   UNK N   1      32.184  14.924   4.373  0.00  0.00     0.264 A 
HETATM    8  C   UNK N   1      27.913  16.993   4.873  0.00  0.00     0.685 A 
HETATM    9  N   UNK N   1      27.411  16.183   3.905  0.00  0.00    -0.201 N 
ATOM     10  HN  UNK N   1      26.430  16.272   3.641  1.00  0.00     0.183 HD
HETATM   11  N   UNK N   1      27.078  17.983   5.467  0.00  0.00    -0.176 N 
HETATM   12  N   UNK N   1      29.209  16.855   5.255  0.00  0.00    -0.175 N 
ATOM     13  HN  UNK N   1      29.574  17.439   6.007  1.00  0.00     0.186 HD
HETATM   14  N   UNK N   1      31.348  15.837   5.023  0.00  0.00    -0.293 N 
HETATM   15  O   UNK N   1      33.354  14.836   4.698  0.00  0.00    -0.267 OA
HETATM   16  H   UNK N   1      27.361  18.432   6.296  0.00  0.00     0.186 HD
ENDROOT
BRANCH  11  17
HETATM   17  C   UNK N   1      25.836  18.323   4.863  0.00  0.00     0.120 A 
HETATM   18  C   UNK N   1      25.757  19.324   3.889  0.00  0.00     0.051 A 
HETATM   19  C   UNK N   1      24.493  19.712   3.413  0.00  0.00     0.034 A 
HETATM   20  C   UNK N   1      23.330  19.098   3.917  0.00  0.00     0.045 A 
HETATM   21  C   UNK N   1      23.472  18.076   4.852  0.00  0.00     0.119 A 
HETATM   22  N   UNK N   1      24.695  17.719   5.294  0.00  0.00    -0.350 N 
ATOM     23  HN  UNK N   1      24.768  16.966   5.978  1.00  0.00     0.166 HD
BRANCH  20  24
HETATM   24  N   UNK N   1      22.025  19.486   3.493  0.00  0.00    -0.377 N 
HETATM   25  C   UNK N   1      20.846  18.752   3.900  0.00  0.00     0.142 C 
HETATM   26  C   UNK N   1      19.995  18.442   2.665  0.00  0.00     0.133 C 
HETATM   27  N   UNK N   1      19.725  19.671   1.915  0.00  0.00    -0.418 N 
HETATM   28  C   UNK N   1      20.994  20.205   1.424  0.00  0.00     0.133 C 
HETATM   29  H   UNK N   1      18.804  20.085   1.760  0.00  0.00     0.153 HD
HETATM   30  C   UNK N   1      21.849  20.626   2.614  0.00  0.00     0.142 C 
ENDBRANCH  20  24
ENDBRANCH  11  17
BRANCH  14  31
HETATM   31  C   UNK N   1      31.804  16.710   6.142  0.00  0.00     0.095 C 
HETATM   32  C   UNK N   1      33.153  17.344   5.890  0.00  0.00     0.026 C 
HETATM   33  C   UNK N   1      33.516  17.952   7.229  0.00  0.00     0.002 C 
HETATM   34  C   UNK N   1      32.794  17.117   8.281  0.00  0.00     0.002 C 
HETATM   35  C   UNK N   1      31.942  16.111   7.527  0.00  0.00     0.026 C 
ENDBRANCH  14  31
BRANCH   5  36
HETATM   36  C   UNK N   1      32.593  13.104   2.609  0.00  0.00     0.161 C 
HETATM   37  C   UNK N   1      32.789  11.703   3.090  0.00  0.00     0.097 C 
HETATM   38  O   UNK N   1      33.205  13.435   1.606  0.00  0.00    -0.293 OA
ENDBRANCH   5  36
TORSDOF 4
ENDMDL
MODEL 2
REMARK VINA RESULT:      -7.9      4.361     10.110
REMARK  4 active torsions:
REMARK  status: ('A' for Active; 'I' for Inactive)
REMARK    1  A    between atoms: C_21  and  C_16 
REMARK    2  A    between atoms: N_34  and  C_17 
REMARK    3  A    between atoms: N_33  and  C_18 
REMARK    4  A    between atoms: N_30  and  C_20 
REMARK       I    between atoms: N_30  and  C_24 
ROOT
HETATM    1  C   UNK N   1      24.086  13.031   8.397  0.00  0.00     0.050 C 
HETATM    2  C   UNK N   1      25.882  14.692   6.994  0.00  0.00     0.122 A 
HETATM    3  C   UNK N   1      23.585  14.143   7.515  0.00  0.00    -0.027 A 
HETATM    4  C   UNK N   1      24.520  14.931   6.846  0.00  0.00     0.032 A 
HETATM    5  C   UNK N   1      22.205  14.412   7.360  0.00  0.00     0.084 A 
HETATM    6  C   UNK N   1      24.113  15.985   6.010  0.00  0.00     0.138 A 
HETATM    7  C   UNK N   1      21.820  15.483   6.496  0.00  0.00     0.264 A 
HETATM    8  C   UNK N   1      26.389  16.515   5.581  0.00  0.00     0.685 A 
HETATM    9  N   UNK N   1      26.777  15.477   6.368  0.00  0.00    -0.201 N 
ATOM     10  HN  UNK N   1      27.772  15.289   6.488  1.00  0.00     0.183 HD
HETATM   11  N   UNK N   1      27.374  17.350   4.978  0.00  0.00    -0.176 N 
HETATM   12  N   UNK N   1      25.065  16.749   5.387  0.00  0.00    -0.175 N 
ATOM     13  HN  UNK N   1      24.776  17.505   4.767  1.00  0.00     0.186 HD
HETATM   14  N   UNK N   1      22.779  16.252   5.830  0.00  0.00    -0.293 N 
HETATM   15  O   UNK N   1      20.637  15.726   6.346  0.00  0.00    -0.267 OA
HETATM   16  H   UNK N   1      27.119  17.967   4.255  0.00  0.00     0.186 HD
ENDROOT
BRANCH  11  17
HETATM   17  C   UNK N   1      28.724  17.291   5.419  0.00  0.00     0.120 A 
HETATM   18  C   UNK N   1      29.745  16.859   4.565  0.00  0.00     0.051 A 
HETATM   19  C   UNK N   1      31.041  16.697   5.081  0.00  0.00     0.034 A 
HETATM   20  C   UNK N   1      31.299  16.967   6.439  0.00  0.00     0.045 A 
HETATM   21  C   UNK N   1      30.255  17.439   7.232  0.00  0.00     0.119 A 
HETATM   22  N   UNK N   1      29.019  17.587   6.715  0.00  0.00    -0.350 N 
ATOM     23  HN  UNK N   1      28.274  17.936   7.318  1.00  0.00     0.166 HD
BRANCH  20  24
HETATM   24  N   UNK N   1      32.590  16.780   7.017  0.00  0.00    -0.377 N 
HETATM   25  C   UNK N   1      32.868  15.677   7.912  0.00  0.00     0.142 C 
HETATM   26  C   UNK N   1      33.553  16.213   9.172  0.00  0.00     0.133 C 
HETATM   27  N   UNK N   1      34.721  17.019   8.810  0.00  0.00    -0.418 N 
HETATM   28  C   UNK N   1      34.266  18.185   8.055  0.00  0.00     0.133 C 
HETATM   29  H   UNK N   1      35.691  16.803   9.045  0.00  0.00     0.153 HD
HETATM   30  C   UNK N   1      33.660  17.717   6.736  0.00  0.00     0.142 C 
ENDBRANCH  20  24
ENDBRANCH  11  17
BRANCH  14  31
HETATM   31  C   UNK N   1      22.433  17.360   4.894  0.00  0.00     0.095 C 
HETATM   32  C   UNK N   1      21.476  18.366   5.492  0.00  0.00     0.026 C 
HETATM   33  C   UNK N   1      21.076  19.223   4.309  0.00  0.00     0.002 C 
HETATM   34  C   UNK N   1      21.223  18.337   3.077  0.00  0.00     0.002 C 
HETATM   35  C   UNK N   1      21.807  17.020   3.558  0.00  0.00     0.026 C 
ENDBRANCH  14  31
BRANCH   5  36
HETATM   36  C   UNK N   1      21.170  13.581   8.093  0.00  0.00     0.161 C 
HETATM   37  C   UNK N   1      20.669  13.947   9.452  0.00  0.00     0.097 C 
HETATM   38  O   UNK N   1      20.713  12.567   7.589  0.00  0.00    -0.293 OA
ENDBRANCH   5  36
TORSDOF 4
ENDMDL
MODEL 3
REMARK VINA RESULT:      -7.8      7.239     10.783
REMARK  4 active torsions:
REMARK  status: ('A' for Active; 'I' for Inactive)
REMARK    1  A    between atoms: C_21  and  C_16 
REMARK    2  A    between atoms: N_34  and  C_17 
REMARK    3  A    between atoms: N_33  and  C_18 
REMARK    4  A    between atoms: N_30  and  C_20 
REMARK       I    between atoms: N_30  and  C_24 
ROOT
HETATM    1  C   UNK N   1      36.158   9.376  10.716  0.00  0.00     0.050 C 
HETATM    2  C   UNK N   1      34.873  11.869  10.428  0.00  0.00     0.122 A 
HETATM    3  C   UNK N   1      36.105  10.357  11.856  0.00  0.00    -0.027 A 
HETATM    4  C   UNK N   1      35.455  11.573  11.656  0.00  0.00     0.032 A 
HETATM    5  C   UNK N   1      36.701  10.081  13.109  0.00  0.00     0.084 A 
HETATM    6  C   UNK N   1      35.375  12.530  12.683  0.00  0.00     0.138 A 
HETATM    7  C   UNK N   1      36.595  11.067  14.138  0.00  0.00     0.264 A 
HETATM    8  C   UNK N   1      34.219  13.998  11.216  0.00  0.00     0.685 A 
HETATM    9  N   UNK N   1      34.274  13.059  10.235  0.00  0.00    -0.201 N 
ATOM     10  HN  UNK N   1      33.853  13.261   9.328  1.00  0.00     0.183 HD
HETATM   11  N   UNK N   1      33.618  15.262  10.948  0.00  0.00    -0.176 N 
HETATM   12  N   UNK N   1      34.745  13.722  12.436  0.00  0.00    -0.175 N 
ATOM     13  HN  UNK N   1      34.670  14.413  13.182  1.00  0.00     0.186 HD
HETATM   14  N   UNK N   1      35.930  12.276  13.911  0.00  0.00    -0.293 N 
HETATM   15  O   UNK N   1      37.097  10.846  15.224  0.00  0.00    -0.267 OA
HETATM   16  H   UNK N   1      33.391  15.865  11.692  0.00  0.00     0.186 HD
ENDROOT
BRANCH  11  17
HETATM   17  C   UNK N   1      33.347  15.653   9.608  0.00  0.00     0.120 A 
HETATM   18  C   UNK N   1      34.347  16.206   8.801  0.00  0.00     0.051 A 
HETATM   19  C   UNK N   1      34.003  16.693   7.529  0.00  0.00     0.034 A 
HETATM   20  C   UNK N   1      32.669  16.622   7.083  0.00  0.00     0.045 A 
HETATM   21  C   UNK N   1      31.724  16.020   7.910  0.00  0.00     0.119 A 
HETATM   22  N   UNK N   1      32.077  15.559   9.127  0.00  0.00    -0.350 N 
ATOM     23  HN  UNK N   1      31.364  15.121   9.711  1.00  0.00     0.166 HD
BRANCH  20  24
HETATM   24  N   UNK N   1      32.265  17.139   5.817  0.00  0.00    -0.377 N 
HETATM   25  C   UNK N   1      30.869  17.248   5.452  0.00  0.00     0.142 C 
HETATM   26  C   UNK N   1      30.660  16.624   4.069  0.00  0.00     0.133 C 
HETATM   27  N   UNK N   1      31.594  17.207   3.104  0.00  0.00    -0.418 N 
HETATM   28  C   UNK N   1      32.957  16.871   3.512  0.00  0.00     0.133 C 
HETATM   29  H   UNK N   1      31.337  17.758   2.283  0.00  0.00     0.153 HD
HETATM   30  C   UNK N   1      33.259  17.550   4.843  0.00  0.00     0.142 C 
ENDBRANCH  20  24
ENDBRANCH  11  17
BRANCH  14  31
HETATM   31  C   UNK N   1      35.763  13.326  14.956  0.00  0.00     0.095 C 
HETATM   32  C   UNK N   1      37.055  14.030  15.303  0.00  0.00     0.026 C 
HETATM   33  C   UNK N   1      36.699  14.840  16.532  0.00  0.00     0.002 C 
HETATM   34  C   UNK N   1      35.553  14.097  17.211  0.00  0.00     0.002 C 
HETATM   35  C   UNK N   1      35.196  12.932  16.305  0.00  0.00     0.026 C 
ENDBRANCH  14  31
BRANCH   5  36
HETATM   36  C   UNK N   1      37.431   8.773  13.346  0.00  0.00     0.161 C 
HETATM   37  C   UNK N   1      36.743   7.558  13.878  0.00  0.00     0.097 C 
HETATM   38  O   UNK N   1      38.625   8.674  13.110  0.00  0.00    -0.293 OA
ENDBRANCH   5  36
TORSDOF 4
ENDMDL
MODEL 4
REMARK VINA RESULT:      -7.8      3.073      5.245
REMARK  4 active torsions:
REMARK  status: ('A' for Active; 'I' for Inactive)
REMARK    1  A    between atoms: C_21  and  C_16 
REMARK    2  A    between atoms: N_34  and  C_17 
REMARK    3  A    between atoms: N_33  and  C_18 
REMARK    4  A    between atoms: N_30  and  C_20 
REMARK       I    between atoms: N_30  and  C_24 
ROOT
HETATM    1  C   UNK N   1      31.499  18.539   9.044  0.00  0.00     0.050 C 
HETATM    2  C   UNK N   1      29.492  17.429   7.405  0.00  0.00     0.122 A 
HETATM    3  C   UNK N   1      31.853  17.670   7.867  0.00  0.00    -0.027 A 
HETATM    4  C   UNK N   1      30.818  17.150   7.092  0.00  0.00     0.032 A 
HETATM    5  C   UNK N   1      33.194  17.364   7.539  0.00  0.00     0.084 A 
HETATM    6  C   UNK N   1      31.085  16.330   5.982  0.00  0.00     0.138 A 
HETATM    7  C   UNK N   1      33.437  16.536   6.399  0.00  0.00     0.264 A 
HETATM    8  C   UNK N   1      28.752  16.082   5.611  0.00  0.00     0.685 A 
HETATM    9  N   UNK N   1      28.499  16.897   6.668  0.00  0.00    -0.201 N 
ATOM     10  HN  UNK N   1      27.532  17.111   6.911  1.00  0.00     0.183 HD
HETATM   11  N   UNK N   1      27.667  15.502   4.892  0.00  0.00    -0.176 N 
HETATM   12  N   UNK N   1      30.038  15.823   5.260  0.00  0.00    -0.175 N 
ATOM     13  HN  UNK N   1      30.226  15.241   4.444  1.00  0.00     0.186 HD
HETATM   14  N   UNK N   1      32.379  16.035   5.634  0.00  0.00    -0.293 N 
HETATM   15  O   UNK N   1      34.584  16.266   6.098  0.00  0.00    -0.267 OA
HETATM   16  H   UNK N   1      27.827  15.083   4.016  0.00  0.00     0.186 HD
ENDROOT
BRANCH  11  17
HETATM   17  C   UNK N   1      26.354  15.529   5.438  0.00  0.00     0.120 A 
HETATM   18  C   UNK N   1      25.940  14.571   6.370  0.00  0.00     0.051 A 
HETATM   19  C   UNK N   1      24.599  14.562   6.786  0.00  0.00     0.034 A 
HETATM   20  C   UNK N   1      23.692  15.506   6.266  0.00  0.00     0.045 A 
HETATM   21  C   UNK N   1      24.170  16.466   5.377  0.00  0.00     0.119 A 
HETATM   22  N   UNK N   1      25.463  16.456   4.992  0.00  0.00    -0.350 N 
ATOM     23  HN  UNK N   1      25.786  17.171   4.341  1.00  0.00     0.166 HD
BRANCH  20  24
HETATM   24  N   UNK N   1      22.313  15.511   6.628  0.00  0.00    -0.377 N 
HETATM   25  C   UNK N   1      21.397  16.508   6.116  0.00  0.00     0.142 C 
HETATM   26  C   UNK N   1      20.609  17.113   7.281  0.00  0.00     0.133 C 
HETATM   27  N   UNK N   1      19.981  16.052   8.073  0.00  0.00    -0.418 N 
HETATM   28  C   UNK N   1      21.034  15.228   8.665  0.00  0.00     0.133 C 
HETATM   29  H   UNK N   1      18.977  15.911   8.192  0.00  0.00     0.153 HD
HETATM   30  C   UNK N   1      21.794  14.518   7.550  0.00  0.00     0.142 C 
ENDBRANCH  20  24
ENDBRANCH  11  17
BRANCH  14  31
HETATM   31  C   UNK N   1      32.576  15.195   4.419  0.00  0.00     0.095 C 
HETATM   32  C   UNK N   1      33.160  13.834   4.725  0.00  0.00     0.026 C 
HETATM   33  C   UNK N   1      33.506  13.280   3.359  0.00  0.00     0.002 C 
HETATM   34  C   UNK N   1      33.761  14.488   2.465  0.00  0.00     0.002 C 
HETATM   35  C   UNK N   1      33.454  15.718   3.301  0.00  0.00     0.026 C 
ENDBRANCH  14  31
BRANCH   5  36
HETATM   36  C   UNK N   1      34.336  17.901   8.379  0.00  0.00     0.161 C 
HETATM   37  C   UNK N   1      34.905  17.144   9.534  0.00  0.00     0.097 C 
HETATM   38  O   UNK N   1      34.829  18.992   8.136  0.00  0.00    -0.293 OA
ENDBRANCH   5  36
TORSDOF 4
ENDMDL
MODEL 5
REMARK VINA RESULT:      -7.7      3.998     10.328
REMARK  4 active torsions:
REMARK  status: ('A' for Active; 'I' for Inactive)
REMARK    1  A    between atoms: C_21  and  C_16 
REMARK    2  A    between atoms: N_34  and  C_17 
REMARK    3  A    between atoms: N_33  and  C_18 
REMARK    4  A    between atoms: N_30  and  C_20 
REMARK       I    between atoms: N_30  and  C_24 
ROOT
HETATM    1  C   UNK N   1      24.031  20.562   3.031  0.00  0.00     0.050 C 
HETATM    2  C   UNK N   1      25.711  18.798   4.451  0.00  0.00     0.122 A 
HETATM    3  C   UNK N   1      23.468  19.361   3.743  0.00  0.00    -0.027 A 
HETATM    4  C   UNK N   1      24.347  18.525   4.430  0.00  0.00     0.032 A 
HETATM    5  C   UNK N   1      22.086  19.059   3.724  0.00  0.00     0.084 A 
HETATM    6  C   UNK N   1      23.881  17.388   5.112  0.00  0.00     0.138 A 
HETATM    7  C   UNK N   1      21.640  17.902   4.435  0.00  0.00     0.264 A 
HETATM    8  C   UNK N   1      26.112  16.852   5.728  0.00  0.00     0.685 A 
HETATM    9  N   UNK N   1      26.555  17.968   5.091  0.00  0.00    -0.201 N 
ATOM     10  HN  UNK N   1      27.552  18.181   5.097  1.00  0.00     0.183 HD
HETATM   11  N   UNK N   1      27.049  15.977   6.350  0.00  0.00    -0.176 N 
HETATM   12  N   UNK N   1      24.782  16.581   5.756  0.00  0.00    -0.175 N 
ATOM     13  HN  UNK N   1      24.448  15.764   6.266  1.00  0.00     0.186 HD
HETATM   14  N   UNK N   1      22.544  17.085   5.122  0.00  0.00    -0.293 N 
HETATM   15  O   UNK N   1      20.455  17.628   4.434  0.00  0.00    -0.267 OA
HETATM   16  H   UNK N   1      26.736  15.287   6.978  0.00  0.00     0.186 HD
ENDROOT
BRANCH  11  17
HETATM   17  C   UNK N   1      28.437  16.098   6.063  0.00  0.00     0.120 A 
HETATM   18  C   UNK N   1      29.023  15.383   5.013  0.00  0.00     0.051 A 
HETATM   19  C   UNK N   1      30.416  15.437   4.847  0.00  0.00     0.034 A 
HETATM   20  C   UNK N   1      31.204  16.202   5.730  0.00  0.00     0.045 A 
HETATM   21  C   UNK N   1      30.562  16.931   6.728  0.00  0.00     0.119 A 
HETATM   22  N   UNK N   1      29.222  16.864   6.869  0.00  0.00    -0.350 N 
ATOM     23  HN  UNK N   1      28.779  17.410   7.608  1.00  0.00     0.166 HD
BRANCH  20  24
HETATM   24  N   UNK N   1      32.625  16.256   5.625  0.00  0.00    -0.377 N 
HETATM   25  C   UNK N   1      33.334  15.571   4.566  0.00  0.00     0.142 C 
HETATM   26  C   UNK N   1      34.474  14.749   5.173  0.00  0.00     0.133 C 
HETATM   27  N   UNK N   1      35.312  15.597   6.025  0.00  0.00    -0.418 N 
HETATM   28  C   UNK N   1      34.502  16.077   7.143  0.00  0.00     0.133 C 
HETATM   29  H   UNK N   1      36.296  15.816   5.865  0.00  0.00     0.153 HD
HETATM   30  C   UNK N   1      33.403  16.988   6.606  0.00  0.00     0.142 C 
ENDBRANCH  20  24
ENDBRANCH  11  17
BRANCH  14  31
HETATM   31  C   UNK N   1      22.129  15.886   5.904  0.00  0.00     0.095 C 
HETATM   32  C   UNK N   1      21.381  14.865   5.076  0.00  0.00     0.026 C 
HETATM   33  C   UNK N   1      20.849  13.892   6.107  0.00  0.00     0.002 C 
HETATM   34  C   UNK N   1      20.700  14.686   7.400  0.00  0.00     0.002 C 
HETATM   35  C   UNK N   1      21.248  16.074   7.122  0.00  0.00     0.026 C 
ENDBRANCH  14  31
BRANCH   5  36
HETATM   36  C   UNK N   1      21.113  19.942   2.968  0.00  0.00     0.161 C 
HETATM   37  C   UNK N   1      20.698  19.653   1.562  0.00  0.00     0.097 C 
HETATM   38  O   UNK N   1      20.639  20.937   3.492  0.00  0.00    -0.293 OA
ENDBRANCH   5  36
TORSDOF 4
ENDMDL
MODEL 6
REMARK VINA RESULT:      -7.7      4.307     10.427
REMARK  4 active torsions:
REMARK  status: ('A' for Active; 'I' for Inactive)
REMARK    1  A    between atoms: C_21  and  C_16 
REMARK    2  A    between atoms: N_34  and  C_17 
REMARK    3  A    between atoms: N_33  and  C_18 
REMARK    4  A    between atoms: N_30  and  C_20 
REMARK       I    between atoms: N_30  and  C_24 
ROOT
HETATM    1  C   UNK N   1      28.679  13.300   4.271  0.00  0.00     0.050 C 
HETATM    2  C   UNK N   1      30.574  14.698   5.822  0.00  0.00     0.122 A 
HETATM    3  C   UNK N   1      28.478  14.751   4.618  0.00  0.00    -0.027 A 
HETATM    4  C   UNK N   1      29.449  15.390   5.387  0.00  0.00     0.032 A 
HETATM    5  C   UNK N   1      27.335  15.470   4.197  0.00  0.00     0.084 A 
HETATM    6  C   UNK N   1      29.316  16.743   5.745  0.00  0.00     0.138 A 
HETATM    7  C   UNK N   1      27.231  16.846   4.567  0.00  0.00     0.264 A 
HETATM    8  C   UNK N   1      31.353  16.615   6.961  0.00  0.00     0.685 A 
HETATM    9  N   UNK N   1      31.491  15.315   6.589  0.00  0.00    -0.201 N 
ATOM     10  HN  UNK N   1      32.310  14.794   6.900  1.00  0.00     0.183 HD
HETATM   11  N   UNK N   1      32.324  17.212   7.816  0.00  0.00    -0.176 N 
HETATM   12  N   UNK N   1      30.283  17.326   6.520  0.00  0.00    -0.175 N 
ATOM     13  HN  UNK N   1      30.200  18.311   6.769  1.00  0.00     0.186 HD
HETATM   14  N   UNK N   1      28.225  17.464   5.332  0.00  0.00    -0.293 N 
HETATM   15  O   UNK N   1      26.257  17.483   4.210  0.00  0.00    -0.267 OA
HETATM   16  H   UNK N   1      32.348  18.190   7.925  0.00  0.00     0.186 HD
ENDROOT
BRANCH  11  17
HETATM   17  C   UNK N   1      33.260  16.396   8.509  0.00  0.00     0.120 A 
HETATM   18  C   UNK N   1      34.526  16.134   7.974  0.00  0.00     0.051 A 
HETATM   19  C   UNK N   1      35.368  15.223   8.632  0.00  0.00     0.034 A 
HETATM   20  C   UNK N   1      34.935  14.587   9.812  0.00  0.00     0.045 A 
HETATM   21  C   UNK N   1      33.683  14.920  10.325  0.00  0.00     0.119 A 
HETATM   22  N   UNK N   1      32.892  15.799   9.676  0.00  0.00    -0.350 N 
ATOM     23  HN  UNK N   1      31.981  16.026  10.075  1.00  0.00     0.166 HD
BRANCH  20  24
HETATM   24  N   UNK N   1      35.738  13.625  10.493  0.00  0.00    -0.377 N 
HETATM   25  C   UNK N   1      35.443  13.214  11.849  0.00  0.00     0.142 C 
HETATM   26  C   UNK N   1      36.719  13.303  12.690  0.00  0.00     0.133 C 
HETATM   27  N   UNK N   1      37.805  12.560  12.046  0.00  0.00    -0.418 N 
HETATM   28  C   UNK N   1      38.105  13.194  10.764  0.00  0.00     0.133 C 
HETATM   29  H   UNK N   1      38.273  11.737  12.428  0.00  0.00     0.153 HD
HETATM   30  C   UNK N   1      36.899  13.048   9.842  0.00  0.00     0.142 C 
ENDBRANCH  20  24
ENDBRANCH  11  17
BRANCH  14  31
HETATM   31  C   UNK N   1      28.182  18.903   5.719  0.00  0.00     0.095 C 
HETATM   32  C   UNK N   1      27.291  19.172   6.911  0.00  0.00     0.026 C 
HETATM   33  C   UNK N   1      27.200  20.683   6.953  0.00  0.00     0.002 C 
HETATM   34  C   UNK N   1      27.412  21.159   5.520  0.00  0.00     0.002 C 
HETATM   35  C   UNK N   1      27.729  19.923   4.696  0.00  0.00     0.026 C 
ENDBRANCH  14  31
BRANCH   5  36
HETATM   36  C   UNK N   1      26.255  14.791   3.377  0.00  0.00     0.161 C 
HETATM   37  C   UNK N   1      26.228  14.852   1.884  0.00  0.00     0.097 C 
HETATM   38  O   UNK N   1      25.356  14.171   3.922  0.00  0.00    -0.293 OA
ENDBRANCH   5  36
TORSDOF 4
ENDMDL
MODEL 7
REMARK VINA RESULT:      -7.5      4.536     10.713
REMARK  4 active torsions:
REMARK  status: ('A' for Active; 'I' for Inactive)
REMARK    1  A    between atoms: C_21  and  C_16 
REMARK    2  A    between atoms: N_34  and  C_17 
REMARK    3  A    between atoms: N_33  and  C_18 
REMARK    4  A    between atoms: N_30  and  C_20 
REMARK       I    between atoms: N_30  and  C_24 
ROOT
HETATM    1  C   UNK N   1      31.149  12.543   4.586  0.00  0.00     0.050 C 
HETATM    2  C   UNK N   1      32.246  14.256   6.539  0.00  0.00     0.122 A 
HETATM    3  C   UNK N   1      30.544  13.893   4.861  0.00  0.00    -0.027 A 
HETATM    4  C   UNK N   1      31.129  14.697   5.837  0.00  0.00     0.032 A 
HETATM    5  C   UNK N   1      29.401  14.357   4.166  0.00  0.00     0.084 A 
HETATM    6  C   UNK N   1      30.608  15.967   6.139  0.00  0.00     0.138 A 
HETATM    7  C   UNK N   1      28.899  15.656   4.487  0.00  0.00     0.264 A 
HETATM    8  C   UNK N   1      32.267  16.243   7.816  0.00  0.00     0.685 A 
HETATM    9  N   UNK N   1      32.785  15.027   7.501  0.00  0.00    -0.201 N 
ATOM     10  HN  UNK N   1      33.603  14.689   8.008  1.00  0.00     0.183 HD
HETATM   11  N   UNK N   1      32.842  17.002   8.876  0.00  0.00    -0.176 N 
HETATM   12  N   UNK N   1      31.201  16.716   7.121  0.00  0.00    -0.175 N 
ATOM     13  HN  UNK N   1      30.837  17.644   7.333  1.00  0.00     0.186 HD
HETATM   14  N   UNK N   1      29.512  16.444   5.466  0.00  0.00    -0.293 N 
HETATM   15  O   UNK N   1      27.920  16.073   3.897  0.00  0.00    -0.267 OA
HETATM   16  H   UNK N   1      32.614  17.954   8.980  0.00  0.00     0.186 HD
ENDROOT
BRANCH  11  17
HETATM   17  C   UNK N   1      33.746  16.385   9.785  0.00  0.00     0.120 A 
HETATM   18  C   UNK N   1      35.074  16.813   9.884  0.00  0.00     0.051 A 
HETATM   19  C   UNK N   1      35.962  16.094  10.701  0.00  0.00     0.034 A 
HETATM   20  C   UNK N   1      35.512  14.960  11.405  0.00  0.00     0.045 A 
HETATM   21  C   UNK N   1      34.168  14.607  11.305  0.00  0.00     0.119 A 
HETATM   22  N   UNK N   1      33.334  15.312  10.514  0.00  0.00    -0.350 N 
ATOM     23  HN  UNK N   1      32.355  15.032  10.462  1.00  0.00     0.166 HD
BRANCH  20  24
HETATM   24  N   UNK N   1      36.385  14.175  12.215  0.00  0.00    -0.377 N 
HETATM   25  C   UNK N   1      37.221  13.140  11.647  0.00  0.00     0.142 C 
HETATM   26  C   UNK N   1      37.045  11.851  12.456  0.00  0.00     0.133 C 
HETATM   27  N   UNK N   1      37.272  12.112  13.880  0.00  0.00    -0.418 N 
HETATM   28  C   UNK N   1      36.249  13.044  14.351  0.00  0.00     0.133 C 
HETATM   29  H   UNK N   1      38.020  11.710  14.448  0.00  0.00     0.153 HD
HETATM   30  C   UNK N   1      36.437  14.384  13.649  0.00  0.00     0.142 C 
ENDBRANCH  20  24
ENDBRANCH  11  17
BRANCH  14  31
HETATM   31  C   UNK N   1      29.049  17.817   5.817  0.00  0.00     0.095 C 
HETATM   32  C   UNK N   1      27.901  17.823   6.803  0.00  0.00     0.026 C 
HETATM   33  C   UNK N   1      27.443  19.266   6.805  0.00  0.00     0.002 C 
HETATM   34  C   UNK N   1      27.814  19.830   5.438  0.00  0.00     0.002 C 
HETATM   35  C   UNK N   1      28.575  18.735   4.710  0.00  0.00     0.026 C 
ENDBRANCH  14  31
BRANCH   5  36
HETATM   36  C   UNK N   1      28.735  13.492   3.114  0.00  0.00     0.161 C 
HETATM   37  C   UNK N   1      29.122  13.547   1.672  0.00  0.00     0.097 C 
HETATM   38  O   UNK N   1      27.840  12.718   3.418  0.00  0.00    -0.293 OA
ENDBRANCH   5  36
TORSDOF 4
ENDMDL
MODEL 8
REMARK VINA RESULT:      -7.4      4.756      7.130
REMARK  4 active torsions:
REMARK  status: ('A' for Active; 'I' for Inactive)
REMARK    1  A    between atoms: C_21  and  C_16 
REMARK    2  A    between atoms: N_34  and  C_17 
REMARK    3  A    between atoms: N_33  and  C_18 
REMARK    4  A    between atoms: N_30  and  C_20 
REMARK       I    between atoms: N_30  and  C_24 
ROOT
HETATM    1  C   UNK N   1      36.235  14.358   5.977  0.00  0.00     0.050 C 
HETATM    2  C   UNK N   1      33.840  15.156   7.234  0.00  0.00     0.122 A 
HETATM    3  C   UNK N   1      36.032  14.160   7.455  0.00  0.00    -0.027 A 
HETATM    4  C   UNK N   1      34.827  14.573   8.022  0.00  0.00     0.032 A 
HETATM    5  C   UNK N   1      37.028  13.580   8.276  0.00  0.00     0.084 A 
HETATM    6  C   UNK N   1      34.581  14.415   9.397  0.00  0.00     0.138 A 
HETATM    7  C   UNK N   1      36.746  13.423   9.668  0.00  0.00     0.264 A 
HETATM    8  C   UNK N   1      32.462  15.455   9.129  0.00  0.00     0.685 A 
HETATM    9  N   UNK N   1      32.693  15.579   7.796  0.00  0.00    -0.201 N 
ATOM     10  HN  UNK N   1      31.979  16.006   7.205  1.00  0.00     0.183 HD
HETATM   11  N   UNK N   1      31.253  15.963   9.686  0.00  0.00    -0.176 N 
HETATM   12  N   UNK N   1      33.392  14.855   9.916  0.00  0.00    -0.175 N 
ATOM     13  HN  UNK N   1      33.201  14.729  10.909  1.00  0.00     0.186 HD
HETATM   14  N   UNK N   1      35.525  13.839  10.208  0.00  0.00    -0.293 N 
HETATM   15  O   UNK N   1      37.588  12.922  10.390  0.00  0.00    -0.267 OA
HETATM   16  H   UNK N   1      30.984  15.703  10.597  0.00  0.00     0.186 HD
ENDROOT
BRANCH  11  17
HETATM   17  C   UNK N   1      30.434  16.845   8.928  0.00  0.00     0.120 A 
HETATM   18  C   UNK N   1      29.732  17.886   9.543  0.00  0.00     0.051 A 
HETATM   19  C   UNK N   1      28.839  18.652   8.775  0.00  0.00     0.034 A 
HETATM   20  C   UNK N   1      28.659  18.366   7.407  0.00  0.00     0.045 A 
HETATM   21  C   UNK N   1      29.419  17.347   6.837  0.00  0.00     0.119 A 
HETATM   22  N   UNK N   1      30.271  16.626   7.594  0.00  0.00    -0.350 N 
ATOM     23  HN  UNK N   1      30.816  15.887   7.150  1.00  0.00     0.166 HD
BRANCH  20  24
HETATM   24  N   UNK N   1      27.735  19.089   6.597  0.00  0.00    -0.377 N 
HETATM   25  C   UNK N   1      27.345  18.617   5.286  0.00  0.00     0.142 C 
HETATM   26  C   UNK N   1      27.488  19.760   4.277  0.00  0.00     0.133 C 
HETATM   27  N   UNK N   1      26.762  20.943   4.745  0.00  0.00    -0.418 N 
HETATM   28  C   UNK N   1      27.376  21.405   5.988  0.00  0.00     0.133 C 
HETATM   29  H   UNK N   1      25.960  21.373   4.281  0.00  0.00     0.153 HD
HETATM   30  C   UNK N   1      27.177  20.344   7.065  0.00  0.00     0.142 C 
ENDBRANCH  20  24
ENDBRANCH  11  17
BRANCH  14  31
HETATM   31  C   UNK N   1      35.167  13.671  11.645  0.00  0.00     0.095 C 
HETATM   32  C   UNK N   1      36.134  14.358  12.583  0.00  0.00     0.026 C 
HETATM   33  C   UNK N   1      35.730  13.844  13.949  0.00  0.00     0.002 C 
HETATM   34  C   UNK N   1      35.099  12.476  13.716  0.00  0.00     0.002 C 
HETATM   35  C   UNK N   1      35.051  12.271  12.212  0.00  0.00     0.026 C 
ENDBRANCH  14  31
BRANCH   5  36
HETATM   36  C   UNK N   1      38.354  13.141   7.687  0.00  0.00     0.161 C 
HETATM   37  C   UNK N   1      39.527  14.060   7.585  0.00  0.00     0.097 C 
HETATM   38  O   UNK N   1      38.503  12.005   7.264  0.00  0.00    -0.293 OA
ENDBRANCH   5  36
TORSDOF 4
ENDMDL
MODEL 9
REMARK VINA RESULT:      -7.0      8.292     13.831
REMARK  4 active torsions:
REMARK  status: ('A' for Active; 'I' for Inactive)
REMARK    1  A    between atoms: C_21  and  C_16 
REMARK    2  A    between atoms: N_34  and  C_17 
REMARK    3  A    between atoms: N_33  and  C_18 
REMARK    4  A    between atoms: N_30  and  C_20 
REMARK       I    between atoms: N_30  and  C_24 
ROOT
HETATM    1  C   UNK N   1      38.500  12.552   7.825  0.00  0.00     0.050 C 
HETATM    2  C   UNK N   1      37.065  12.683  10.249  0.00  0.00     0.122 A 
HETATM    3  C   UNK N   1      37.281  13.425   7.958  0.00  0.00    -0.027 A 
HETATM    4  C   UNK N   1      36.613  13.451   9.182  0.00  0.00     0.032 A 
HETATM    5  C   UNK N   1      36.798  14.205   6.881  0.00  0.00     0.084 A 
HETATM    6  C   UNK N   1      35.469  14.246   9.366  0.00  0.00     0.138 A 
HETATM    7  C   UNK N   1      35.639  15.011   7.100  0.00  0.00     0.264 A 
HETATM    8  C   UNK N   1      35.272  13.436  11.590  0.00  0.00     0.685 A 
HETATM    9  N   UNK N   1      36.395  12.691  11.416  0.00  0.00    -0.201 N 
ATOM     10  HN  UNK N   1      36.738  12.121  12.190  1.00  0.00     0.183 HD
HETATM   11  N   UNK N   1      34.568  13.373  12.828  0.00  0.00    -0.176 N 
HETATM   12  N   UNK N   1      34.830  14.225  10.577  0.00  0.00    -0.175 N 
ATOM     13  HN  UNK N   1      34.009  14.812  10.721  1.00  0.00     0.186 HD
HETATM   14  N   UNK N   1      34.993  15.024   8.341  0.00  0.00    -0.293 N 
HETATM   15  O   UNK N   1      35.211  15.692   6.187  0.00  0.00    -0.267 OA
HETATM   16  H   UNK N   1      33.884  14.049  13.039  0.00  0.00     0.186 HD
ENDROOT
BRANCH  11  17
HETATM   17  C   UNK N   1      34.855  12.337  13.758  0.00  0.00     0.120 A 
HETATM   18  C   UNK N   1      34.151  11.128  13.732  0.00  0.00     0.051 A 
HETATM   19  C   UNK N   1      34.379  10.185  14.747  0.00  0.00     0.034 A 
HETATM   20  C   UNK N   1      35.305  10.462  15.773  0.00  0.00     0.045 A 
HETATM   21  C   UNK N   1      36.011  11.662  15.723  0.00  0.00     0.119 A 
HETATM   22  N   UNK N   1      35.775  12.552  14.738  0.00  0.00    -0.350 N 
ATOM     23  HN  UNK N   1      36.308  13.422  14.726  1.00  0.00     0.166 HD
BRANCH  20  24
HETATM   24  N   UNK N   1      35.541   9.553  16.846  0.00  0.00    -0.377 N 
HETATM   25  C   UNK N   1      35.377   9.950  18.227  0.00  0.00     0.142 C 
HETATM   26  C   UNK N   1      36.624   9.545  19.019  0.00  0.00     0.133 C 
HETATM   27  N   UNK N   1      36.911   8.123  18.819  0.00  0.00    -0.418 N 
HETATM   28  C   UNK N   1      37.224   7.905  17.408  0.00  0.00     0.133 C 
HETATM   29  H   UNK N   1      36.895   7.404  19.544  0.00  0.00     0.153 HD
HETATM   30  C   UNK N   1      35.982   8.198  16.573  0.00  0.00     0.142 C 
ENDBRANCH  20  24
ENDBRANCH  11  17
BRANCH  14  31
HETATM   31  C   UNK N   1      33.800  15.869   8.633  0.00  0.00     0.095 C 
HETATM   32  C   UNK N   1      32.558  15.420   7.896  0.00  0.00     0.026 C 
HETATM   33  C   UNK N   1      31.576  16.547   8.135  0.00  0.00     0.002 C 
HETATM   34  C   UNK N   1      32.416  17.800   8.356  0.00  0.00     0.002 C 
HETATM   35  C   UNK N   1      33.868  17.355   8.347  0.00  0.00     0.026 C 
ENDBRANCH  14  31
BRANCH   5  36
HETATM   36  C   UNK N   1      37.496  14.179   5.536  0.00  0.00     0.161 C 
HETATM   37  C   UNK N   1      37.131  13.204   4.464  0.00  0.00     0.097 C 
HETATM   38  O   UNK N   1      38.399  14.963   5.286  0.00  0.00    -0.293 OA
ENDBRANCH   5  36
TORSDOF 4
ENDMDL
