MODEL 1
REMARK VINA RESULT:      -6.5      0.000      0.000
REMARK  7 active torsions:
REMARK  status: ('A' for Active; 'I' for Inactive)
REMARK    1  A    between atoms: N_2  and  C_4 
REMARK    2  A    between atoms: C_4  and  C_5 
REMARK    3  A    between atoms: C_5  and  C_6 
REMARK    4  A    between atoms: C_6  and  O_7 
REMARK    5  A    between atoms: O_7  and  C_8 
REMARK    6  A    between atoms: N_11  and  C_12 
REMARK    7  A    between atoms: C_12  and  C_13 
ROOT
HETATM    1  C   UNK N   1      31.451  17.095   6.765  0.00  0.00     0.170 A 
HETATM    2  N   UNK N   1      30.894  17.012   5.539  0.00  0.00    -0.276 N 
ATOM      3  HN  UNK N   1      31.374  16.709   4.691  1.00  0.00     0.189 HD
HETATM    4  N   UNK N   1      29.621  17.391   5.612  0.00  0.00    -0.285 N 
HETATM    5  C   UNK N   1      29.356  17.710   6.912  0.00  0.00     0.065 A 
HETATM    6  C   UNK N   1      28.179  18.145   7.519  0.00  0.00     0.032 A 
HETATM    7  C   UNK N   1      28.181  18.403   8.900  0.00  0.00     0.002 A 
HETATM    8  C   UNK N   1      29.358  18.231   9.652  0.00  0.00     0.001 A 
HETATM    9  C   UNK N   1      30.535  17.795   9.026  0.00  0.00     0.018 A 
HETATM   10  C   UNK N   1      30.495  17.538   7.655  0.00  0.00     0.044 A 
ENDROOT
BRANCH   1  11
HETATM   11  O   UNK N   1      32.749  16.784   7.005  0.00  0.00    -0.334 OA
BRANCH  11  12
HETATM   12  C   UNK N   1      33.803  17.642   6.782  0.00  0.00     0.179 C 
BRANCH  12  13
HETATM   13  C   UNK N   1      34.430  18.111   8.085  0.00  0.00     0.057 C 
BRANCH  13  14
HETATM   14  C   UNK N   1      34.091  17.088   9.161  0.00  0.00     0.273 C 
BRANCH  14  15
HETATM   15  N   UNK N   1      35.222  16.224   9.470  0.00  0.00     0.080 N 
HETATM   16  C   UNK N   1      34.732  14.861   9.366  0.00  0.00     0.309 C 
HETATM   17  C   UNK N   1      35.609  16.413  10.859  0.00  0.00     0.309 C 
ENDBRANCH  14  15
ENDBRANCH  13  14
ENDBRANCH  12  13
ENDBRANCH  11  12
ENDBRANCH   1  11
BRANCH   4  18
HETATM   18  C   UNK N   1      28.823  17.403   4.368  0.00  0.00     0.187 C 
BRANCH  18  19
HETATM   19  C   UNK N   1      27.651  18.321   4.098  0.00  0.00    -0.038 A 
HETATM   20  C   UNK N   1      26.433  17.708   3.774  0.00  0.00     0.009 A 
HETATM   21  C   UNK N   1      25.295  18.477   3.507  0.00  0.00     0.001 A 
HETATM   22  C   UNK N   1      25.364  19.869   3.566  0.00  0.00     0.000 A 
HETATM   23  C   UNK N   1      26.569  20.489   3.895  0.00  0.00     0.001 A 
HETATM   24  C   UNK N   1      27.701  19.714   4.160  0.00  0.00     0.009 A 
ENDBRANCH  18  19
ENDBRANCH   4  18
TORSDOF 7
ENDMDL
MODEL 2
REMARK VINA RESULT:      -6.2      1.734      3.173
REMARK  7 active torsions:
REMARK  status: ('A' for Active; 'I' for Inactive)
REMARK    1  A    between atoms: N_2  and  C_4 
REMARK    2  A    between atoms: C_4  and  C_5 
REMARK    3  A    between atoms: C_5  and  C_6 
REMARK    4  A    between atoms: C_6  and  O_7 
REMARK    5  A    between atoms: O_7  and  C_8 
REMARK    6  A    between atoms: N_11  and  C_12 
REMARK    7  A    between atoms: C_12  and  C_13 
ROOT
HETATM    1  C   UNK N   1      31.880  16.651   7.965  0.00  0.00     0.170 A 
HETATM    2  N   UNK N   1      30.551  16.861   8.055  0.00  0.00    -0.276 N 
ATOM      3  HN  UNK N   1      29.993  16.770   8.906  1.00  0.00     0.189 HD
HETATM    4  N   UNK N   1      30.081  17.206   6.859  0.00  0.00    -0.285 N 
HETATM    5  C   UNK N   1      31.133  17.228   5.990  0.00  0.00     0.065 A 
HETATM    6  C   UNK N   1      31.185  17.539   4.633  0.00  0.00     0.032 A 
HETATM    7  C   UNK N   1      32.421  17.483   3.968  0.00  0.00     0.002 A 
HETATM    8  C   UNK N   1      33.586  17.111   4.666  0.00  0.00     0.001 A 
HETATM    9  C   UNK N   1      33.517  16.800   6.032  0.00  0.00     0.018 A 
HETATM   10  C   UNK N   1      32.275  16.874   6.663  0.00  0.00     0.044 A 
ENDROOT
BRANCH   1  11
HETATM   11  O   UNK N   1      32.638  16.274   9.025  0.00  0.00    -0.334 OA
BRANCH  11  12
HETATM   12  C   UNK N   1      32.842  14.964   9.401  0.00  0.00     0.179 C 
BRANCH  12  13
HETATM   13  C   UNK N   1      34.322  14.628   9.481  0.00  0.00     0.057 C 
BRANCH  13  14
HETATM   14  C   UNK N   1      35.090  15.934   9.640  0.00  0.00     0.273 C 
BRANCH  14  15
HETATM   15  N   UNK N   1      36.211  15.800  10.560  0.00  0.00     0.080 N 
HETATM   16  C   UNK N   1      36.985  14.664  10.093  0.00  0.00     0.309 C 
HETATM   17  C   UNK N   1      35.713  15.440  11.879  0.00  0.00     0.309 C 
ENDBRANCH  14  15
ENDBRANCH  13  14
ENDBRANCH  12  13
ENDBRANCH  11  12
ENDBRANCH   1  11
BRANCH   4  18
HETATM   18  C   UNK N   1      28.632  17.459   6.723  0.00  0.00     0.187 C 
BRANCH  18  19
HETATM   19  C   UNK N   1      28.019  18.749   6.226  0.00  0.00    -0.038 A 
HETATM   20  C   UNK N   1      27.765  18.837   4.850  0.00  0.00     0.009 A 
HETATM   21  C   UNK N   1      27.202  19.993   4.299  0.00  0.00     0.001 A 
HETATM   22  C   UNK N   1      26.882  21.074   5.122  0.00  0.00     0.000 A 
HETATM   23  C   UNK N   1      27.123  20.994   6.494  0.00  0.00     0.001 A 
HETATM   24  C   UNK N   1      27.686  19.836   7.035  0.00  0.00     0.009 A 
ENDBRANCH  18  19
ENDBRANCH   4  18
TORSDOF 7
ENDMDL
MODEL 3
REMARK VINA RESULT:      -6.2      3.804      9.331
REMARK  7 active torsions:
REMARK  status: ('A' for Active; 'I' for Inactive)
REMARK    1  A    between atoms: N_2  and  C_4 
REMARK    2  A    between atoms: C_4  and  C_5 
REMARK    3  A    between atoms: C_5  and  C_6 
REMARK    4  A    between atoms: C_6  and  O_7 
REMARK    5  A    between atoms: O_7  and  C_8 
REMARK    6  A    between atoms: N_11  and  C_12 
REMARK    7  A    between atoms: C_12  and  C_13 
ROOT
HETATM    1  C   UNK N   1      24.451  17.535   5.052  0.00  0.00     0.170 A 
HETATM    2  N   UNK N   1      25.298  16.761   5.761  0.00  0.00    -0.276 N 
ATOM      3  HN  UNK N   1      25.032  15.942   6.310  1.00  0.00     0.189 HD
HETATM    4  N   UNK N   1      26.534  17.235   5.632  0.00  0.00    -0.285 N 
HETATM    5  C   UNK N   1      26.478  18.325   4.814  0.00  0.00     0.065 A 
HETATM    6  C   UNK N   1      27.488  19.168   4.352  0.00  0.00     0.032 A 
HETATM    7  C   UNK N   1      27.149  20.234   3.503  0.00  0.00     0.002 A 
HETATM    8  C   UNK N   1      25.807  20.449   3.134  0.00  0.00     0.001 A 
HETATM    9  C   UNK N   1      24.802  19.593   3.609  0.00  0.00     0.018 A 
HETATM   10  C   UNK N   1      25.176  18.538   4.443  0.00  0.00     0.044 A 
ENDROOT
BRANCH   1  11
HETATM   11  O   UNK N   1      23.115  17.307   5.000  0.00  0.00    -0.334 OA
BRANCH  11  12
HETATM   12  C   UNK N   1      22.480  16.670   3.957  0.00  0.00     0.179 C 
BRANCH  12  13
HETATM   13  C   UNK N   1      21.458  17.574   3.287  0.00  0.00     0.057 C 
BRANCH  13  14
HETATM   14  C   UNK N   1      21.240  18.782   4.189  0.00  0.00     0.273 C 
BRANCH  14  15
HETATM   15  N   UNK N   1      20.430  19.806   3.545  0.00  0.00     0.080 N 
HETATM   16  C   UNK N   1      19.496  19.103   2.684  0.00  0.00     0.309 C 
HETATM   17  C   UNK N   1      21.271  20.606   2.668  0.00  0.00     0.309 C 
ENDBRANCH  14  15
ENDBRANCH  13  14
ENDBRANCH  12  13
ENDBRANCH  11  12
ENDBRANCH   1  11
BRANCH   4  18
HETATM   18  C   UNK N   1      27.625  16.547   6.354  0.00  0.00     0.187 C 
BRANCH  18  19
HETATM   19  C   UNK N   1      28.532  17.196   7.377  0.00  0.00    -0.038 A 
HETATM   20  C   UNK N   1      29.912  17.081   7.159  0.00  0.00     0.009 A 
HETATM   21  C   UNK N   1      30.827  17.647   8.053  0.00  0.00     0.001 A 
HETATM   22  C   UNK N   1      30.369  18.342   9.173  0.00  0.00     0.000 A 
HETATM   23  C   UNK N   1      28.997  18.470   9.395  0.00  0.00     0.001 A 
HETATM   24  C   UNK N   1      28.091  17.900   8.499  0.00  0.00     0.009 A 
ENDBRANCH  18  19
ENDBRANCH   4  18
TORSDOF 7
ENDMDL
MODEL 4
REMARK VINA RESULT:      -6.2      2.003      8.228
REMARK  7 active torsions:
REMARK  status: ('A' for Active; 'I' for Inactive)
REMARK    1  A    between atoms: N_2  and  C_4 
REMARK    2  A    between atoms: C_4  and  C_5 
REMARK    3  A    between atoms: C_5  and  C_6 
REMARK    4  A    between atoms: C_6  and  O_7 
REMARK    5  A    between atoms: O_7  and  C_8 
REMARK    6  A    between atoms: N_11  and  C_12 
REMARK    7  A    between atoms: C_12  and  C_13 
ROOT
HETATM    1  C   UNK N   1      31.062  17.155   8.172  0.00  0.00     0.170 A 
HETATM    2  N   UNK N   1      32.137  17.184   8.986  0.00  0.00    -0.276 N 
ATOM      3  HN  UNK N   1      32.111  17.126  10.005  1.00  0.00     0.189 HD
HETATM    4  N   UNK N   1      33.239  17.302   8.249  0.00  0.00    -0.285 N 
HETATM    5  C   UNK N   1      32.861  17.336   6.939  0.00  0.00     0.065 A 
HETATM    6  C   UNK N   1      33.622  17.433   5.775  0.00  0.00     0.032 A 
HETATM    7  C   UNK N   1      32.967  17.444   4.533  0.00  0.00     0.002 A 
HETATM    8  C   UNK N   1      31.563  17.367   4.470  0.00  0.00     0.001 A 
HETATM    9  C   UNK N   1      30.811  17.271   5.650  0.00  0.00     0.018 A 
HETATM   10  C   UNK N   1      31.494  17.253   6.866  0.00  0.00     0.044 A 
ENDROOT
BRANCH   1  11
HETATM   11  O   UNK N   1      29.792  17.054   8.637  0.00  0.00    -0.334 OA
BRANCH  11  12
HETATM   12  C   UNK N   1      28.933  18.122   8.778  0.00  0.00     0.179 C 
BRANCH  12  13
HETATM   13  C   UNK N   1      27.939  18.197   7.631  0.00  0.00     0.057 C 
BRANCH  13  14
HETATM   14  C   UNK N   1      27.866  19.647   7.168  0.00  0.00     0.273 C 
BRANCH  14  15
HETATM   15  N   UNK N   1      27.080  19.793   5.951  0.00  0.00     0.080 N 
HETATM   16  C   UNK N   1      28.016  19.675   4.847  0.00  0.00     0.309 C 
HETATM   17  C   UNK N   1      26.540  21.143   5.886  0.00  0.00     0.309 C 
ENDBRANCH  14  15
ENDBRANCH  13  14
ENDBRANCH  12  13
ENDBRANCH  11  12
ENDBRANCH   1  11
BRANCH   4  18
HETATM   18  C   UNK N   1      34.540  17.380   8.945  0.00  0.00     0.187 C 
BRANCH  18  19
HETATM   19  C   UNK N   1      35.134  16.282   9.800  0.00  0.00    -0.038 A 
HETATM   20  C   UNK N   1      35.468  15.087   9.149  0.00  0.00     0.009 A 
HETATM   21  C   UNK N   1      36.020  14.016   9.859  0.00  0.00     0.001 A 
HETATM   22  C   UNK N   1      36.250  14.132  11.231  0.00  0.00     0.000 A 
HETATM   23  C   UNK N   1      35.930  15.321  11.887  0.00  0.00     0.001 A 
HETATM   24  C   UNK N   1      35.377  16.385  11.171  0.00  0.00     0.009 A 
ENDBRANCH  18  19
ENDBRANCH   4  18
TORSDOF 7
ENDMDL
MODEL 5
REMARK VINA RESULT:      -6.1     11.975     15.488
REMARK  7 active torsions:
REMARK  status: ('A' for Active; 'I' for Inactive)
REMARK    1  A    between atoms: N_2  and  C_4 
REMARK    2  A    between atoms: C_4  and  C_5 
REMARK    3  A    between atoms: C_5  and  C_6 
REMARK    4  A    between atoms: C_6  and  O_7 
REMARK    5  A    between atoms: O_7  and  C_8 
REMARK    6  A    between atoms: N_11  and  C_12 
REMARK    7  A    between atoms: C_12  and  C_13 
ROOT
HETATM    1  C   UNK N   1      25.790  24.574  -5.883  0.00  0.00     0.170 A 
HETATM    2  N   UNK N   1      26.582  23.805  -5.108  0.00  0.00    -0.276 N 
ATOM      3  HN  UNK N   1      26.857  22.844  -5.312  1.00  0.00     0.189 HD
HETATM    4  N   UNK N   1      26.945  24.500  -4.032  0.00  0.00    -0.285 N 
HETATM    5  C   UNK N   1      26.385  25.740  -4.129  0.00  0.00     0.065 A 
HETATM    6  C   UNK N   1      26.465  26.842  -3.281  0.00  0.00     0.032 A 
HETATM    7  C   UNK N   1      25.780  28.019  -3.627  0.00  0.00     0.002 A 
HETATM    8  C   UNK N   1      25.018  28.075  -4.809  0.00  0.00     0.001 A 
HETATM    9  C   UNK N   1      24.946  26.956  -5.652  0.00  0.00     0.018 A 
HETATM   10  C   UNK N   1      25.646  25.807  -5.283  0.00  0.00     0.044 A 
ENDROOT
BRANCH   1  11
HETATM   11  O   UNK N   1      25.251  24.133  -7.048  0.00  0.00    -0.334 OA
BRANCH  11  12
HETATM   12  C   UNK N   1      25.718  24.484  -8.296  0.00  0.00     0.179 C 
BRANCH  12  13
HETATM   13  C   UNK N   1      25.837  23.275  -9.209  0.00  0.00     0.057 C 
BRANCH  13  14
HETATM   14  C   UNK N   1      27.158  22.582  -8.898  0.00  0.00     0.273 C 
BRANCH  14  15
HETATM   15  N   UNK N   1      26.988  21.473  -7.970  0.00  0.00     0.080 N 
HETATM   16  C   UNK N   1      28.082  20.555  -8.232  0.00  0.00     0.309 C 
HETATM   17  C   UNK N   1      25.766  20.754  -8.296  0.00  0.00     0.309 C 
ENDBRANCH  14  15
ENDBRANCH  13  14
ENDBRANCH  12  13
ENDBRANCH  11  12
ENDBRANCH   1  11
BRANCH   4  18
HETATM   18  C   UNK N   1      27.800  23.834  -3.027  0.00  0.00     0.187 C 
BRANCH  18  19
HETATM   19  C   UNK N   1      29.248  23.450  -3.238  0.00  0.00    -0.038 A 
HETATM   20  C   UNK N   1      30.039  24.347  -3.969  0.00  0.00     0.009 A 
HETATM   21  C   UNK N   1      31.388  24.074  -4.215  0.00  0.00     0.001 A 
HETATM   22  C   UNK N   1      31.963  22.900  -3.727  0.00  0.00     0.000 A 
HETATM   23  C   UNK N   1      31.188  22.004  -2.991  0.00  0.00     0.001 A 
HETATM   24  C   UNK N   1      29.841  22.284  -2.750  0.00  0.00     0.009 A 
ENDBRANCH  18  19
ENDBRANCH   4  18
TORSDOF 7
ENDMDL
MODEL 6
REMARK VINA RESULT:      -6.0      3.292      6.144
REMARK  7 active torsions:
REMARK  status: ('A' for Active; 'I' for Inactive)
REMARK    1  A    between atoms: N_2  and  C_4 
REMARK    2  A    between atoms: C_4  and  C_5 
REMARK    3  A    between atoms: C_5  and  C_6 
REMARK    4  A    between atoms: C_6  and  O_7 
REMARK    5  A    between atoms: O_7  and  C_8 
REMARK    6  A    between atoms: N_11  and  C_12 
REMARK    7  A    between atoms: C_12  and  C_13 
ROOT
HETATM    1  C   UNK N   1      35.081  15.991   9.934  0.00  0.00     0.170 A 
HETATM    2  N   UNK N   1      34.212  17.022   9.885  0.00  0.00    -0.276 N 
ATOM      3  HN  UNK N   1      33.924  17.591  10.682  1.00  0.00     0.189 HD
HETATM    4  N   UNK N   1      33.790  17.178   8.633  0.00  0.00    -0.285 N 
HETATM    5  C   UNK N   1      34.410  16.236   7.865  0.00  0.00     0.065 A 
HETATM    6  C   UNK N   1      34.329  15.982   6.497  0.00  0.00     0.032 A 
HETATM    7  C   UNK N   1      35.090  14.934   5.953  0.00  0.00     0.002 A 
HETATM    8  C   UNK N   1      35.915  14.151   6.784  0.00  0.00     0.001 A 
HETATM    9  C   UNK N   1      35.984  14.419   8.158  0.00  0.00     0.018 A 
HETATM   10  C   UNK N   1      35.222  15.473   8.663  0.00  0.00     0.044 A 
ENDROOT
BRANCH   1  11
HETATM   11  O   UNK N   1      35.674  15.584  11.083  0.00  0.00    -0.334 OA
BRANCH  11  12
HETATM   12  C   UNK N   1      35.210  14.548  11.866  0.00  0.00     0.179 C 
BRANCH  12  13
HETATM   13  C   UNK N   1      36.042  14.384  13.128  0.00  0.00     0.057 C 
BRANCH  13  14
HETATM   14  C   UNK N   1      35.435  13.249  13.943  0.00  0.00     0.273 C 
BRANCH  14  15
HETATM   15  N   UNK N   1      35.793  13.335  15.352  0.00  0.00     0.080 N 
HETATM   16  C   UNK N   1      36.933  14.232  15.426  0.00  0.00     0.309 C 
HETATM   17  C   UNK N   1      36.265  12.038  15.809  0.00  0.00     0.309 C 
ENDBRANCH  14  15
ENDBRANCH  13  14
ENDBRANCH  12  13
ENDBRANCH  11  12
ENDBRANCH   1  11
BRANCH   4  18
HETATM   18  C   UNK N   1      32.803  18.242   8.356  0.00  0.00     0.187 C 
BRANCH  18  19
HETATM   19  C   UNK N   1      31.304  18.043   8.301  0.00  0.00    -0.038 A 
HETATM   20  C   UNK N   1      30.817  17.197   7.295  0.00  0.00     0.009 A 
HETATM   21  C   UNK N   1      29.446  16.955   7.166  0.00  0.00     0.001 A 
HETATM   22  C   UNK N   1      28.545  17.554   8.048  0.00  0.00     0.000 A 
HETATM   23  C   UNK N   1      29.020  18.391   9.058  0.00  0.00     0.001 A 
HETATM   24  C   UNK N   1      30.391  18.628   9.179  0.00  0.00     0.009 A 
ENDBRANCH  18  19
ENDBRANCH   4  18
TORSDOF 7
ENDMDL
MODEL 7
REMARK VINA RESULT:      -6.0     12.093     16.453
REMARK  7 active torsions:
REMARK  status: ('A' for Active; 'I' for Inactive)
REMARK    1  A    between atoms: N_2  and  C_4 
REMARK    2  A    between atoms: C_4  and  C_5 
REMARK    3  A    between atoms: C_5  and  C_6 
REMARK    4  A    between atoms: C_6  and  O_7 
REMARK    5  A    between atoms: O_7  and  C_8 
REMARK    6  A    between atoms: N_11  and  C_12 
REMARK    7  A    between atoms: C_12  and  C_13 
ROOT
HETATM    1  C   UNK N   1      25.844  24.477  -5.916  0.00  0.00     0.170 A 
HETATM    2  N   UNK N   1      26.659  23.734  -5.138  0.00  0.00    -0.276 N 
ATOM      3  HN  UNK N   1      26.965  22.782  -5.342  1.00  0.00     0.189 HD
HETATM    4  N   UNK N   1      26.997  24.440  -4.062  0.00  0.00    -0.285 N 
HETATM    5  C   UNK N   1      26.397  25.661  -4.160  0.00  0.00     0.065 A 
HETATM    6  C   UNK N   1      26.441  26.765  -3.311  0.00  0.00     0.032 A 
HETATM    7  C   UNK N   1      25.719  27.920  -3.658  0.00  0.00     0.002 A 
HETATM    8  C   UNK N   1      24.959  27.951  -4.843  0.00  0.00     0.001 A 
HETATM    9  C   UNK N   1      24.924  26.831  -5.686  0.00  0.00     0.018 A 
HETATM   10  C   UNK N   1      25.661  25.705  -5.315  0.00  0.00     0.044 A 
ENDROOT
BRANCH   1  11
HETATM   11  O   UNK N   1      25.323  24.020  -7.081  0.00  0.00    -0.334 OA
BRANCH  11  12
HETATM   12  C   UNK N   1      26.078  23.660  -8.176  0.00  0.00     0.179 C 
BRANCH  12  13
HETATM   13  C   UNK N   1      26.805  24.854  -8.773  0.00  0.00     0.057 C 
BRANCH  13  14
HETATM   14  C   UNK N   1      25.755  25.833  -9.282  0.00  0.00     0.273 C 
BRANCH  14  15
HETATM   15  N   UNK N   1      25.603  25.769 -10.729  0.00  0.00     0.080 N 
HETATM   16  C   UNK N   1      26.636  26.627 -11.283  0.00  0.00     0.309 C 
HETATM   17  C   UNK N   1      24.332  26.365 -11.108  0.00  0.00     0.309 C 
ENDBRANCH  14  15
ENDBRANCH  13  14
ENDBRANCH  12  13
ENDBRANCH  11  12
ENDBRANCH   1  11
BRANCH   4  18
HETATM   18  C   UNK N   1      27.870  23.802  -3.054  0.00  0.00     0.187 C 
BRANCH  18  19
HETATM   19  C   UNK N   1      29.314  23.411  -3.281  0.00  0.00    -0.038 A 
HETATM   20  C   UNK N   1      30.117  24.334  -3.964  0.00  0.00     0.009 A 
HETATM   21  C   UNK N   1      31.464  24.058  -4.221  0.00  0.00     0.001 A 
HETATM   22  C   UNK N   1      32.024  22.854  -3.790  0.00  0.00     0.000 A 
HETATM   23  C   UNK N   1      31.236  21.932  -3.101  0.00  0.00     0.001 A 
HETATM   24  C   UNK N   1      29.892  22.215  -2.850  0.00  0.00     0.009 A 
ENDBRANCH  18  19
ENDBRANCH   4  18
TORSDOF 7
ENDMDL
MODEL 8
REMARK VINA RESULT:      -5.9      4.415     10.865
REMARK  7 active torsions:
REMARK  status: ('A' for Active; 'I' for Inactive)
REMARK    1  A    between atoms: N_2  and  C_4 
REMARK    2  A    between atoms: C_4  and  C_5 
REMARK    3  A    between atoms: C_5  and  C_6 
REMARK    4  A    between atoms: C_6  and  O_7 
REMARK    5  A    between atoms: O_7  and  C_8 
REMARK    6  A    between atoms: N_11  and  C_12 
REMARK    7  A    between atoms: C_12  and  C_13 
ROOT
HETATM    1  C   UNK N   1      36.411  15.412  11.060  0.00  0.00     0.170 A 
HETATM    2  N   UNK N   1      36.145  15.290  12.377  0.00  0.00    -0.276 N 
ATOM      3  HN  UNK N   1      35.727  16.012  12.965  1.00  0.00     0.189 HD
HETATM    4  N   UNK N   1      36.516  14.080  12.786  0.00  0.00    -0.285 N 
HETATM    5  C   UNK N   1      37.017  13.411  11.708  0.00  0.00     0.065 A 
HETATM    6  C   UNK N   1      37.521  12.117  11.594  0.00  0.00     0.032 A 
HETATM    7  C   UNK N   1      37.977  11.671  10.343  0.00  0.00     0.002 A 
HETATM    8  C   UNK N   1      37.930  12.526   9.225  0.00  0.00     0.001 A 
HETATM    9  C   UNK N   1      37.421  13.826   9.356  0.00  0.00     0.018 A 
HETATM   10  C   UNK N   1      36.968  14.233  10.611  0.00  0.00     0.044 A 
ENDROOT
BRANCH   1  11
HETATM   11  O   UNK N   1      36.154  16.545  10.360  0.00  0.00    -0.334 OA
BRANCH  11  12
HETATM   12  C   UNK N   1      34.900  16.915   9.925  0.00  0.00     0.179 C 
BRANCH  12  13
HETATM   13  C   UNK N   1      34.577  16.313   8.567  0.00  0.00     0.057 C 
BRANCH  13  14
HETATM   14  C   UNK N   1      33.915  17.393   7.722  0.00  0.00     0.273 C 
BRANCH  14  15
HETATM   15  N   UNK N   1      32.557  17.033   7.340  0.00  0.00     0.080 N 
HETATM   16  C   UNK N   1      31.680  17.686   8.296  0.00  0.00     0.309 C 
HETATM   17  C   UNK N   1      32.368  15.602   7.524  0.00  0.00     0.309 C 
ENDBRANCH  14  15
ENDBRANCH  13  14
ENDBRANCH  12  13
ENDBRANCH  11  12
ENDBRANCH   1  11
BRANCH   4  18
HETATM   18  C   UNK N   1      36.337  13.740  14.213  0.00  0.00     0.187 C 
BRANCH  18  19
HETATM   19  C   UNK N   1      35.607  12.519  14.729  0.00  0.00    -0.038 A 
HETATM   20  C   UNK N   1      36.061  11.978  15.940  0.00  0.00     0.009 A 
HETATM   21  C   UNK N   1      35.449  10.849  16.493  0.00  0.00     0.001 A 
HETATM   22  C   UNK N   1      34.370  10.251  15.842  0.00  0.00     0.000 A 
HETATM   23  C   UNK N   1      33.904  10.786  14.641  0.00  0.00     0.001 A 
HETATM   24  C   UNK N   1      34.522  11.913  14.095  0.00  0.00     0.009 A 
ENDBRANCH  18  19
ENDBRANCH   4  18
TORSDOF 7
ENDMDL
MODEL 9
REMARK VINA RESULT:      -5.9     11.185     14.135
REMARK  7 active torsions:
REMARK  status: ('A' for Active; 'I' for Inactive)
REMARK    1  A    between atoms: N_2  and  C_4 
REMARK    2  A    between atoms: C_4  and  C_5 
REMARK    3  A    between atoms: C_5  and  C_6 
REMARK    4  A    between atoms: C_6  and  O_7 
REMARK    5  A    between atoms: O_7  and  C_8 
REMARK    6  A    between atoms: N_11  and  C_12 
REMARK    7  A    between atoms: C_12  and  C_13 
ROOT
HETATM    1  C   UNK N   1      26.639  24.664  -3.524  0.00  0.00     0.170 A 
HETATM    2  N   UNK N   1      26.374  23.969  -4.648  0.00  0.00    -0.276 N 
ATOM      3  HN  UNK N   1      26.487  22.960  -4.761  1.00  0.00     0.189 HD
HETATM    4  N   UNK N   1      25.942  24.806  -5.588  0.00  0.00    -0.285 N 
HETATM    5  C   UNK N   1      25.920  26.059  -5.049  0.00  0.00     0.065 A 
HETATM    6  C   UNK N   1      25.536  27.279  -5.602  0.00  0.00     0.032 A 
HETATM    7  C   UNK N   1      25.610  28.438  -4.811  0.00  0.00     0.002 A 
HETATM    8  C   UNK N   1      26.073  28.363  -3.484  0.00  0.00     0.001 A 
HETATM    9  C   UNK N   1      26.457  27.128  -2.943  0.00  0.00     0.018 A 
HETATM   10  C   UNK N   1      26.361  25.996  -3.753  0.00  0.00     0.044 A 
ENDROOT
BRANCH   1  11
HETATM   11  O   UNK N   1      27.109  24.081  -2.393  0.00  0.00    -0.334 OA
BRANCH  11  12
HETATM   12  C   UNK N   1      28.095  23.120  -2.372  0.00  0.00     0.179 C 
BRANCH  12  13
HETATM   13  C   UNK N   1      29.396  23.638  -2.964  0.00  0.00     0.057 C 
BRANCH  13  14
HETATM   14  C   UNK N   1      30.545  22.927  -2.261  0.00  0.00     0.273 C 
BRANCH  14  15
HETATM   15  N   UNK N   1      31.489  22.347  -3.206  0.00  0.00     0.080 N 
HETATM   16  C   UNK N   1      31.613  23.300  -4.293  0.00  0.00     0.309 C 
HETATM   17  C   UNK N   1      30.913  21.142  -3.783  0.00  0.00     0.309 C 
ENDBRANCH  14  15
ENDBRANCH  13  14
ENDBRANCH  12  13
ENDBRANCH  11  12
ENDBRANCH   1  11
BRANCH   4  18
HETATM   18  C   UNK N   1      25.617  24.255  -6.920  0.00  0.00     0.187 C 
BRANCH  18  19
HETATM   19  C   UNK N   1      26.088  22.916  -7.443  0.00  0.00    -0.038 A 
HETATM   20  C   UNK N   1      27.473  22.728  -7.538  0.00  0.00     0.009 A 
HETATM   21  C   UNK N   1      28.001  21.523  -8.012  0.00  0.00     0.001 A 
HETATM   22  C   UNK N   1      27.145  20.488  -8.393  0.00  0.00     0.000 A 
HETATM   23  C   UNK N   1      25.764  20.661  -8.294  0.00  0.00     0.001 A 
HETATM   24  C   UNK N   1      25.246  21.868  -7.820  0.00  0.00     0.009 A 
ENDBRANCH  18  19
ENDBRANCH   4  18
TORSDOF 7
ENDMDL
