MODEL 1
REMARK VINA RESULT:      -6.1      0.000      0.000
REMARK  18 active torsions:
REMARK  status: ('A' for Active; 'I' for Inactive)
REMARK    1  A    between atoms: C_9  and  C_1 
REMARK       I    between atoms: C_1  and  N_2 
REMARK    2  A    between atoms: N_2  and  C_4 
REMARK    3  A    between atoms: C_4  and  C_5 
REMARK    4  A    between atoms: C_5  and  O_8 
REMARK    5  A    between atoms: C_5  and  C_6 
REMARK    6  A    between atoms: C_6  and  O_7 
REMARK    7  A    between atoms: C_11  and  N_26 
REMARK    8  A    between atoms: C_13  and  C_18 
REMARK       I    between atoms: C_18  and  N_19 
REMARK    9  A    between atoms: N_19  and  C_20 
REMARK   10  A    between atoms: C_20  and  C_21 
REMARK   11  A    between atoms: C_21  and  O_25 
REMARK   12  A    between atoms: C_21  and  C_22 
REMARK   13  A    between atoms: C_22  and  O_23 
REMARK   14  A    between atoms: N_26  and  C_27 
REMARK       I    between atoms: N_26  and  C_29 
REMARK   15  A    between atoms: C_27  and  C_28 
REMARK   16  A    between atoms: C_28  and  O_32 
REMARK   17  A    between atoms: C_29  and  C_31 
REMARK   18  A    between atoms: C_31  and  O_33 
ROOT
HETATM    1  C   UNK N   1      24.517  14.843   5.711  0.00  0.00     0.068 C 
HETATM    2  C   UNK N   1      25.848  15.288   5.550  0.00  0.00     0.051 C 
HETATM    3  C   UNK N   1      26.173  16.696   5.448  0.00  0.00     0.072 C 
HETATM    4  C   UNK N   1      25.046  17.580   5.184  0.00  0.00     0.051 C 
HETATM    5  C   UNK N   1      23.698  17.124   5.389  0.00  0.00     0.068 C 
HETATM    6  C   UNK N   1      23.456  15.760   5.703  0.00  0.00     0.040 C 
HETATM    7  I   UNK N   1      25.194  19.464   4.060  0.00  0.00    -0.041 I 
HETATM    8  I   UNK N   1      21.479  14.994   6.182  0.00  0.00    -0.042 I 
HETATM    9  I   UNK N   1      27.286  13.720   5.063  0.00  0.00    -0.041 I 
ENDROOT
BRANCH   1  10
HETATM   10  C   UNK N   1      24.212  13.378   5.867  0.00  0.00     0.254 C 
HETATM   11  N   UNK N   1      24.293  12.729   7.062  0.00  0.00    -0.354 N 
HETATM   12  H   UNK N   1      24.143  11.757   7.070  0.00  0.00     0.162 HD
HETATM   13  O   UNK N   1      23.821  12.751   4.894  0.00  0.00    -0.268 OA
BRANCH  11  14
HETATM   14  C   UNK N   1      24.586  13.381   8.317  0.00  0.00     0.156 C 
BRANCH  14  15
HETATM   15  C   UNK N   1      23.798  12.726   9.437  0.00  0.00     0.159 C 
BRANCH  15  16
HETATM   16  O   UNK N   1      22.961  13.645  10.071  0.00  0.00    -0.392 OA
HETATM   17  H   UNK N   1      22.353  13.349  10.766  0.00  0.00     0.210 HD
ENDBRANCH  15  16
BRANCH  15  18
HETATM   18  C   UNK N   1      24.735  12.073  10.430  0.00  0.00     0.197 C 
BRANCH  18  19
HETATM   19  O   UNK N   1      25.368  13.057  11.188  0.00  0.00    -0.398 OA
HETATM   20  H   UNK N   1      25.367  14.007  10.991  0.00  0.00     0.209 HD
ENDBRANCH  18  19
ENDBRANCH  15  18
ENDBRANCH  14  15
ENDBRANCH  11  14
ENDBRANCH   1  10
BRANCH   5  21
HETATM   21  C   UNK N   1      22.542  18.097   5.291  0.00  0.00     0.254 C 
HETATM   22  N   UNK N   1      21.953  18.362   4.104  0.00  0.00    -0.354 N 
HETATM   23  H   UNK N   1      22.306  17.924   3.295  0.00  0.00     0.162 HD
HETATM   24  O   UNK N   1      22.102  18.633   6.298  0.00  0.00    -0.268 OA
BRANCH  22  25
HETATM   25  C   UNK N   1      20.835  19.257   3.973  0.00  0.00     0.156 C 
BRANCH  25  26
HETATM   26  C   UNK N   1      20.454  19.343   2.508  0.00  0.00     0.159 C 
BRANCH  26  27
HETATM   27  O   UNK N   1      19.075  19.185   2.357  0.00  0.00    -0.392 OA
HETATM   28  H   UNK N   1      18.247  19.325   2.841  0.00  0.00     0.210 HD
ENDBRANCH  26  27
BRANCH  26  29
HETATM   29  C   UNK N   1      20.912  20.660   1.903  0.00  0.00     0.197 C 
BRANCH  29  30
HETATM   30  O   UNK N   1      21.730  21.356   2.797  0.00  0.00    -0.398 OA
HETATM   31  H   UNK N   1      21.763  22.313   2.950  0.00  0.00     0.209 HD
ENDBRANCH  29  30
ENDBRANCH  26  29
ENDBRANCH  25  26
ENDBRANCH  22  25
ENDBRANCH   5  21
BRANCH   3  32
HETATM   32  N   UNK N   1      27.594  17.127   5.619  0.00  0.00    -0.312 N 
HETATM   33  C   UNK N   1      28.539  17.257   4.610  0.00  0.00     0.247 C 
HETATM   34  O   UNK N   1      28.254  17.140   3.449  0.00  0.00    -0.271 OA
BRANCH  32  35
HETATM   35  C   UNK N   1      27.896  17.933   6.795  0.00  0.00     0.158 C 
BRANCH  35  36
HETATM   36  C   UNK N   1      27.898  17.225   8.137  0.00  0.00     0.184 C 
BRANCH  36  37
HETATM   37  O   UNK N   1      27.474  18.139   9.103  0.00  0.00    -0.399 OA
HETATM   38  H   UNK N   1      27.811  19.039   9.238  0.00  0.00     0.209 HD
ENDBRANCH  36  37
ENDBRANCH  35  36
ENDBRANCH  32  35
BRANCH  33  39
HETATM   39  C   UNK N   1      29.947  17.719   4.890  0.00  0.00     0.267 C 
BRANCH  39  40
HETATM   40  O   UNK N   1      30.738  17.543   3.753  0.00  0.00    -0.392 OA
HETATM   41  H   UNK N   1      31.280  17.008   3.151  0.00  0.00     0.210 HD
ENDBRANCH  39  40
ENDBRANCH  33  39
ENDBRANCH   3  32
TORSDOF 18
ENDMDL
MODEL 2
REMARK VINA RESULT:      -6.1      2.590      7.069
REMARK  18 active torsions:
REMARK  status: ('A' for Active; 'I' for Inactive)
REMARK    1  A    between atoms: C_9  and  C_1 
REMARK       I    between atoms: C_1  and  N_2 
REMARK    2  A    between atoms: N_2  and  C_4 
REMARK    3  A    between atoms: C_4  and  C_5 
REMARK    4  A    between atoms: C_5  and  O_8 
REMARK    5  A    between atoms: C_5  and  C_6 
REMARK    6  A    between atoms: C_6  and  O_7 
REMARK    7  A    between atoms: C_11  and  N_26 
REMARK    8  A    between atoms: C_13  and  C_18 
REMARK       I    between atoms: C_18  and  N_19 
REMARK    9  A    between atoms: N_19  and  C_20 
REMARK   10  A    between atoms: C_20  and  C_21 
REMARK   11  A    between atoms: C_21  and  O_25 
REMARK   12  A    between atoms: C_21  and  C_22 
REMARK   13  A    between atoms: C_22  and  O_23 
REMARK   14  A    between atoms: N_26  and  C_27 
REMARK       I    between atoms: N_26  and  C_29 
REMARK   15  A    between atoms: C_27  and  C_28 
REMARK   16  A    between atoms: C_28  and  O_32 
REMARK   17  A    between atoms: C_29  and  C_31 
REMARK   18  A    between atoms: C_31  and  O_33 
ROOT
HETATM    1  C   UNK N   1      22.316  15.135   6.555  0.00  0.00     0.068 C 
HETATM    2  C   UNK N   1      21.521  15.974   5.744  0.00  0.00     0.051 C 
HETATM    3  C   UNK N   1      22.104  16.835   4.737  0.00  0.00     0.072 C 
HETATM    4  C   UNK N   1      23.544  17.032   4.842  0.00  0.00     0.051 C 
HETATM    5  C   UNK N   1      24.345  16.147   5.642  0.00  0.00     0.068 C 
HETATM    6  C   UNK N   1      23.715  15.168   6.455  0.00  0.00     0.040 C 
HETATM    7  I   UNK N   1      24.586  18.867   4.219  0.00  0.00    -0.041 I 
HETATM    8  I   UNK N   1      24.826  13.680   7.585  0.00  0.00    -0.042 I 
HETATM    9  I   UNK N   1      19.446  16.176   6.391  0.00  0.00    -0.041 I 
ENDROOT
BRANCH   1  10
HETATM   10  C   UNK N   1      21.680  14.211   7.558  0.00  0.00     0.254 C 
HETATM   11  N   UNK N   1      21.186  12.986   7.226  0.00  0.00    -0.354 N 
HETATM   12  H   UNK N   1      20.725  12.469   7.926  0.00  0.00     0.162 HD
HETATM   13  O   UNK N   1      21.653  14.546   8.734  0.00  0.00    -0.268 OA
BRANCH  11  14
HETATM   14  C   UNK N   1      21.296  12.400   5.911  0.00  0.00     0.156 C 
BRANCH  14  15
HETATM   15  C   UNK N   1      19.936  11.911   5.446  0.00  0.00     0.159 C 
BRANCH  15  16
HETATM   16  O   UNK N   1      19.974  10.557   5.108  0.00  0.00    -0.392 OA
HETATM   17  H   UNK N   1      20.670   9.986   5.470  0.00  0.00     0.210 HD
ENDBRANCH  15  16
BRANCH  15  18
HETATM   18  C   UNK N   1      19.443  12.745   4.283  0.00  0.00     0.197 C 
BRANCH  18  19
HETATM   19  O   UNK N   1      18.058  12.876   4.360  0.00  0.00    -0.398 OA
HETATM   20  H   UNK N   1      17.412  12.277   3.954  0.00  0.00     0.209 HD
ENDBRANCH  18  19
ENDBRANCH  15  18
ENDBRANCH  14  15
ENDBRANCH  11  14
ENDBRANCH   1  10
BRANCH   5  21
HETATM   21  C   UNK N   1      25.856  16.242   5.603  0.00  0.00     0.254 C 
HETATM   22  N   UNK N   1      26.537  16.906   6.562  0.00  0.00    -0.354 N 
HETATM   23  H   UNK N   1      26.029  17.347   7.281  0.00  0.00     0.162 HD
HETATM   24  O   UNK N   1      26.485  15.686   4.713  0.00  0.00    -0.268 OA
BRANCH  22  25
HETATM   25  C   UNK N   1      27.973  16.995   6.577  0.00  0.00     0.156 C 
BRANCH  25  26
HETATM   26  C   UNK N   1      28.369  18.304   7.233  0.00  0.00     0.159 C 
BRANCH  26  27
HETATM   27  O   UNK N   1      27.391  19.273   7.006  0.00  0.00    -0.392 OA
HETATM   28  H   UNK N   1      26.430  19.360   6.907  0.00  0.00     0.210 HD
ENDBRANCH  26  27
BRANCH  26  29
HETATM   29  C   UNK N   1      28.602  18.116   8.723  0.00  0.00     0.197 C 
BRANCH  29  30
HETATM   30  O   UNK N   1      27.390  18.109   9.416  0.00  0.00    -0.398 OA
HETATM   31  H   UNK N   1      27.180  18.553  10.252  0.00  0.00     0.209 HD
ENDBRANCH  29  30
ENDBRANCH  26  29
ENDBRANCH  25  26
ENDBRANCH  22  25
ENDBRANCH   5  21
BRANCH   3  32
HETATM   32  N   UNK N   1      21.219  17.437   3.694  0.00  0.00    -0.312 N 
HETATM   33  C   UNK N   1      20.654  18.704   3.729  0.00  0.00     0.247 C 
HETATM   34  O   UNK N   1      20.933  19.504   4.581  0.00  0.00    -0.271 OA
BRANCH  32  35
HETATM   35  C   UNK N   1      21.339  16.899   2.344  0.00  0.00     0.158 C 
BRANCH  35  36
HETATM   36  C   UNK N   1      20.672  15.565   2.069  0.00  0.00     0.184 C 
BRANCH  36  37
HETATM   37  O   UNK N   1      19.332  15.671   2.447  0.00  0.00    -0.399 OA
HETATM   38  H   UNK N   1      18.811  16.487   2.511  0.00  0.00     0.209 HD
ENDBRANCH  36  37
ENDBRANCH  35  36
ENDBRANCH  32  35
BRANCH  33  39
HETATM   39  C   UNK N   1      19.786  19.223   2.610  0.00  0.00     0.267 C 
BRANCH  39  40
HETATM   40  O   UNK N   1      18.560  18.555   2.613  0.00  0.00    -0.392 OA
HETATM   41  H   UNK N   1      17.697  18.334   2.997  0.00  0.00     0.210 HD
ENDBRANCH  39  40
ENDBRANCH  33  39
ENDBRANCH   3  32
TORSDOF 18
ENDMDL
MODEL 3
REMARK VINA RESULT:      -5.9      2.865      7.695
REMARK  18 active torsions:
REMARK  status: ('A' for Active; 'I' for Inactive)
REMARK    1  A    between atoms: C_9  and  C_1 
REMARK       I    between atoms: C_1  and  N_2 
REMARK    2  A    between atoms: N_2  and  C_4 
REMARK    3  A    between atoms: C_4  and  C_5 
REMARK    4  A    between atoms: C_5  and  O_8 
REMARK    5  A    between atoms: C_5  and  C_6 
REMARK    6  A    between atoms: C_6  and  O_7 
REMARK    7  A    between atoms: C_11  and  N_26 
REMARK    8  A    between atoms: C_13  and  C_18 
REMARK       I    between atoms: C_18  and  N_19 
REMARK    9  A    between atoms: N_19  and  C_20 
REMARK   10  A    between atoms: C_20  and  C_21 
REMARK   11  A    between atoms: C_21  and  O_25 
REMARK   12  A    between atoms: C_21  and  C_22 
REMARK   13  A    between atoms: C_22  and  O_23 
REMARK   14  A    between atoms: N_26  and  C_27 
REMARK       I    between atoms: N_26  and  C_29 
REMARK   15  A    between atoms: C_27  and  C_28 
REMARK   16  A    between atoms: C_28  and  O_32 
REMARK   17  A    between atoms: C_29  and  C_31 
REMARK   18  A    between atoms: C_31  and  O_33 
ROOT
HETATM    1  C   UNK N   1      22.162  16.574   5.857  0.00  0.00     0.068 C 
HETATM    2  C   UNK N   1      23.241  16.252   5.004  0.00  0.00     0.051 C 
HETATM    3  C   UNK N   1      23.808  14.920   4.963  0.00  0.00     0.072 C 
HETATM    4  C   UNK N   1      23.435  14.048   6.069  0.00  0.00     0.051 C 
HETATM    5  C   UNK N   1      22.311  14.370   6.904  0.00  0.00     0.068 C 
HETATM    6  C   UNK N   1      21.653  15.619   6.749  0.00  0.00     0.040 C 
HETATM    7  I   UNK N   1      24.725  12.458   6.874  0.00  0.00    -0.041 I 
HETATM    8  I   UNK N   1      19.854  16.148   7.849  0.00  0.00    -0.042 I 
HETATM    9  I   UNK N   1      24.228  17.969   4.087  0.00  0.00    -0.041 I 
ENDROOT
BRANCH   1  10
HETATM   10  C   UNK N   1      21.557  17.951   5.842  0.00  0.00     0.254 C 
HETATM   11  N   UNK N   1      20.706  18.375   4.866  0.00  0.00    -0.354 N 
HETATM   12  H   UNK N   1      20.405  19.311   4.891  0.00  0.00     0.162 HD
HETATM   13  O   UNK N   1      21.793  18.708   6.772  0.00  0.00    -0.268 OA
BRANCH  11  14
HETATM   14  C   UNK N   1      20.218  17.533   3.799  0.00  0.00     0.156 C 
BRANCH  14  15
HETATM   15  C   UNK N   1      19.624  18.390   2.695  0.00  0.00     0.159 C 
BRANCH  15  16
HETATM   16  O   UNK N   1      19.161  17.604   1.638  0.00  0.00    -0.392 OA
HETATM   17  H   UNK N   1      18.467  17.941   1.050  0.00  0.00     0.210 HD
ENDBRANCH  15  16
BRANCH  15  18
HETATM   18  C   UNK N   1      20.637  19.404   2.210  0.00  0.00     0.197 C 
BRANCH  18  19
HETATM   19  O   UNK N   1      20.645  19.424   0.817  0.00  0.00    -0.398 OA
HETATM   20  H   UNK N   1      21.419  19.259   0.255  0.00  0.00     0.209 HD
ENDBRANCH  18  19
ENDBRANCH  15  18
ENDBRANCH  14  15
ENDBRANCH  11  14
ENDBRANCH   1  10
BRANCH   5  21
HETATM   21  C   UNK N   1      21.817  13.374   7.933  0.00  0.00     0.254 C 
HETATM   22  N   UNK N   1      22.241  13.427   9.214  0.00  0.00    -0.354 N 
HETATM   23  H   UNK N   1      22.898  14.117   9.464  0.00  0.00     0.162 HD
HETATM   24  O   UNK N   1      20.995  12.524   7.620  0.00  0.00    -0.268 OA
BRANCH  22  25
HETATM   25  C   UNK N   1      21.774  12.519  10.227  0.00  0.00     0.156 C 
BRANCH  25  26
HETATM   26  C   UNK N   1      22.819  12.438  11.323  0.00  0.00     0.159 C 
BRANCH  26  27
HETATM   27  O   UNK N   1      22.382  11.595  12.346  0.00  0.00    -0.392 OA
HETATM   28  H   UNK N   1      21.622  11.461  12.933  0.00  0.00     0.210 HD
ENDBRANCH  26  27
BRANCH  26  29
HETATM   29  C   UNK N   1      24.152  11.962  10.768  0.00  0.00     0.197 C 
BRANCH  29  30
HETATM   30  O   UNK N   1      25.084  13.001  10.762  0.00  0.00    -0.398 OA
HETATM   31  H   UNK N   1      26.026  12.953  10.534  0.00  0.00     0.209 HD
ENDBRANCH  29  30
ENDBRANCH  26  29
ENDBRANCH  25  26
ENDBRANCH  22  25
ENDBRANCH   5  21
BRANCH   3  32
HETATM   32  N   UNK N   1      24.702  14.547   3.824  0.00  0.00    -0.312 N 
HETATM   33  C   UNK N   1      26.086  14.647   3.801  0.00  0.00     0.247 C 
HETATM   34  O   UNK N   1      26.721  14.947   4.776  0.00  0.00    -0.271 OA
BRANCH  32  35
HETATM   35  C   UNK N   1      24.182  13.566   2.879  0.00  0.00     0.158 C 
BRANCH  35  36
HETATM   36  C   UNK N   1      23.262  14.079   1.787  0.00  0.00     0.184 C 
BRANCH  36  37
HETATM   37  O   UNK N   1      24.056  14.481   0.712  0.00  0.00    -0.399 OA
HETATM   38  H   UNK N   1      24.035  14.122  -0.190  0.00  0.00     0.209 HD
ENDBRANCH  36  37
ENDBRANCH  35  36
ENDBRANCH  32  35
BRANCH  33  39
HETATM   39  C   UNK N   1      26.898  14.223   2.603  0.00  0.00     0.267 C 
BRANCH  39  40
HETATM   40  O   UNK N   1      26.871  15.227   1.634  0.00  0.00    -0.392 OA
HETATM   41  H   UNK N   1      26.936  16.151   1.344  0.00  0.00     0.210 HD
ENDBRANCH  39  40
ENDBRANCH  33  39
ENDBRANCH   3  32
TORSDOF 18
ENDMDL
MODEL 4
REMARK VINA RESULT:      -5.8      2.518      7.962
REMARK  18 active torsions:
REMARK  status: ('A' for Active; 'I' for Inactive)
REMARK    1  A    between atoms: C_9  and  C_1 
REMARK       I    between atoms: C_1  and  N_2 
REMARK    2  A    between atoms: N_2  and  C_4 
REMARK    3  A    between atoms: C_4  and  C_5 
REMARK    4  A    between atoms: C_5  and  O_8 
REMARK    5  A    between atoms: C_5  and  C_6 
REMARK    6  A    between atoms: C_6  and  O_7 
REMARK    7  A    between atoms: C_11  and  N_26 
REMARK    8  A    between atoms: C_13  and  C_18 
REMARK       I    between atoms: C_18  and  N_19 
REMARK    9  A    between atoms: N_19  and  C_20 
REMARK   10  A    between atoms: C_20  and  C_21 
REMARK   11  A    between atoms: C_21  and  O_25 
REMARK   12  A    between atoms: C_21  and  C_22 
REMARK   13  A    between atoms: C_22  and  O_23 
REMARK   14  A    between atoms: N_26  and  C_27 
REMARK       I    between atoms: N_26  and  C_29 
REMARK   15  A    between atoms: C_27  and  C_28 
REMARK   16  A    between atoms: C_28  and  O_32 
REMARK   17  A    between atoms: C_29  and  C_31 
REMARK   18  A    between atoms: C_31  and  O_33 
ROOT
HETATM    1  C   UNK N   1      22.470  15.774   4.591  0.00  0.00     0.068 C 
HETATM    2  C   UNK N   1      21.615  15.330   5.624  0.00  0.00     0.051 C 
HETATM    3  C   UNK N   1      22.107  15.065   6.959  0.00  0.00     0.072 C 
HETATM    4  C   UNK N   1      23.555  14.957   7.081  0.00  0.00     0.051 C 
HETATM    5  C   UNK N   1      24.413  15.448   6.038  0.00  0.00     0.068 C 
HETATM    6  C   UNK N   1      23.849  15.901   4.816  0.00  0.00     0.040 C 
HETATM    7  I   UNK N   1      24.577  13.691   8.561  0.00  0.00    -0.041 I 
HETATM    8  I   UNK N   1      25.033  16.804   3.233  0.00  0.00    -0.042 I 
HETATM    9  I   UNK N   1      19.634  14.693   4.964  0.00  0.00    -0.041 I 
ENDROOT
BRANCH   1  10
HETATM   10  C   UNK N   1      21.923  16.092   3.226  0.00  0.00     0.254 C 
HETATM   11  N   UNK N   1      21.330  17.281   2.926  0.00  0.00    -0.354 N 
HETATM   12  H   UNK N   1      20.938  17.388   2.030  0.00  0.00     0.162 HD
HETATM   13  O   UNK N   1      22.064  15.274   2.330  0.00  0.00    -0.268 OA
BRANCH  11  14
HETATM   14  C   UNK N   1      21.241  18.394   3.843  0.00  0.00     0.156 C 
BRANCH  14  15
HETATM   15  C   UNK N   1      20.533  19.559   3.175  0.00  0.00     0.159 C 
BRANCH  15  16
HETATM   16  O   UNK N   1      19.416  19.129   2.458  0.00  0.00    -0.392 OA
HETATM   17  H   UNK N   1      19.271  19.442   1.551  0.00  0.00     0.210 HD
ENDBRANCH  15  16
BRANCH  15  18
HETATM   18  C   UNK N   1      21.492  20.316   2.279  0.00  0.00     0.197 C 
BRANCH  18  19
HETATM   19  O   UNK N   1      21.766  21.562   2.841  0.00  0.00    -0.398 OA
HETATM   20  H   UNK N   1      21.293  22.386   2.641  0.00  0.00     0.209 HD
ENDBRANCH  18  19
ENDBRANCH  15  18
ENDBRANCH  14  15
ENDBRANCH  11  14
ENDBRANCH   1  10
BRANCH   5  21
HETATM   21  C   UNK N   1      25.912  15.502   6.247  0.00  0.00     0.254 C 
HETATM   22  N   UNK N   1      26.495  16.568   6.836  0.00  0.00    -0.354 N 
HETATM   23  H   UNK N   1      25.927  17.324   7.112  0.00  0.00     0.162 HD
HETATM   24  O   UNK N   1      26.615  14.559   5.911  0.00  0.00    -0.268 OA
BRANCH  22  25
HETATM   25  C   UNK N   1      27.911  16.646   7.079  0.00  0.00     0.156 C 
BRANCH  25  26
HETATM   26  C   UNK N   1      28.301  18.106   7.200  0.00  0.00     0.159 C 
BRANCH  26  27
HETATM   27  O   UNK N   1      27.327  18.917   6.616  0.00  0.00    -0.392 OA
HETATM   28  H   UNK N   1      27.090  19.307   5.760  0.00  0.00     0.210 HD
ENDBRANCH  26  27
BRANCH  26  29
HETATM   29  C   UNK N   1      28.518  18.492   8.655  0.00  0.00     0.197 C 
BRANCH  29  30
HETATM   30  O   UNK N   1      27.449  18.063   9.444  0.00  0.00    -0.398 OA
HETATM   31  H   UNK N   1      26.775  17.401   9.223  0.00  0.00     0.209 HD
ENDBRANCH  29  30
ENDBRANCH  26  29
ENDBRANCH  25  26
ENDBRANCH  22  25
ENDBRANCH   5  21
BRANCH   3  32
HETATM   32  N   UNK N   1      21.128  14.930   8.081  0.00  0.00    -0.312 N 
HETATM   33  C   UNK N   1      20.766  13.750   8.715  0.00  0.00     0.247 C 
HETATM   34  O   UNK N   1      21.315  12.706   8.486  0.00  0.00    -0.271 OA
BRANCH  32  35
HETATM   35  C   UNK N   1      20.906  16.114   8.902  0.00  0.00     0.158 C 
BRANCH  35  36
HETATM   36  C   UNK N   1      19.904  17.131   8.391  0.00  0.00     0.184 C 
BRANCH  36  37
HETATM   37  O   UNK N   1      20.617  18.174   7.798  0.00  0.00    -0.399 OA
HETATM   38  H   UNK N   1      20.378  18.653   6.988  0.00  0.00     0.209 HD
ENDBRANCH  36  37
ENDBRANCH  35  36
ENDBRANCH  32  35
BRANCH  33  39
HETATM   39  C   UNK N   1      19.778  13.726   9.855  0.00  0.00     0.267 C 
BRANCH  39  40
HETATM   40  O   UNK N   1      20.131  12.730  10.767  0.00  0.00    -0.392 OA
HETATM   41  H   UNK N   1      20.742  12.073  11.135  0.00  0.00     0.210 HD
ENDBRANCH  39  40
ENDBRANCH  33  39
ENDBRANCH   3  32
TORSDOF 18
ENDMDL
MODEL 5
REMARK VINA RESULT:      -5.7      7.800     12.220
REMARK  18 active torsions:
REMARK  status: ('A' for Active; 'I' for Inactive)
REMARK    1  A    between atoms: C_9  and  C_1 
REMARK       I    between atoms: C_1  and  N_2 
REMARK    2  A    between atoms: N_2  and  C_4 
REMARK    3  A    between atoms: C_4  and  C_5 
REMARK    4  A    between atoms: C_5  and  O_8 
REMARK    5  A    between atoms: C_5  and  C_6 
REMARK    6  A    between atoms: C_6  and  O_7 
REMARK    7  A    between atoms: C_11  and  N_26 
REMARK    8  A    between atoms: C_13  and  C_18 
REMARK       I    between atoms: C_18  and  N_19 
REMARK    9  A    between atoms: N_19  and  C_20 
REMARK   10  A    between atoms: C_20  and  C_21 
REMARK   11  A    between atoms: C_21  and  O_25 
REMARK   12  A    between atoms: C_21  and  C_22 
REMARK   13  A    between atoms: C_22  and  O_23 
REMARK   14  A    between atoms: N_26  and  C_27 
REMARK       I    between atoms: N_26  and  C_29 
REMARK   15  A    between atoms: C_27  and  C_28 
REMARK   16  A    between atoms: C_28  and  O_32 
REMARK   17  A    between atoms: C_29  and  C_31 
REMARK   18  A    between atoms: C_31  and  O_33 
ROOT
HETATM    1  C   UNK N   1      34.310  16.242   7.734  0.00  0.00     0.068 C 
HETATM    2  C   UNK N   1      34.033  15.672   6.472  0.00  0.00     0.051 C 
HETATM    3  C   UNK N   1      34.478  14.338   6.125  0.00  0.00     0.072 C 
HETATM    4  C   UNK N   1      35.492  13.770   7.003  0.00  0.00     0.051 C 
HETATM    5  C   UNK N   1      35.735  14.338   8.300  0.00  0.00     0.068 C 
HETATM    6  C   UNK N   1      35.094  15.551   8.669  0.00  0.00     0.040 C 
HETATM    7  I   UNK N   1      37.032  12.343   6.347  0.00  0.00    -0.041 I 
HETATM    8  I   UNK N   1      35.268  16.420  10.654  0.00  0.00    -0.042 I 
HETATM    9  I   UNK N   1      33.269  17.071   4.981  0.00  0.00    -0.041 I 
ENDROOT
BRANCH   1  10
HETATM   10  C   UNK N   1      33.791  17.609   8.088  0.00  0.00     0.254 C 
HETATM   11  N   UNK N   1      32.544  17.818   8.596  0.00  0.00    -0.354 N 
HETATM   12  H   UNK N   1      32.255  18.748   8.740  0.00  0.00     0.162 HD
HETATM   13  O   UNK N   1      34.536  18.571   7.969  0.00  0.00    -0.268 OA
BRANCH  11  14
HETATM   14  C   UNK N   1      31.623  16.760   8.936  0.00  0.00     0.156 C 
BRANCH  14  15
HETATM   15  C   UNK N   1      30.240  17.086   8.400  0.00  0.00     0.159 C 
BRANCH  15  16
HETATM   16  O   UNK N   1      30.173  16.887   7.021  0.00  0.00    -0.392 OA
HETATM   17  H   UNK N   1      29.739  16.095   6.665  0.00  0.00     0.210 HD
ENDBRANCH  15  16
BRANCH  15  18
HETATM   18  C   UNK N   1      29.854  18.504   8.762  0.00  0.00     0.197 C 
BRANCH  18  19
HETATM   19  O   UNK N   1      29.921  18.665  10.145  0.00  0.00    -0.398 OA
HETATM   20  H   UNK N   1      30.718  18.552  10.687  0.00  0.00     0.209 HD
ENDBRANCH  18  19
ENDBRANCH  15  18
ENDBRANCH  14  15
ENDBRANCH  11  14
ENDBRANCH   1  10
BRANCH   5  21
HETATM   21  C   UNK N   1      36.655  13.638   9.279  0.00  0.00     0.254 C 
HETATM   22  N   UNK N   1      36.213  12.612  10.038  0.00  0.00    -0.354 N 
HETATM   23  H   UNK N   1      35.270  12.338   9.957  0.00  0.00     0.162 HD
HETATM   24  O   UNK N   1      37.827  13.975   9.371  0.00  0.00    -0.268 OA
BRANCH  22  25
HETATM   25  C   UNK N   1      37.061  11.902  10.958  0.00  0.00     0.156 C 
BRANCH  25  26
HETATM   26  C   UNK N   1      36.750  12.375  12.364  0.00  0.00     0.159 C 
BRANCH  26  27
HETATM   27  O   UNK N   1      37.079  13.724  12.504  0.00  0.00    -0.392 OA
HETATM   28  H   UNK N   1      36.837  14.505  13.026  0.00  0.00     0.210 HD
ENDBRANCH  26  27
BRANCH  26  29
HETATM   29  C   UNK N   1      35.287  12.142  12.705  0.00  0.00     0.197 C 
BRANCH  29  30
HETATM   30  O   UNK N   1      34.515  13.251  12.354  0.00  0.00    -0.398 OA
HETATM   31  H   UNK N   1      33.669  13.260  11.880  0.00  0.00     0.209 HD
ENDBRANCH  29  30
ENDBRANCH  26  29
ENDBRANCH  25  26
ENDBRANCH  22  25
ENDBRANCH   5  21
BRANCH   3  32
HETATM   32  N   UNK N   1      33.882  13.661   4.933  0.00  0.00    -0.312 N 
HETATM   33  C   UNK N   1      34.498  13.472   3.703  0.00  0.00     0.247 C 
HETATM   34  O   UNK N   1      35.654  13.745   3.519  0.00  0.00    -0.271 OA
BRANCH  32  35
HETATM   35  C   UNK N   1      32.811  12.707   5.190  0.00  0.00     0.158 C 
BRANCH  35  36
HETATM   36  C   UNK N   1      31.388  13.198   5.005  0.00  0.00     0.184 C 
BRANCH  36  37
HETATM   37  O   UNK N   1      31.062  13.990   6.107  0.00  0.00    -0.399 OA
HETATM   38  H   UNK N   1      31.571  14.079   6.929  0.00  0.00     0.209 HD
ENDBRANCH  36  37
ENDBRANCH  35  36
ENDBRANCH  32  35
BRANCH  33  39
HETATM   39  C   UNK N   1      33.812  12.755   2.568  0.00  0.00     0.267 C 
BRANCH  39  40
HETATM   40  O   UNK N   1      33.467  13.670   1.571  0.00  0.00    -0.392 OA
HETATM   41  H   UNK N   1      33.553  14.056   0.685  0.00  0.00     0.210 HD
ENDBRANCH  39  40
ENDBRANCH  33  39
ENDBRANCH   3  32
TORSDOF 18
ENDMDL
MODEL 6
REMARK VINA RESULT:      -5.6      3.585      7.691
REMARK  18 active torsions:
REMARK  status: ('A' for Active; 'I' for Inactive)
REMARK    1  A    between atoms: C_9  and  C_1 
REMARK       I    between atoms: C_1  and  N_2 
REMARK    2  A    between atoms: N_2  and  C_4 
REMARK    3  A    between atoms: C_4  and  C_5 
REMARK    4  A    between atoms: C_5  and  O_8 
REMARK    5  A    between atoms: C_5  and  C_6 
REMARK    6  A    between atoms: C_6  and  O_7 
REMARK    7  A    between atoms: C_11  and  N_26 
REMARK    8  A    between atoms: C_13  and  C_18 
REMARK       I    between atoms: C_18  and  N_19 
REMARK    9  A    between atoms: N_19  and  C_20 
REMARK   10  A    between atoms: C_20  and  C_21 
REMARK   11  A    between atoms: C_21  and  O_25 
REMARK   12  A    between atoms: C_21  and  C_22 
REMARK   13  A    between atoms: C_22  and  O_23 
REMARK   14  A    between atoms: N_26  and  C_27 
REMARK       I    between atoms: N_26  and  C_29 
REMARK   15  A    between atoms: C_27  and  C_28 
REMARK   16  A    between atoms: C_28  and  O_32 
REMARK   17  A    between atoms: C_29  and  C_31 
REMARK   18  A    between atoms: C_31  and  O_33 
ROOT
HETATM    1  C   UNK N   1      21.183  16.199   3.353  0.00  0.00     0.068 C 
HETATM    2  C   UNK N   1      21.343  15.050   2.548  0.00  0.00     0.051 C 
HETATM    3  C   UNK N   1      22.585  14.305   2.522  0.00  0.00     0.072 C 
HETATM    4  C   UNK N   1      23.735  14.989   3.098  0.00  0.00     0.051 C 
HETATM    5  C   UNK N   1      23.553  16.135   3.946  0.00  0.00     0.068 C 
HETATM    6  C   UNK N   1      22.258  16.697   4.103  0.00  0.00     0.040 C 
HETATM    7  I   UNK N   1      25.809  14.689   2.429  0.00  0.00    -0.041 I 
HETATM    8  I   UNK N   1      21.840  18.330   5.475  0.00  0.00    -0.042 I 
HETATM    9  I   UNK N   1      19.764  14.735   1.074  0.00  0.00    -0.041 I 
ENDROOT
BRANCH   1  10
HETATM   10  C   UNK N   1      19.865  16.924   3.400  0.00  0.00     0.254 C 
HETATM   11  N   UNK N   1      19.546  17.935   2.545  0.00  0.00    -0.354 N 
HETATM   12  H   UNK N   1      18.691  18.403   2.683  0.00  0.00     0.162 HD
HETATM   13  O   UNK N   1      19.019  16.557   4.203  0.00  0.00    -0.268 OA
BRANCH  11  14
HETATM   14  C   UNK N   1      20.384  18.360   1.449  0.00  0.00     0.156 C 
BRANCH  14  15
HETATM   15  C   UNK N   1      20.537  19.871   1.471  0.00  0.00     0.159 C 
BRANCH  15  16
HETATM   16  O   UNK N   1      20.538  20.398   0.178  0.00  0.00    -0.392 OA
HETATM   17  H   UNK N   1      19.813  20.190  -0.431  0.00  0.00     0.210 HD
ENDBRANCH  15  16
BRANCH  15  18
HETATM   18  C   UNK N   1      21.794  20.264   2.216  0.00  0.00     0.197 C 
BRANCH  18  19
HETATM   19  O   UNK N   1      21.652  21.557   2.718  0.00  0.00    -0.398 OA
HETATM   20  H   UNK N   1      21.271  21.788   3.580  0.00  0.00     0.209 HD
ENDBRANCH  18  19
ENDBRANCH  15  18
ENDBRANCH  14  15
ENDBRANCH  11  14
ENDBRANCH   1  10
BRANCH   5  21
HETATM   21  C   UNK N   1      24.733  16.729   4.687  0.00  0.00     0.254 C 
HETATM   22  N   UNK N   1      25.365  17.829   4.221  0.00  0.00    -0.354 N 
HETATM   23  H   UNK N   1      25.056  18.227   3.375  0.00  0.00     0.162 HD
HETATM   24  O   UNK N   1      25.109  16.236   5.741  0.00  0.00    -0.268 OA
BRANCH  22  25
HETATM   25  C   UNK N   1      26.470  18.441   4.910  0.00  0.00     0.156 C 
BRANCH  25  26
HETATM   26  C   UNK N   1      26.786  19.763   4.237  0.00  0.00     0.159 C 
BRANCH  26  27
HETATM   27  O   UNK N   1      28.081  19.742   3.717  0.00  0.00    -0.392 OA
HETATM   28  H   UNK N   1      28.548  19.755   2.867  0.00  0.00     0.210 HD
ENDBRANCH  26  27
BRANCH  26  29
HETATM   29  C   UNK N   1      25.774  20.071   3.145  0.00  0.00     0.197 C 
BRANCH  29  30
HETATM   30  O   UNK N   1      24.619  20.637   3.688  0.00  0.00    -0.398 OA
HETATM   31  H   UNK N   1      23.862  20.178   4.084  0.00  0.00     0.209 HD
ENDBRANCH  29  30
ENDBRANCH  26  29
ENDBRANCH  25  26
ENDBRANCH  22  25
ENDBRANCH   5  21
BRANCH   3  32
HETATM   32  N   UNK N   1      22.596  12.932   1.932  0.00  0.00    -0.312 N 
HETATM   33  C   UNK N   1      22.977  12.598   0.639  0.00  0.00     0.247 C 
HETATM   34  O   UNK N   1      23.460  13.401  -0.112  0.00  0.00    -0.271 OA
BRANCH  32  35
HETATM   35  C   UNK N   1      22.701  11.818   2.867  0.00  0.00     0.158 C 
BRANCH  35  36
HETATM   36  C   UNK N   1      21.430  11.385   3.572  0.00  0.00     0.184 C 
BRANCH  36  37
HETATM   37  O   UNK N   1      21.254  10.021   3.336  0.00  0.00    -0.399 OA
HETATM   38  H   UNK N   1      20.533   9.607   2.834  0.00  0.00     0.209 HD
ENDBRANCH  36  37
ENDBRANCH  35  36
ENDBRANCH  32  35
BRANCH  33  39
HETATM   39  C   UNK N   1      22.969  11.172   0.148  0.00  0.00     0.267 C 
BRANCH  39  40
HETATM   40  O   UNK N   1      24.279  10.737  -0.064  0.00  0.00    -0.392 OA
HETATM   41  H   UNK N   1      24.960  10.050  -0.136  0.00  0.00     0.210 HD
ENDBRANCH  39  40
ENDBRANCH  33  39
ENDBRANCH   3  32
TORSDOF 18
ENDMDL
MODEL 7
REMARK VINA RESULT:      -5.6      2.280      6.600
REMARK  18 active torsions:
REMARK  status: ('A' for Active; 'I' for Inactive)
REMARK    1  A    between atoms: C_9  and  C_1 
REMARK       I    between atoms: C_1  and  N_2 
REMARK    2  A    between atoms: N_2  and  C_4 
REMARK    3  A    between atoms: C_4  and  C_5 
REMARK    4  A    between atoms: C_5  and  O_8 
REMARK    5  A    between atoms: C_5  and  C_6 
REMARK    6  A    between atoms: C_6  and  O_7 
REMARK    7  A    between atoms: C_11  and  N_26 
REMARK    8  A    between atoms: C_13  and  C_18 
REMARK       I    between atoms: C_18  and  N_19 
REMARK    9  A    between atoms: N_19  and  C_20 
REMARK   10  A    between atoms: C_20  and  C_21 
REMARK   11  A    between atoms: C_21  and  O_25 
REMARK   12  A    between atoms: C_21  and  C_22 
REMARK   13  A    between atoms: C_22  and  O_23 
REMARK   14  A    between atoms: N_26  and  C_27 
REMARK       I    between atoms: N_26  and  C_29 
REMARK   15  A    between atoms: C_27  and  C_28 
REMARK   16  A    between atoms: C_28  and  O_32 
REMARK   17  A    between atoms: C_29  and  C_31 
REMARK   18  A    between atoms: C_31  and  O_33 
ROOT
HETATM    1  C   UNK N   1      22.854  14.562   5.155  0.00  0.00     0.068 C 
HETATM    2  C   UNK N   1      21.859  15.313   4.490  0.00  0.00     0.051 C 
HETATM    3  C   UNK N   1      22.179  16.519   3.756  0.00  0.00     0.072 C 
HETATM    4  C   UNK N   1      23.495  17.082   4.023  0.00  0.00     0.051 C 
HETATM    5  C   UNK N   1      24.509  16.293   4.667  0.00  0.00     0.068 C 
HETATM    6  C   UNK N   1      24.183  15.011   5.182  0.00  0.00     0.040 C 
HETATM    7  I   UNK N   1      23.961  19.230   3.920  0.00  0.00    -0.041 I 
HETATM    8  I   UNK N   1      25.666  13.671   6.036  0.00  0.00    -0.042 I 
HETATM    9  I   UNK N   1      19.808  14.759   4.990  0.00  0.00    -0.041 I 
ENDROOT
BRANCH   1  10
HETATM   10  C   UNK N   1      22.503  13.284   5.867  0.00  0.00     0.254 C 
HETATM   11  N   UNK N   1      22.262  13.225   7.206  0.00  0.00    -0.354 N 
HETATM   12  H   UNK N   1      22.104  12.341   7.608  0.00  0.00     0.162 HD
HETATM   13  O   UNK N   1      22.373  12.261   5.210  0.00  0.00    -0.268 OA
BRANCH  11  14
HETATM   14  C   UNK N   1      22.224  14.381   8.071  0.00  0.00     0.156 C 
BRANCH  14  15
HETATM   15  C   UNK N   1      21.231  14.152   9.197  0.00  0.00     0.159 C 
BRANCH  15  16
HETATM   16  O   UNK N   1      20.700  12.862   9.147  0.00  0.00    -0.392 OA
HETATM   17  H   UNK N   1      21.209  12.114   9.497  0.00  0.00     0.210 HD
ENDBRANCH  15  16
BRANCH  15  18
HETATM   18  C   UNK N   1      20.132  15.192   9.151  0.00  0.00     0.197 C 
BRANCH  18  19
HETATM   19  O   UNK N   1      18.952  14.643   9.649  0.00  0.00    -0.398 OA
HETATM   20  H   UNK N   1      18.882  13.809  10.141  0.00  0.00     0.209 HD
ENDBRANCH  18  19
ENDBRANCH  15  18
ENDBRANCH  14  15
ENDBRANCH  11  14
ENDBRANCH   1  10
BRANCH   5  21
HETATM   21  C   UNK N   1      25.926  16.817   4.777  0.00  0.00     0.254 C 
HETATM   22  N   UNK N   1      26.360  17.420   5.905  0.00  0.00    -0.354 N 
HETATM   23  H   UNK N   1      25.728  17.533   6.652  0.00  0.00     0.162 HD
HETATM   24  O   UNK N   1      26.711  16.669   3.850  0.00  0.00    -0.268 OA
BRANCH  22  25
HETATM   25  C   UNK N   1      27.706  17.905   6.061  0.00  0.00     0.156 C 
BRANCH  25  26
HETATM   26  C   UNK N   1      28.321  17.241   7.277  0.00  0.00     0.159 C 
BRANCH  26  27
HETATM   27  O   UNK N   1      29.554  16.676   6.947  0.00  0.00    -0.392 OA
HETATM   28  H   UNK N   1      29.937  15.996   6.372  0.00  0.00     0.210 HD
ENDBRANCH  26  27
BRANCH  26  29
HETATM   29  C   UNK N   1      28.474  18.233   8.419  0.00  0.00     0.197 C 
BRANCH  29  30
HETATM   30  O   UNK N   1      27.446  18.077   9.350  0.00  0.00    -0.398 OA
HETATM   31  H   UNK N   1      27.378  18.473  10.233  0.00  0.00     0.209 HD
ENDBRANCH  29  30
ENDBRANCH  26  29
ENDBRANCH  25  26
ENDBRANCH  22  25
ENDBRANCH   5  21
BRANCH   3  32
HETATM   32  N   UNK N   1      21.170  17.079   2.805  0.00  0.00    -0.312 N 
HETATM   33  C   UNK N   1      20.761  16.501   1.611  0.00  0.00     0.247 C 
HETATM   34  O   UNK N   1      21.110  15.400   1.281  0.00  0.00    -0.271 OA
BRANCH  32  35
HETATM   35  C   UNK N   1      20.191  18.005   3.360  0.00  0.00     0.158 C 
BRANCH  35  36
HETATM   36  C   UNK N   1      20.324  19.466   2.971  0.00  0.00     0.184 C 
BRANCH  36  37
HETATM   37  O   UNK N   1      20.455  20.211   4.144  0.00  0.00    -0.399 OA
HETATM   38  H   UNK N   1      20.707  21.145   4.212  0.00  0.00     0.209 HD
ENDBRANCH  36  37
ENDBRANCH  35  36
ENDBRANCH  32  35
BRANCH  33  39
HETATM   39  C   UNK N   1      19.718  17.142   0.730  0.00  0.00     0.267 C 
BRANCH  39  40
HETATM   40  O   UNK N   1      20.338  17.827  -0.316  0.00  0.00    -0.392 OA
HETATM   41  H   UNK N   1      20.603  18.635  -0.784  0.00  0.00     0.210 HD
ENDBRANCH  39  40
ENDBRANCH  33  39
ENDBRANCH   3  32
TORSDOF 18
ENDMDL
MODEL 8
REMARK VINA RESULT:      -5.6      6.227      9.450
REMARK  18 active torsions:
REMARK  status: ('A' for Active; 'I' for Inactive)
REMARK    1  A    between atoms: C_9  and  C_1 
REMARK       I    between atoms: C_1  and  N_2 
REMARK    2  A    between atoms: N_2  and  C_4 
REMARK    3  A    between atoms: C_4  and  C_5 
REMARK    4  A    between atoms: C_5  and  O_8 
REMARK    5  A    between atoms: C_5  and  C_6 
REMARK    6  A    between atoms: C_6  and  O_7 
REMARK    7  A    between atoms: C_11  and  N_26 
REMARK    8  A    between atoms: C_13  and  C_18 
REMARK       I    between atoms: C_18  and  N_19 
REMARK    9  A    between atoms: N_19  and  C_20 
REMARK   10  A    between atoms: C_20  and  C_21 
REMARK   11  A    between atoms: C_21  and  O_25 
REMARK   12  A    between atoms: C_21  and  C_22 
REMARK   13  A    between atoms: C_22  and  O_23 
REMARK   14  A    between atoms: N_26  and  C_27 
REMARK       I    between atoms: N_26  and  C_29 
REMARK   15  A    between atoms: C_27  and  C_28 
REMARK   16  A    between atoms: C_28  and  O_32 
REMARK   17  A    between atoms: C_29  and  C_31 
REMARK   18  A    between atoms: C_31  and  O_33 
ROOT
HETATM    1  C   UNK N   1      33.749  14.863   6.132  0.00  0.00     0.068 C 
HETATM    2  C   UNK N   1      33.387  13.690   5.433  0.00  0.00     0.051 C 
HETATM    3  C   UNK N   1      32.128  13.584   4.725  0.00  0.00     0.072 C 
HETATM    4  C   UNK N   1      31.139  14.602   5.052  0.00  0.00     0.051 C 
HETATM    5  C   UNK N   1      31.531  15.808   5.730  0.00  0.00     0.068 C 
HETATM    6  C   UNK N   1      32.857  15.942   6.219  0.00  0.00     0.040 C 
HETATM    7  I   UNK N   1      28.965  14.274   4.988  0.00  0.00    -0.041 I 
HETATM    8  I   UNK N   1      33.601  17.774   7.121  0.00  0.00    -0.042 I 
HETATM    9  I   UNK N   1      34.646  11.955   5.841  0.00  0.00    -0.041 I 
ENDROOT
BRANCH   1  10
HETATM   10  C   UNK N   1      35.085  14.967   6.816  0.00  0.00     0.254 C 
HETATM   11  N   UNK N   1      35.248  14.772   8.154  0.00  0.00    -0.354 N 
HETATM   12  H   UNK N   1      36.142  14.923   8.537  0.00  0.00     0.162 HD
HETATM   13  O   UNK N   1      36.079  15.179   6.137  0.00  0.00    -0.268 OA
BRANCH  11  14
HETATM   14  C   UNK N   1      34.189  14.359   9.045  0.00  0.00     0.156 C 
BRANCH  14  15
HETATM   15  C   UNK N   1      34.477  14.848  10.453  0.00  0.00     0.159 C 
BRANCH  15  16
HETATM   16  O   UNK N   1      33.301  14.980  11.193  0.00  0.00    -0.392 OA
HETATM   17  H   UNK N   1      33.233  15.662  11.880  0.00  0.00     0.210 HD
ENDBRANCH  15  16
BRANCH  15  18
HETATM   18  C   UNK N   1      35.240  16.155  10.413  0.00  0.00     0.197 C 
BRANCH  18  19
HETATM   19  O   UNK N   1      36.586  15.915  10.679  0.00  0.00    -0.398 OA
HETATM   20  H   UNK N   1      37.203  16.548  11.079  0.00  0.00     0.209 HD
ENDBRANCH  18  19
ENDBRANCH  15  18
ENDBRANCH  14  15
ENDBRANCH  11  14
ENDBRANCH   1  10
BRANCH   5  21
HETATM   21  C   UNK N   1      30.540  16.939   5.904  0.00  0.00     0.254 C 
HETATM   22  N   UNK N   1      29.828  17.073   7.045  0.00  0.00    -0.354 N 
HETATM   23  H   UNK N   1      29.951  16.404   7.757  0.00  0.00     0.162 HD
HETATM   24  O   UNK N   1      30.394  17.772   5.020  0.00  0.00    -0.268 OA
BRANCH  22  25
HETATM   25  C   UNK N   1      28.898  18.149   7.261  0.00  0.00     0.156 C 
BRANCH  25  26
HETATM   26  C   UNK N   1      28.750  18.366   8.755  0.00  0.00     0.159 C 
BRANCH  26  27
HETATM   27  O   UNK N   1      27.406  18.283   9.123  0.00  0.00    -0.392 OA
HETATM   28  H   UNK N   1      26.535  18.086   8.744  0.00  0.00     0.210 HD
ENDBRANCH  26  27
BRANCH  26  29
HETATM   29  C   UNK N   1      29.583  17.362   9.535  0.00  0.00     0.197 C 
BRANCH  29  30
HETATM   30  O   UNK N   1      30.929  17.732   9.536  0.00  0.00    -0.398 OA
HETATM   31  H   UNK N   1      31.704  17.156   9.630  0.00  0.00     0.209 HD
ENDBRANCH  29  30
ENDBRANCH  26  29
ENDBRANCH  25  26
ENDBRANCH  22  25
ENDBRANCH   5  21
BRANCH   3  32
HETATM   32  N   UNK N   1      31.942  12.477   3.738  0.00  0.00    -0.312 N 
HETATM   33  C   UNK N   1      31.328  11.256   3.981  0.00  0.00     0.247 C 
HETATM   34  O   UNK N   1      30.768  11.018   5.016  0.00  0.00    -0.271 OA
BRANCH  32  35
HETATM   35  C   UNK N   1      31.938  12.850   2.328  0.00  0.00     0.158 C 
BRANCH  35  36
HETATM   36  C   UNK N   1      33.283  12.937   1.632  0.00  0.00     0.184 C 
BRANCH  36  37
HETATM   37  O   UNK N   1      33.776  14.230   1.813  0.00  0.00    -0.399 OA
HETATM   38  H   UNK N   1      33.764  14.951   1.164  0.00  0.00     0.209 HD
ENDBRANCH  36  37
ENDBRANCH  35  36
ENDBRANCH  32  35
BRANCH  33  39
HETATM   39  C   UNK N   1      31.175  10.210   2.905  0.00  0.00     0.267 C 
BRANCH  39  40
HETATM   40  O   UNK N   1      29.820   9.977   2.662  0.00  0.00    -0.392 OA
HETATM   41  H   UNK N   1      28.878  10.049   2.881  0.00  0.00     0.210 HD
ENDBRANCH  39  40
ENDBRANCH  33  39
ENDBRANCH   3  32
TORSDOF 18
ENDMDL
MODEL 9
REMARK VINA RESULT:      -5.5      7.135     10.792
REMARK  18 active torsions:
REMARK  status: ('A' for Active; 'I' for Inactive)
REMARK    1  A    between atoms: C_9  and  C_1 
REMARK       I    between atoms: C_1  and  N_2 
REMARK    2  A    between atoms: N_2  and  C_4 
REMARK    3  A    between atoms: C_4  and  C_5 
REMARK    4  A    between atoms: C_5  and  O_8 
REMARK    5  A    between atoms: C_5  and  C_6 
REMARK    6  A    between atoms: C_6  and  O_7 
REMARK    7  A    between atoms: C_11  and  N_26 
REMARK    8  A    between atoms: C_13  and  C_18 
REMARK       I    between atoms: C_18  and  N_19 
REMARK    9  A    between atoms: N_19  and  C_20 
REMARK   10  A    between atoms: C_20  and  C_21 
REMARK   11  A    between atoms: C_21  and  O_25 
REMARK   12  A    between atoms: C_21  and  C_22 
REMARK   13  A    between atoms: C_22  and  O_23 
REMARK   14  A    between atoms: N_26  and  C_27 
REMARK       I    between atoms: N_26  and  C_29 
REMARK   15  A    between atoms: C_27  and  C_28 
REMARK   16  A    between atoms: C_28  and  O_32 
REMARK   17  A    between atoms: C_29  and  C_31 
REMARK   18  A    between atoms: C_31  and  O_33 
ROOT
HETATM    1  C   UNK N   1      34.316  16.344   7.696  0.00  0.00     0.068 C 
HETATM    2  C   UNK N   1      34.994  15.565   8.659  0.00  0.00     0.051 C 
HETATM    3  C   UNK N   1      35.278  14.162   8.441  0.00  0.00     0.072 C 
HETATM    4  C   UNK N   1      34.541  13.538   7.350  0.00  0.00     0.051 C 
HETATM    5  C   UNK N   1      33.888  14.344   6.356  0.00  0.00     0.068 C 
HETATM    6  C   UNK N   1      33.829  15.754   6.520  0.00  0.00     0.040 C 
HETATM    7  I   UNK N   1      33.955  11.418   7.312  0.00  0.00    -0.041 I 
HETATM    8  I   UNK N   1      33.004  17.083   5.011  0.00  0.00    -0.042 I 
HETATM    9  I   UNK N   1      35.205  16.507  10.616  0.00  0.00    -0.041 I 
ENDROOT
BRANCH   1  10
HETATM   10  C   UNK N   1      34.080  17.812   7.925  0.00  0.00     0.254 C 
HETATM   11  N   UNK N   1      32.887  18.312   8.355  0.00  0.00    -0.354 N 
HETATM   12  H   UNK N   1      32.792  19.289   8.417  0.00  0.00     0.162 HD
HETATM   13  O   UNK N   1      35.011  18.589   7.773  0.00  0.00    -0.268 OA
BRANCH  11  14
HETATM   14  C   UNK N   1      31.756  17.494   8.725  0.00  0.00     0.156 C 
BRANCH  14  15
HETATM   15  C   UNK N   1      30.497  18.342   8.768  0.00  0.00     0.159 C 
BRANCH  15  16
HETATM   16  O   UNK N   1      30.001  18.444  10.069  0.00  0.00    -0.392 OA
HETATM   17  H   UNK N   1      29.084  18.723  10.217  0.00  0.00     0.210 HD
ENDBRANCH  15  16
BRANCH  15  18
HETATM   18  C   UNK N   1      29.449  17.780   7.832  0.00  0.00     0.197 C 
BRANCH  18  19
HETATM   19  O   UNK N   1      29.940  16.626   7.224  0.00  0.00    -0.398 OA
HETATM   20  H   UNK N   1      30.853  16.303   7.284  0.00  0.00     0.209 HD
ENDBRANCH  18  19
ENDBRANCH  15  18
ENDBRANCH  14  15
ENDBRANCH  11  14
ENDBRANCH   1  10
BRANCH   5  21
HETATM   21  C   UNK N   1      33.282  13.698   5.128  0.00  0.00     0.254 C 
HETATM   22  N   UNK N   1      31.959  13.434   5.061  0.00  0.00    -0.354 N 
HETATM   23  H   UNK N   1      31.395  13.653   5.838  0.00  0.00     0.162 HD
HETATM   24  O   UNK N   1      33.984  13.434   4.161  0.00  0.00    -0.268 OA
BRANCH  22  25
HETATM   25  C   UNK N   1      31.340  12.848   3.902  0.00  0.00     0.156 C 
BRANCH  25  26
HETATM   26  C   UNK N   1      29.852  12.715   4.164  0.00  0.00     0.159 C 
BRANCH  26  27
HETATM   27  O   UNK N   1      29.584  11.515   4.825  0.00  0.00    -0.392 OA
HETATM   28  H   UNK N   1      30.043  10.761   5.226  0.00  0.00     0.210 HD
ENDBRANCH  26  27
BRANCH  26  29
HETATM   29  C   UNK N   1      29.335  13.897   4.967  0.00  0.00     0.197 C 
BRANCH  29  30
HETATM   30  O   UNK N   1      29.751  15.102   4.397  0.00  0.00    -0.398 OA
HETATM   31  H   UNK N   1      30.010  15.266   3.477  0.00  0.00     0.209 HD
ENDBRANCH  29  30
ENDBRANCH  26  29
ENDBRANCH  25  26
ENDBRANCH  22  25
ENDBRANCH   5  21
BRANCH   3  32
HETATM   32  N   UNK N   1      36.276  13.478   9.319  0.00  0.00    -0.312 N 
HETATM   33  C   UNK N   1      36.005  12.819  10.510  0.00  0.00     0.247 C 
HETATM   34  O   UNK N   1      34.883  12.635  10.897  0.00  0.00    -0.271 OA
BRANCH  32  35
HETATM   35  C   UNK N   1      37.508  13.029   8.682  0.00  0.00     0.158 C 
BRANCH  35  36
HETATM   36  C   UNK N   1      38.698  13.967   8.741  0.00  0.00     0.184 C 
BRANCH  36  37
HETATM   37  O   UNK N   1      38.489  14.858   9.795  0.00  0.00    -0.399 OA
HETATM   38  H   UNK N   1      37.719  14.889  10.384  0.00  0.00     0.209 HD
ENDBRANCH  36  37
ENDBRANCH  35  36
ENDBRANCH  32  35
BRANCH  33  39
HETATM   39  C   UNK N   1      37.088  12.143  11.313  0.00  0.00     0.267 C 
BRANCH  39  40
HETATM   40  O   UNK N   1      37.733  13.081  12.122  0.00  0.00    -0.392 OA
HETATM   41  H   UNK N   1      38.111  13.382  12.963  0.00  0.00     0.210 HD
ENDBRANCH  39  40
ENDBRANCH  33  39
ENDBRANCH   3  32
TORSDOF 18
ENDMDL
