MODEL 1
REMARK VINA RESULT:      -5.7      0.000      0.000
REMARK  17 active torsions:
REMARK  status: ('A' for Active; 'I' for Inactive)
REMARK    1  A    between atoms: C_8  and  C_3 
REMARK    2  A    between atoms: N_22  and  C_3 
REMARK    3  A    between atoms: C_9  and  C_4 
REMARK    4  A    between atoms: N_26  and  C_4 
REMARK    5  A    between atoms: C_8  and  C_5 
REMARK    6  A    between atoms: O_27  and  C_5 
REMARK    7  A    between atoms: C_9  and  C_6 
REMARK    8  A    between atoms: O_28  and  C_6 
REMARK    9  A    between atoms: C_10  and  C_7 
REMARK   10  A    between atoms: O_34  and  C_7 
REMARK   11  A    between atoms: O_29  and  C_8 
REMARK   12  A    between atoms: O_30  and  C_9 
REMARK   13  A    between atoms: O_31  and  C_10 
REMARK   14  A    between atoms: C_17  and  C_11 
REMARK   15  A    between atoms: C_18  and  C_12 
REMARK   16  A    between atoms: N_24  and  C_16 
REMARK   17  A    between atoms: O_32  and  C_17 
REMARK       I    between atoms: N_26  and  C_18 
ROOT
HETATM    1  C   UNK N   1      31.627  14.173   5.847  0.00  0.00     0.051 A 
HETATM    2  C   UNK N   1      32.048  15.456   7.914  0.00  0.00     0.068 A 
HETATM    3  C   UNK N   1      32.381  14.385   7.040  0.00  0.00     0.039 A 
HETATM    4  C   UNK N   1      30.516  15.018   5.572  0.00  0.00     0.050 A 
HETATM    5  C   UNK N   1      31.013  16.348   7.552  0.00  0.00     0.051 A 
HETATM    6  C   UNK N   1      30.253  16.129   6.401  0.00  0.00     0.069 A 
HETATM    7  I   UNK N   1      34.018  13.084   7.547  0.00  0.00    -0.042 I 
HETATM    8  I   UNK N   1      29.074  14.527   4.044  0.00  0.00    -0.041 I 
HETATM    9  I   UNK N   1      30.611  18.153   8.658  0.00  0.00    -0.041 I 
ENDROOT
BRANCH   1  10
HETATM   10  C   UNK N   1      31.978  13.038   4.920  0.00  0.00     0.149 C 
HETATM   11  N   UNK N   1      32.894  13.131   4.007  0.00  0.00    -0.368 N 
ATOM     12  HN  UNK N   1      33.021  12.336   3.380  1.00  0.00     0.161 HD
BRANCH  11  13
HETATM   13  C   UNK N   1      33.752  14.284   3.814  0.00  0.00     0.155 C 
BRANCH  13  14
HETATM   14  C   UNK N   1      33.299  15.193   2.660  0.00  0.00     0.159 C 
BRANCH  14  15
HETATM   15  C   UNK N   1      32.923  16.613   3.075  0.00  0.00     0.197 C 
BRANCH  15  16
HETATM   16  O   UNK N   1      31.937  17.113   2.224  0.00  0.00    -0.398 OA
HETATM   17  H   UNK N   1      32.168  17.391   1.324  0.00  0.00     0.209 HD
ENDBRANCH  15  16
ENDBRANCH  14  15
BRANCH  14  18
HETATM   18  O   UNK N   1      34.302  15.241   1.690  0.00  0.00    -0.392 OA
HETATM   19  H   UNK N   1      34.100  15.445   0.763  0.00  0.00     0.210 HD
ENDBRANCH  14  18
ENDBRANCH  13  14
ENDBRANCH  11  13
BRANCH  10  20
HETATM   20  O   UNK N   1      31.358  11.852   5.073  0.00  0.00    -0.346 OA
HETATM   21  H   UNK N   1      31.602  11.017   4.725  0.00  0.00     0.219 HD
ENDBRANCH  10  20
ENDBRANCH   1  10
BRANCH   2  22
HETATM   22  C   UNK N   1      32.801  15.685   9.190  0.00  0.00     0.256 C 
HETATM   23  N   UNK N   1      33.946  16.442   9.231  0.00  0.00    -0.350 N 
HETATM   24  C   UNK N   1      34.343  17.232   8.078  0.00  0.00     0.153 C 
HETATM   25  O   UNK N   1      32.378  15.180  10.223  0.00  0.00    -0.267 OA
BRANCH  23  26
HETATM   26  C   UNK N   1      34.709  16.521  10.472  0.00  0.00     0.159 C 
BRANCH  26  27
HETATM   27  C   UNK N   1      35.795  15.451  10.673  0.00  0.00     0.159 C 
BRANCH  27  28
HETATM   28  C   UNK N   1      35.581  14.629  11.931  0.00  0.00     0.197 C 
BRANCH  28  29
HETATM   29  O   UNK N   1      34.310  14.053  11.906  0.00  0.00    -0.398 OA
HETATM   30  H   UNK N   1      33.553  14.466  12.348  0.00  0.00     0.209 HD
ENDBRANCH  28  29
ENDBRANCH  27  28
BRANCH  27  31
HETATM   31  O   UNK N   1      37.076  16.010  10.650  0.00  0.00    -0.392 OA
HETATM   32  H   UNK N   1      37.694  15.778   9.939  0.00  0.00     0.210 HD
ENDBRANCH  27  31
ENDBRANCH  26  27
ENDBRANCH  23  26
ENDBRANCH   2  22
BRANCH   6  33
HETATM   33  N   UNK N   1      29.199  17.044   6.118  0.00  0.00    -0.337 N 
HETATM   34  C   UNK N   1      29.255  17.960   5.211  0.00  0.00     0.140 C 
ATOM     35  HN  UNK N   1      28.344  16.970   6.669  1.00  0.00     0.168 HD
BRANCH  34  36
HETATM   36  C   UNK N   1      28.087  18.870   5.029  0.00  0.00     0.251 C 
BRANCH  36  37
HETATM   37  O   UNK N   1      27.447  19.085   6.250  0.00  0.00    -0.388 OA
HETATM   38  C   UNK N   1      27.468  20.469   6.422  0.00  0.00     0.202 C 
ENDBRANCH  36  37
ENDBRANCH  34  36
BRANCH  34  39
HETATM   39  O   UNK N   1      30.367  18.141   4.466  0.00  0.00    -0.348 OA
HETATM   40  H   UNK N   1      30.617  17.795   3.631  0.00  0.00     0.219 HD
ENDBRANCH  34  39
ENDBRANCH   6  33
TORSDOF 17
ENDMDL
MODEL 2
REMARK VINA RESULT:      -5.6      6.899     11.352
REMARK  17 active torsions:
REMARK  status: ('A' for Active; 'I' for Inactive)
REMARK    1  A    between atoms: C_8  and  C_3 
REMARK    2  A    between atoms: N_22  and  C_3 
REMARK    3  A    between atoms: C_9  and  C_4 
REMARK    4  A    between atoms: N_26  and  C_4 
REMARK    5  A    between atoms: C_8  and  C_5 
REMARK    6  A    between atoms: O_27  and  C_5 
REMARK    7  A    between atoms: C_9  and  C_6 
REMARK    8  A    between atoms: O_28  and  C_6 
REMARK    9  A    between atoms: C_10  and  C_7 
REMARK   10  A    between atoms: O_34  and  C_7 
REMARK   11  A    between atoms: O_29  and  C_8 
REMARK   12  A    between atoms: O_30  and  C_9 
REMARK   13  A    between atoms: O_31  and  C_10 
REMARK   14  A    between atoms: C_17  and  C_11 
REMARK   15  A    between atoms: C_18  and  C_12 
REMARK   16  A    between atoms: N_24  and  C_16 
REMARK   17  A    between atoms: O_32  and  C_17 
REMARK       I    between atoms: N_26  and  C_18 
ROOT
HETATM    1  C   UNK N   1      24.702  16.899   5.122  0.00  0.00     0.051 A 
HETATM    2  C   UNK N   1      22.347  17.633   5.016  0.00  0.00     0.068 A 
HETATM    3  C   UNK N   1      23.711  17.818   4.662  0.00  0.00     0.039 A 
HETATM    4  C   UNK N   1      24.309  15.827   5.971  0.00  0.00     0.050 A 
HETATM    5  C   UNK N   1      21.975  16.492   5.763  0.00  0.00     0.051 A 
HETATM    6  C   UNK N   1      22.942  15.605   6.240  0.00  0.00     0.069 A 
HETATM    7  I   UNK N   1      24.263  19.505   3.446  0.00  0.00    -0.042 I 
HETATM    8  I   UNK N   1      25.761  14.651   7.051  0.00  0.00    -0.041 I 
HETATM    9  I   UNK N   1      19.914  15.971   6.116  0.00  0.00    -0.041 I 
ENDROOT
BRANCH   1  10
HETATM   10  C   UNK N   1      26.148  17.095   4.748  0.00  0.00     0.149 C 
HETATM   11  N   UNK N   1      26.676  16.586   3.678  0.00  0.00    -0.368 N 
ATOM     12  HN  UNK N   1      27.677  16.713   3.537  1.00  0.00     0.161 HD
BRANCH  11  13
HETATM   13  C   UNK N   1      25.941  15.849   2.667  0.00  0.00     0.155 C 
BRANCH  13  14
HETATM   14  C   UNK N   1      26.159  14.330   2.742  0.00  0.00     0.159 C 
BRANCH  14  15
HETATM   15  C   UNK N   1      27.442  13.902   3.449  0.00  0.00     0.197 C 
BRANCH  15  16
HETATM   16  O   UNK N   1      28.549  14.444   2.797  0.00  0.00    -0.398 OA
HETATM   17  H   UNK N   1      28.527  14.583   1.836  0.00  0.00     0.209 HD
ENDBRANCH  15  16
ENDBRANCH  14  15
BRANCH  14  18
HETATM   18  O   UNK N   1      25.061  13.737   3.369  0.00  0.00    -0.392 OA
HETATM   19  H   UNK N   1      24.979  13.719   4.335  0.00  0.00     0.210 HD
ENDBRANCH  14  18
ENDBRANCH  13  14
ENDBRANCH  11  13
BRANCH  10  20
HETATM   20  O   UNK N   1      26.925  17.875   5.524  0.00  0.00    -0.346 OA
HETATM   21  H   UNK N   1      27.457  18.604   5.271  0.00  0.00     0.219 HD
ENDBRANCH  10  20
ENDBRANCH   1  10
BRANCH   2  22
HETATM   22  C   UNK N   1      21.288  18.598   4.575  0.00  0.00     0.256 C 
HETATM   23  N   UNK N   1      20.649  18.474   3.365  0.00  0.00    -0.350 N 
HETATM   24  C   UNK N   1      20.821  17.271   2.569  0.00  0.00     0.153 C 
HETATM   25  O   UNK N   1      20.988  19.524   5.320  0.00  0.00    -0.267 OA
BRANCH  23  26
HETATM   26  C   UNK N   1      19.725  19.515   2.933  0.00  0.00     0.159 C 
BRANCH  26  27
HETATM   27  C   UNK N   1      20.344  20.702   2.176  0.00  0.00     0.159 C 
BRANCH  27  28
HETATM   28  C   UNK N   1      21.136  20.268   0.955  0.00  0.00     0.197 C 
BRANCH  28  29
HETATM   29  O   UNK N   1      20.733  21.010  -0.156  0.00  0.00    -0.398 OA
HETATM   30  H   UNK N   1      21.042  21.918  -0.303  0.00  0.00     0.209 HD
ENDBRANCH  28  29
ENDBRANCH  27  28
BRANCH  27  31
HETATM   31  O   UNK N   1      21.120  21.501   3.020  0.00  0.00    -0.392 OA
HETATM   32  H   UNK N   1      20.883  21.593   3.956  0.00  0.00     0.210 HD
ENDBRANCH  27  31
ENDBRANCH  26  27
ENDBRANCH  23  26
ENDBRANCH   2  22
BRANCH   6  33
HETATM   33  N   UNK N   1      22.501  14.499   7.021  0.00  0.00    -0.337 N 
HETATM   34  C   UNK N   1      22.352  13.300   6.566  0.00  0.00     0.140 C 
ATOM     35  HN  UNK N   1      22.288  14.665   8.004  1.00  0.00     0.168 HD
BRANCH  34  36
HETATM   36  C   UNK N   1      21.861  12.233   7.486  0.00  0.00     0.251 C 
BRANCH  36  37
HETATM   37  O   UNK N   1      20.906  12.751   8.361  0.00  0.00    -0.388 OA
HETATM   38  C   UNK N   1      21.455  12.570   9.631  0.00  0.00     0.202 C 
ENDBRANCH  36  37
ENDBRANCH  34  36
BRANCH  34  39
HETATM   39  O   UNK N   1      22.580  13.011   5.266  0.00  0.00    -0.348 OA
HETATM   40  H   UNK N   1      23.371  12.806   4.807  0.00  0.00     0.219 HD
ENDBRANCH  34  39
ENDBRANCH   6  33
TORSDOF 17
ENDMDL
MODEL 3
REMARK VINA RESULT:      -5.5      7.201     11.001
REMARK  17 active torsions:
REMARK  status: ('A' for Active; 'I' for Inactive)
REMARK    1  A    between atoms: C_8  and  C_3 
REMARK    2  A    between atoms: N_22  and  C_3 
REMARK    3  A    between atoms: C_9  and  C_4 
REMARK    4  A    between atoms: N_26  and  C_4 
REMARK    5  A    between atoms: C_8  and  C_5 
REMARK    6  A    between atoms: O_27  and  C_5 
REMARK    7  A    between atoms: C_9  and  C_6 
REMARK    8  A    between atoms: O_28  and  C_6 
REMARK    9  A    between atoms: C_10  and  C_7 
REMARK   10  A    between atoms: O_34  and  C_7 
REMARK   11  A    between atoms: O_29  and  C_8 
REMARK   12  A    between atoms: O_30  and  C_9 
REMARK   13  A    between atoms: O_31  and  C_10 
REMARK   14  A    between atoms: C_17  and  C_11 
REMARK   15  A    between atoms: C_18  and  C_12 
REMARK   16  A    between atoms: N_24  and  C_16 
REMARK   17  A    between atoms: O_32  and  C_17 
REMARK       I    between atoms: N_26  and  C_18 
ROOT
HETATM    1  C   UNK N   1      21.080  16.042   3.459  0.00  0.00     0.051 A 
HETATM    2  C   UNK N   1      23.373  15.701   4.309  0.00  0.00     0.068 A 
HETATM    3  C   UNK N   1      22.146  16.418   4.330  0.00  0.00     0.039 A 
HETATM    4  C   UNK N   1      21.281  14.971   2.544  0.00  0.00     0.050 A 
HETATM    5  C   UNK N   1      23.497  14.568   3.472  0.00  0.00     0.051 A 
HETATM    6  C   UNK N   1      22.469  14.212   2.597  0.00  0.00     0.069 A 
HETATM    7  I   UNK N   1      21.926  18.084   5.674  0.00  0.00    -0.042 I 
HETATM    8  I   UNK N   1      19.912  14.604   0.917  0.00  0.00    -0.041 I 
HETATM    9  I   UNK N   1      25.201  13.252   3.563  0.00  0.00    -0.041 I 
ENDROOT
BRANCH   1  10
HETATM   10  C   UNK N   1      19.780  16.803   3.480  0.00  0.00     0.149 C 
HETATM   11  N   UNK N   1      19.539  17.809   2.698  0.00  0.00    -0.368 N 
ATOM     12  HN  UNK N   1      18.659  18.308   2.825  1.00  0.00     0.161 HD
BRANCH  11  13
HETATM   13  C   UNK N   1      20.432  18.274   1.654  0.00  0.00     0.155 C 
BRANCH  13  14
HETATM   14  C   UNK N   1      20.574  19.804   1.610  0.00  0.00     0.159 C 
BRANCH  14  15
HETATM   15  C   UNK N   1      21.744  20.361   2.415  0.00  0.00     0.197 C 
BRANCH  15  16
HETATM   16  O   UNK N   1      21.539  21.715   2.680  0.00  0.00    -0.398 OA
HETATM   17  H   UNK N   1      20.647  22.093   2.614  0.00  0.00     0.209 HD
ENDBRANCH  15  16
ENDBRANCH  14  15
BRANCH  14  18
HETATM   18  O   UNK N   1      20.682  20.219   0.281  0.00  0.00    -0.392 OA
HETATM   19  H   UNK N   1      20.861  19.588  -0.433  0.00  0.00     0.210 HD
ENDBRANCH  14  18
ENDBRANCH  13  14
ENDBRANCH  11  13
BRANCH  10  20
HETATM   20  O   UNK N   1      18.796  16.397   4.306  0.00  0.00    -0.346 OA
HETATM   21  H   UNK N   1      17.902  16.677   4.331  0.00  0.00     0.219 HD
ENDBRANCH  10  20
ENDBRANCH   1  10
BRANCH   2  22
HETATM   22  C   UNK N   1      24.522  16.092   5.189  0.00  0.00     0.256 C 
HETATM   23  N   UNK N   1      25.526  16.919   4.749  0.00  0.00    -0.350 N 
HETATM   24  C   UNK N   1      25.392  17.623   3.486  0.00  0.00     0.153 C 
HETATM   25  O   UNK N   1      24.560  15.658   6.335  0.00  0.00    -0.267 OA
BRANCH  23  26
HETATM   26  C   UNK N   1      26.684  17.158   5.604  0.00  0.00     0.159 C 
BRANCH  26  27
HETATM   27  C   UNK N   1      27.154  18.617   5.720  0.00  0.00     0.159 C 
BRANCH  27  28
HETATM   28  C   UNK N   1      28.456  18.872   4.980  0.00  0.00     0.197 C 
BRANCH  28  29
HETATM   29  O   UNK N   1      28.220  19.711   3.889  0.00  0.00    -0.398 OA
HETATM   30  H   UNK N   1      27.344  19.783   3.481  0.00  0.00     0.209 HD
ENDBRANCH  28  29
ENDBRANCH  27  28
BRANCH  27  31
HETATM   31  O   UNK N   1      27.248  19.023   7.054  0.00  0.00    -0.392 OA
HETATM   32  H   UNK N   1      27.805  19.780   7.294  0.00  0.00     0.210 HD
ENDBRANCH  27  31
ENDBRANCH  26  27
ENDBRANCH  23  26
ENDBRANCH   2  22
BRANCH   6  33
HETATM   33  N   UNK N   1      22.677  13.085   1.752  0.00  0.00    -0.337 N 
HETATM   34  C   UNK N   1      23.287  13.130   0.615  0.00  0.00     0.140 C 
ATOM     35  HN  UNK N   1      22.322  12.183   2.066  1.00  0.00     0.168 HD
BRANCH  34  36
HETATM   36  C   UNK N   1      23.419  11.878  -0.185  0.00  0.00     0.251 C 
BRANCH  36  37
HETATM   37  O   UNK N   1      23.359  10.762   0.650  0.00  0.00    -0.388 OA
HETATM   38  C   UNK N   1      23.936   9.733  -0.094  0.00  0.00     0.202 C 
ENDBRANCH  36  37
ENDBRANCH  34  36
BRANCH  34  39
HETATM   39  O   UNK N   1      23.754  14.296   0.117  0.00  0.00    -0.348 OA
HETATM   40  H   UNK N   1      24.488  14.824   0.363  0.00  0.00     0.219 HD
ENDBRANCH  34  39
ENDBRANCH   6  33
TORSDOF 17
ENDMDL
MODEL 4
REMARK VINA RESULT:      -5.5      7.786     10.677
REMARK  17 active torsions:
REMARK  status: ('A' for Active; 'I' for Inactive)
REMARK    1  A    between atoms: C_8  and  C_3 
REMARK    2  A    between atoms: N_22  and  C_3 
REMARK    3  A    between atoms: C_9  and  C_4 
REMARK    4  A    between atoms: N_26  and  C_4 
REMARK    5  A    between atoms: C_8  and  C_5 
REMARK    6  A    between atoms: O_27  and  C_5 
REMARK    7  A    between atoms: C_9  and  C_6 
REMARK    8  A    between atoms: O_28  and  C_6 
REMARK    9  A    between atoms: C_10  and  C_7 
REMARK   10  A    between atoms: O_34  and  C_7 
REMARK   11  A    between atoms: O_29  and  C_8 
REMARK   12  A    between atoms: O_30  and  C_9 
REMARK   13  A    between atoms: O_31  and  C_10 
REMARK   14  A    between atoms: C_17  and  C_11 
REMARK   15  A    between atoms: C_18  and  C_12 
REMARK   16  A    between atoms: N_24  and  C_16 
REMARK   17  A    between atoms: O_32  and  C_17 
REMARK       I    between atoms: N_26  and  C_18 
ROOT
HETATM    1  C   UNK N   1      21.229  16.020   4.321  0.00  0.00     0.051 A 
HETATM    2  C   UNK N   1      22.556  14.556   5.802  0.00  0.00     0.068 A 
HETATM    3  C   UNK N   1      21.379  14.798   5.043  0.00  0.00     0.039 A 
HETATM    4  C   UNK N   1      22.253  17.004   4.410  0.00  0.00     0.050 A 
HETATM    5  C   UNK N   1      23.604  15.504   5.772  0.00  0.00     0.051 A 
HETATM    6  C   UNK N   1      23.453  16.713   5.092  0.00  0.00     0.069 A 
HETATM    7  I   UNK N   1      19.823  13.311   5.013  0.00  0.00    -0.042 I 
HETATM    8  I   UNK N   1      21.941  19.024   3.717  0.00  0.00    -0.041 I 
HETATM    9  I   UNK N   1      25.531  15.115   6.656  0.00  0.00    -0.041 I 
ENDROOT
BRANCH   1  10
HETATM   10  C   UNK N   1      19.981  16.278   3.518  0.00  0.00     0.149 C 
HETATM   11  N   UNK N   1      19.895  16.028   2.248  0.00  0.00    -0.368 N 
ATOM     12  HN  UNK N   1      19.036  16.296   1.770  1.00  0.00     0.161 HD
BRANCH  11  13
HETATM   13  C   UNK N   1      20.936  15.396   1.460  0.00  0.00     0.155 C 
BRANCH  13  14
HETATM   14  C   UNK N   1      20.670  13.908   1.183  0.00  0.00     0.159 C 
BRANCH  14  15
HETATM   15  C   UNK N   1      19.325  13.610   0.525  0.00  0.00     0.197 C 
BRANCH  15  16
HETATM   16  O   UNK N   1      18.290  13.846   1.430  0.00  0.00    -0.398 OA
HETATM   17  H   UNK N   1      18.055  14.756   1.672  0.00  0.00     0.209 HD
ENDBRANCH  15  16
ENDBRANCH  14  15
BRANCH  14  18
HETATM   18  O   UNK N   1      21.700  13.395   0.392  0.00  0.00    -0.392 OA
HETATM   19  H   UNK N   1      22.618  13.381   0.703  0.00  0.00     0.210 HD
ENDBRANCH  14  18
ENDBRANCH  13  14
ENDBRANCH  11  13
BRANCH  10  20
HETATM   20  O   UNK N   1      18.882  16.737   4.145  0.00  0.00    -0.346 OA
HETATM   21  H   UNK N   1      18.067  17.012   3.771  0.00  0.00     0.219 HD
ENDBRANCH  10  20
ENDBRANCH   1  10
BRANCH   2  22
HETATM   22  C   UNK N   1      22.728  13.295   6.595  0.00  0.00     0.256 C 
HETATM   23  N   UNK N   1      22.369  13.215   7.919  0.00  0.00    -0.350 N 
HETATM   24  C   UNK N   1      21.602  14.284   8.534  0.00  0.00     0.153 C 
HETATM   25  O   UNK N   1      23.204  12.311   6.042  0.00  0.00    -0.267 OA
BRANCH  23  26
HETATM   26  C   UNK N   1      22.682  12.007   8.674  0.00  0.00     0.159 C 
BRANCH  26  27
HETATM   27  C   UNK N   1      23.160  12.214  10.120  0.00  0.00     0.159 C 
BRANCH  27  28
HETATM   28  C   UNK N   1      24.644  12.528  10.206  0.00  0.00     0.197 C 
BRANCH  28  29
HETATM   29  O   UNK N   1      25.072  12.421  11.530  0.00  0.00    -0.398 OA
HETATM   30  H   UNK N   1      25.428  13.181  12.015  0.00  0.00     0.209 HD
ENDBRANCH  28  29
ENDBRANCH  27  28
BRANCH  27  31
HETATM   31  O   UNK N   1      22.831  11.124  10.932  0.00  0.00    -0.392 OA
HETATM   32  H   UNK N   1      22.589  11.266  11.860  0.00  0.00     0.210 HD
ENDBRANCH  27  31
ENDBRANCH  26  27
ENDBRANCH  23  26
ENDBRANCH   2  22
BRANCH   6  33
HETATM   33  N   UNK N   1      24.533  17.640   5.139  0.00  0.00    -0.337 N 
HETATM   34  C   UNK N   1      25.436  17.752   4.223  0.00  0.00     0.140 C 
ATOM     35  HN  UNK N   1      24.597  18.256   5.948  1.00  0.00     0.168 HD
BRANCH  34  36
HETATM   36  C   UNK N   1      26.530  18.751   4.404  0.00  0.00     0.251 C 
BRANCH  36  37
HETATM   37  O   UNK N   1      27.282  18.444   5.538  0.00  0.00    -0.388 OA
HETATM   38  C   UNK N   1      28.465  17.897   5.040  0.00  0.00     0.202 C 
ENDBRANCH  36  37
ENDBRANCH  34  36
BRANCH  34  39
HETATM   39  O   UNK N   1      25.437  16.946   3.139  0.00  0.00    -0.348 OA
HETATM   40  H   UNK N   1      26.108  16.747   2.516  0.00  0.00     0.219 HD
ENDBRANCH  34  39
ENDBRANCH   6  33
TORSDOF 17
ENDMDL
MODEL 5
REMARK VINA RESULT:      -5.4      7.369     12.021
REMARK  17 active torsions:
REMARK  status: ('A' for Active; 'I' for Inactive)
REMARK    1  A    between atoms: C_8  and  C_3 
REMARK    2  A    between atoms: N_22  and  C_3 
REMARK    3  A    between atoms: C_9  and  C_4 
REMARK    4  A    between atoms: N_26  and  C_4 
REMARK    5  A    between atoms: C_8  and  C_5 
REMARK    6  A    between atoms: O_27  and  C_5 
REMARK    7  A    between atoms: C_9  and  C_6 
REMARK    8  A    between atoms: O_28  and  C_6 
REMARK    9  A    between atoms: C_10  and  C_7 
REMARK   10  A    between atoms: O_34  and  C_7 
REMARK   11  A    between atoms: O_29  and  C_8 
REMARK   12  A    between atoms: O_30  and  C_9 
REMARK   13  A    between atoms: O_31  and  C_10 
REMARK   14  A    between atoms: C_17  and  C_11 
REMARK   15  A    between atoms: C_18  and  C_12 
REMARK   16  A    between atoms: N_24  and  C_16 
REMARK   17  A    between atoms: O_32  and  C_17 
REMARK       I    between atoms: N_26  and  C_18 
ROOT
HETATM    1  C   UNK N   1      22.217  14.240   5.683  0.00  0.00     0.051 A 
HETATM    2  C   UNK N   1      22.090  16.453   4.595  0.00  0.00     0.068 A 
HETATM    3  C   UNK N   1      21.445  15.334   5.189  0.00  0.00     0.039 A 
HETATM    4  C   UNK N   1      23.631  14.268   5.531  0.00  0.00     0.050 A 
HETATM    5  C   UNK N   1      23.503  16.502   4.567  0.00  0.00     0.051 A 
HETATM    6  C   UNK N   1      24.263  15.423   5.022  0.00  0.00     0.069 A 
HETATM    7  I   UNK N   1      19.297  15.304   5.316  0.00  0.00    -0.042 I 
HETATM    8  I   UNK N   1      24.837  12.508   5.850  0.00  0.00    -0.041 I 
HETATM    9  I   UNK N   1      24.580  18.262   3.946  0.00  0.00    -0.041 I 
ENDROOT
BRANCH   1  10
HETATM   10  C   UNK N   1      21.534  13.053   6.312  0.00  0.00     0.149 C 
HETATM   11  N   UNK N   1      21.322  12.955   7.587  0.00  0.00    -0.368 N 
ATOM     12  HN  UNK N   1      20.914  12.088   7.934  1.00  0.00     0.161 HD
BRANCH  11  13
HETATM   13  C   UNK N   1      21.625  13.992   8.555  0.00  0.00     0.155 C 
BRANCH  13  14
HETATM   14  C   UNK N   1      22.189  13.446   9.876  0.00  0.00     0.159 C 
BRANCH  14  15
HETATM   15  C   UNK N   1      21.188  12.668  10.726  0.00  0.00     0.197 C 
BRANCH  15  16
HETATM   16  O   UNK N   1      19.886  13.009  10.360  0.00  0.00    -0.398 OA
HETATM   17  H   UNK N   1      19.141  12.762  10.931  0.00  0.00     0.209 HD
ENDBRANCH  15  16
ENDBRANCH  14  15
BRANCH  14  18
HETATM   18  O   UNK N   1      23.297  12.640   9.607  0.00  0.00    -0.392 OA
HETATM   19  H   UNK N   1      23.571  11.936  10.216  0.00  0.00     0.210 HD
ENDBRANCH  14  18
ENDBRANCH  13  14
ENDBRANCH  11  13
BRANCH  10  20
HETATM   20  O   UNK N   1      21.070  12.069   5.518  0.00  0.00    -0.346 OA
HETATM   21  H   UNK N   1      20.290  11.559   5.616  0.00  0.00     0.219 HD
ENDBRANCH  10  20
ENDBRANCH   1  10
BRANCH   2  22
HETATM   22  C   UNK N   1      21.305  17.602   4.039  0.00  0.00     0.256 C 
HETATM   23  N   UNK N   1      20.849  17.612   2.744  0.00  0.00    -0.350 N 
HETATM   24  C   UNK N   1      20.922  16.409   1.934  0.00  0.00     0.153 C 
HETATM   25  O   UNK N   1      21.065  18.559   4.767  0.00  0.00    -0.267 OA
BRANCH  23  26
HETATM   26  C   UNK N   1      20.207  18.812   2.219  0.00  0.00     0.159 C 
BRANCH  26  27
HETATM   27  C   UNK N   1      21.118  19.801   1.473  0.00  0.00     0.159 C 
BRANCH  27  28
HETATM   28  C   UNK N   1      21.353  21.083   2.254  0.00  0.00     0.197 C 
BRANCH  28  29
HETATM   29  O   UNK N   1      20.559  21.086   3.402  0.00  0.00    -0.398 OA
HETATM   30  H   UNK N   1      19.591  21.069   3.353  0.00  0.00     0.209 HD
ENDBRANCH  28  29
ENDBRANCH  27  28
BRANCH  27  31
HETATM   31  O   UNK N   1      20.636  20.077   0.190  0.00  0.00    -0.392 OA
HETATM   32  H   UNK N   1      19.999  19.477  -0.228  0.00  0.00     0.210 HD
ENDBRANCH  27  31
ENDBRANCH  26  27
ENDBRANCH  23  26
ENDBRANCH   2  22
BRANCH   6  33
HETATM   33  N   UNK N   1      25.680  15.523   4.927  0.00  0.00    -0.337 N 
HETATM   34  C   UNK N   1      26.460  15.780   5.922  0.00  0.00     0.140 C 
ATOM     35  HN  UNK N   1      26.106  15.381   4.011  1.00  0.00     0.168 HD
BRANCH  34  36
HETATM   36  C   UNK N   1      27.930  15.879   5.682  0.00  0.00     0.251 C 
BRANCH  36  37
HETATM   37  O   UNK N   1      28.461  16.963   6.379  0.00  0.00    -0.388 OA
HETATM   38  C   UNK N   1      28.439  18.017   5.465  0.00  0.00     0.202 C 
ENDBRANCH  36  37
ENDBRANCH  34  36
BRANCH  34  39
HETATM   39  O   UNK N   1      25.966  16.014   7.157  0.00  0.00    -0.348 OA
HETATM   40  H   UNK N   1      25.086  16.015   7.482  0.00  0.00     0.219 HD
ENDBRANCH  34  39
ENDBRANCH   6  33
TORSDOF 17
ENDMDL
MODEL 6
REMARK VINA RESULT:      -5.4      2.857      5.770
REMARK  17 active torsions:
REMARK  status: ('A' for Active; 'I' for Inactive)
REMARK    1  A    between atoms: C_8  and  C_3 
REMARK    2  A    between atoms: N_22  and  C_3 
REMARK    3  A    between atoms: C_9  and  C_4 
REMARK    4  A    between atoms: N_26  and  C_4 
REMARK    5  A    between atoms: C_8  and  C_5 
REMARK    6  A    between atoms: O_27  and  C_5 
REMARK    7  A    between atoms: C_9  and  C_6 
REMARK    8  A    between atoms: O_28  and  C_6 
REMARK    9  A    between atoms: C_10  and  C_7 
REMARK   10  A    between atoms: O_34  and  C_7 
REMARK   11  A    between atoms: O_29  and  C_8 
REMARK   12  A    between atoms: O_30  and  C_9 
REMARK   13  A    between atoms: O_31  and  C_10 
REMARK   14  A    between atoms: C_17  and  C_11 
REMARK   15  A    between atoms: C_18  and  C_12 
REMARK   16  A    between atoms: N_24  and  C_16 
REMARK   17  A    between atoms: O_32  and  C_17 
REMARK       I    between atoms: N_26  and  C_18 
ROOT
HETATM    1  C   UNK N   1      33.683  16.384   7.661  0.00  0.00     0.051 A 
HETATM    2  C   UNK N   1      34.510  14.133   8.251  0.00  0.00     0.068 A 
HETATM    3  C   UNK N   1      34.334  15.505   8.578  0.00  0.00     0.039 A 
HETATM    4  C   UNK N   1      33.257  15.876   6.403  0.00  0.00     0.050 A 
HETATM    5  C   UNK N   1      33.969  13.636   7.043  0.00  0.00     0.051 A 
HETATM    6  C   UNK N   1      33.357  14.495   6.129  0.00  0.00     0.069 A 
HETATM    7  I   UNK N   1      35.076  16.240  10.460  0.00  0.00    -0.042 I 
HETATM    8  I   UNK N   1      32.659  17.189   4.798  0.00  0.00    -0.041 I 
HETATM    9  I   UNK N   1      33.936  11.532   6.578  0.00  0.00    -0.041 I 
ENDROOT
BRANCH   1  10
HETATM   10  C   UNK N   1      33.498  17.838   8.007  0.00  0.00     0.149 C 
HETATM   11  N   UNK N   1      32.372  18.325   8.430  0.00  0.00    -0.368 N 
ATOM     12  HN  UNK N   1      32.317  19.332   8.577  1.00  0.00     0.161 HD
BRANCH  11  13
HETATM   13  C   UNK N   1      31.187  17.537   8.709  0.00  0.00     0.155 C 
BRANCH  13  14
HETATM   14  C   UNK N   1      29.937  18.390   8.976  0.00  0.00     0.159 C 
BRANCH  14  15
HETATM   15  C   UNK N   1      28.623  17.757   8.529  0.00  0.00     0.197 C 
BRANCH  15  16
HETATM   16  O   UNK N   1      27.581  18.192   9.349  0.00  0.00    -0.398 OA
HETATM   17  H   UNK N   1      27.172  17.580   9.981  0.00  0.00     0.209 HD
ENDBRANCH  15  16
ENDBRANCH  14  15
BRANCH  14  18
HETATM   18  O   UNK N   1      29.869  18.696  10.337  0.00  0.00    -0.392 OA
HETATM   19  H   UNK N   1      29.057  19.046  10.736  0.00  0.00     0.210 HD
ENDBRANCH  14  18
ENDBRANCH  13  14
ENDBRANCH  11  13
BRANCH  10  20
HETATM   20  O   UNK N   1      34.554  18.670   7.929  0.00  0.00    -0.346 OA
HETATM   21  H   UNK N   1      35.374  18.533   7.496  0.00  0.00     0.219 HD
ENDBRANCH  10  20
ENDBRANCH   1  10
BRANCH   2  22
HETATM   22  C   UNK N   1      35.217  13.193   9.180  0.00  0.00     0.256 C 
HETATM   23  N   UNK N   1      36.552  12.901   9.042  0.00  0.00    -0.350 N 
HETATM   24  C   UNK N   1      37.377  13.669   8.125  0.00  0.00     0.153 C 
HETATM   25  O   UNK N   1      34.580  12.672  10.088  0.00  0.00    -0.267 OA
BRANCH  23  26
HETATM   26  C   UNK N   1      37.154  11.880   9.892  0.00  0.00     0.159 C 
BRANCH  26  27
HETATM   27  C   UNK N   1      37.827  12.378  11.182  0.00  0.00     0.159 C 
BRANCH  27  28
HETATM   28  C   UNK N   1      37.125  11.884  12.435  0.00  0.00     0.197 C 
BRANCH  28  29
HETATM   29  O   UNK N   1      35.974  12.642  12.659  0.00  0.00    -0.398 OA
HETATM   30  H   UNK N   1      35.291  12.359  13.286  0.00  0.00     0.209 HD
ENDBRANCH  28  29
ENDBRANCH  27  28
BRANCH  27  31
HETATM   31  O   UNK N   1      37.951  13.771  11.192  0.00  0.00    -0.392 OA
HETATM   32  H   UNK N   1      38.054  14.255  10.358  0.00  0.00     0.210 HD
ENDBRANCH  27  31
ENDBRANCH  26  27
ENDBRANCH  23  26
ENDBRANCH   2  22
BRANCH   6  33
HETATM   33  N   UNK N   1      32.871  13.934   4.913  0.00  0.00    -0.337 N 
HETATM   34  C   UNK N   1      31.642  13.601   4.706  0.00  0.00     0.140 C 
ATOM     35  HN  UNK N   1      33.539  13.786   4.157  1.00  0.00     0.168 HD
BRANCH  34  36
HETATM   36  C   UNK N   1      31.267  13.001   3.392  0.00  0.00     0.251 C 
BRANCH  36  37
HETATM   37  O   UNK N   1      32.063  13.526   2.376  0.00  0.00    -0.388 OA
HETATM   38  C   UNK N   1      32.372  12.433   1.567  0.00  0.00     0.202 C 
ENDBRANCH  36  37
ENDBRANCH  34  36
BRANCH  34  39
HETATM   39  O   UNK N   1      30.708  13.736   5.672  0.00  0.00    -0.348 OA
HETATM   40  H   UNK N   1      30.726  14.189   6.493  0.00  0.00     0.219 HD
ENDBRANCH  34  39
ENDBRANCH   6  33
TORSDOF 17
ENDMDL
MODEL 7
REMARK VINA RESULT:      -5.3      2.422      5.714
REMARK  17 active torsions:
REMARK  status: ('A' for Active; 'I' for Inactive)
REMARK    1  A    between atoms: C_8  and  C_3 
REMARK    2  A    between atoms: N_22  and  C_3 
REMARK    3  A    between atoms: C_9  and  C_4 
REMARK    4  A    between atoms: N_26  and  C_4 
REMARK    5  A    between atoms: C_8  and  C_5 
REMARK    6  A    between atoms: O_27  and  C_5 
REMARK    7  A    between atoms: C_9  and  C_6 
REMARK    8  A    between atoms: O_28  and  C_6 
REMARK    9  A    between atoms: C_10  and  C_7 
REMARK   10  A    between atoms: O_34  and  C_7 
REMARK   11  A    between atoms: O_29  and  C_8 
REMARK   12  A    between atoms: O_30  and  C_9 
REMARK   13  A    between atoms: O_31  and  C_10 
REMARK   14  A    between atoms: C_17  and  C_11 
REMARK   15  A    between atoms: C_18  and  C_12 
REMARK   16  A    between atoms: N_24  and  C_16 
REMARK   17  A    between atoms: O_32  and  C_17 
REMARK       I    between atoms: N_26  and  C_18 
ROOT
HETATM    1  C   UNK N   1      28.902  16.827   6.382  0.00  0.00     0.051 A 
HETATM    2  C   UNK N   1      31.342  16.640   6.712  0.00  0.00     0.068 A 
HETATM    3  C   UNK N   1      30.075  17.122   7.140  0.00  0.00     0.039 A 
HETATM    4  C   UNK N   1      29.028  16.085   5.176  0.00  0.00     0.050 A 
HETATM    5  C   UNK N   1      31.415  15.805   5.574  0.00  0.00     0.051 A 
HETATM    6  C   UNK N   1      30.277  15.537   4.812  0.00  0.00     0.069 A 
HETATM    7  I   UNK N   1      29.953  18.315   8.927  0.00  0.00    -0.042 I 
HETATM    8  I   UNK N   1      27.408  15.952   3.757  0.00  0.00    -0.041 I 
HETATM    9  I   UNK N   1      33.233  14.798   5.001  0.00  0.00    -0.041 I 
ENDROOT
BRANCH   1  10
HETATM   10  C   UNK N   1      27.559  17.340   6.834  0.00  0.00     0.149 C 
HETATM   11  N   UNK N   1      27.126  18.529   6.548  0.00  0.00    -0.368 N 
ATOM     12  HN  UNK N   1      26.235  18.817   6.950  1.00  0.00     0.161 HD
BRANCH  11  13
HETATM   13  C   UNK N   1      27.819  19.476   5.696  0.00  0.00     0.155 C 
BRANCH  13  14
HETATM   14  C   UNK N   1      26.913  20.604   5.177  0.00  0.00     0.159 C 
BRANCH  14  15
HETATM   15  C   UNK N   1      25.858  20.162   4.166  0.00  0.00     0.197 C 
BRANCH  15  16
HETATM   16  O   UNK N   1      24.933  19.318   4.781  0.00  0.00    -0.398 OA
HETATM   17  H   UNK N   1      25.091  18.360   4.805  0.00  0.00     0.209 HD
ENDBRANCH  15  16
ENDBRANCH  14  15
BRANCH  14  18
HETATM   18  O   UNK N   1      26.290  21.230   6.258  0.00  0.00    -0.392 OA
HETATM   19  H   UNK N   1      26.579  21.072   7.170  0.00  0.00     0.210 HD
ENDBRANCH  14  18
ENDBRANCH  13  14
ENDBRANCH  11  13
BRANCH  10  20
HETATM   20  O   UNK N   1      26.741  16.519   7.520  0.00  0.00    -0.346 OA
HETATM   21  H   UNK N   1      26.177  15.848   7.189  0.00  0.00     0.219 HD
ENDBRANCH  10  20
ENDBRANCH   1  10
BRANCH   2  22
HETATM   22  C   UNK N   1      32.596  16.959   7.470  0.00  0.00     0.256 C 
HETATM   23  N   UNK N   1      32.986  16.232   8.568  0.00  0.00    -0.350 N 
HETATM   24  C   UNK N   1      32.313  14.988   8.898  0.00  0.00     0.153 C 
HETATM   25  O   UNK N   1      33.288  17.897   7.094  0.00  0.00    -0.267 OA
BRANCH  23  26
HETATM   26  C   UNK N   1      34.142  16.669   9.343  0.00  0.00     0.159 C 
BRANCH  26  27
HETATM   27  C   UNK N   1      34.998  15.558   9.974  0.00  0.00     0.159 C 
BRANCH  27  28
HETATM   28  C   UNK N   1      35.800  16.046  11.168  0.00  0.00     0.197 C 
BRANCH  28  29
HETATM   29  O   UNK N   1      37.158  16.056  10.850  0.00  0.00    -0.398 OA
HETATM   30  H   UNK N   1      37.837  16.252  11.514  0.00  0.00     0.209 HD
ENDBRANCH  28  29
ENDBRANCH  27  28
BRANCH  27  31
HETATM   31  O   UNK N   1      35.827  14.948   9.028  0.00  0.00    -0.392 OA
HETATM   32  H   UNK N   1      35.801  13.986   8.909  0.00  0.00     0.210 HD
ENDBRANCH  27  31
ENDBRANCH  26  27
ENDBRANCH  23  26
ENDBRANCH   2  22
BRANCH   6  33
HETATM   33  N   UNK N   1      30.430  14.722   3.654  0.00  0.00    -0.337 N 
HETATM   34  C   UNK N   1      30.250  13.444   3.634  0.00  0.00     0.140 C 
ATOM     35  HN  UNK N   1      30.699  15.179   2.783  1.00  0.00     0.168 HD
BRANCH  34  36
HETATM   36  C   UNK N   1      30.465  12.704   2.356  0.00  0.00     0.251 C 
BRANCH  36  37
HETATM   37  O   UNK N   1      31.345  11.641   2.557  0.00  0.00    -0.388 OA
HETATM   38  C   UNK N   1      32.566  12.093   2.057  0.00  0.00     0.202 C 
ENDBRANCH  36  37
ENDBRANCH  34  36
BRANCH  34  39
HETATM   39  O   UNK N   1      29.927  12.765   4.756  0.00  0.00    -0.348 OA
HETATM   40  H   UNK N   1      30.052  11.867   4.994  0.00  0.00     0.219 HD
ENDBRANCH  34  39
ENDBRANCH   6  33
TORSDOF 17
ENDMDL
MODEL 8
REMARK VINA RESULT:      -5.1      1.356      2.677
REMARK  17 active torsions:
REMARK  status: ('A' for Active; 'I' for Inactive)
REMARK    1  A    between atoms: C_8  and  C_3 
REMARK    2  A    between atoms: N_22  and  C_3 
REMARK    3  A    between atoms: C_9  and  C_4 
REMARK    4  A    between atoms: N_26  and  C_4 
REMARK    5  A    between atoms: C_8  and  C_5 
REMARK    6  A    between atoms: O_27  and  C_5 
REMARK    7  A    between atoms: C_9  and  C_6 
REMARK    8  A    between atoms: O_28  and  C_6 
REMARK    9  A    between atoms: C_10  and  C_7 
REMARK   10  A    between atoms: O_34  and  C_7 
REMARK   11  A    between atoms: O_29  and  C_8 
REMARK   12  A    between atoms: O_30  and  C_9 
REMARK   13  A    between atoms: O_31  and  C_10 
REMARK   14  A    between atoms: C_17  and  C_11 
REMARK   15  A    between atoms: C_18  and  C_12 
REMARK   16  A    between atoms: N_24  and  C_16 
REMARK   17  A    between atoms: O_32  and  C_17 
REMARK       I    between atoms: N_26  and  C_18 
ROOT
HETATM    1  C   UNK N   1      32.012  15.341   5.042  0.00  0.00     0.051 A 
HETATM    2  C   UNK N   1      32.172  16.038   7.406  0.00  0.00     0.068 A 
HETATM    3  C   UNK N   1      32.647  15.256   6.318  0.00  0.00     0.039 A 
HETATM    4  C   UNK N   1      30.876  16.183   4.891  0.00  0.00     0.050 A 
HETATM    5  C   UNK N   1      31.116  16.953   7.190  0.00  0.00     0.051 A 
HETATM    6  C   UNK N   1      30.472  17.020   5.953  0.00  0.00     0.069 A 
HETATM    7  I   UNK N   1      34.316  13.932   6.624  0.00  0.00    -0.042 I 
HETATM    8  I   UNK N   1      29.604  16.063   3.153  0.00  0.00    -0.041 I 
HETATM    9  I   UNK N   1      30.505  18.377   8.688  0.00  0.00    -0.041 I 
ENDROOT
BRANCH   1  10
HETATM   10  C   UNK N   1      32.514  14.511   3.889  0.00  0.00     0.149 C 
HETATM   11  N   UNK N   1      32.124  13.292   3.676  0.00  0.00    -0.368 N 
ATOM     12  HN  UNK N   1      32.564  12.781   2.911  1.00  0.00     0.161 HD
BRANCH  11  13
HETATM   13  C   UNK N   1      31.106  12.605   4.447  0.00  0.00     0.155 C 
BRANCH  13  14
HETATM   14  C   UNK N   1      31.327  11.087   4.532  0.00  0.00     0.159 C 
BRANCH  14  15
HETATM   15  C   UNK N   1      32.690  10.669   5.077  0.00  0.00     0.197 C 
BRANCH  15  16
HETATM   16  O   UNK N   1      33.663  10.813   4.087  0.00  0.00    -0.398 OA
HETATM   17  H   UNK N   1      33.873  10.068   3.501  0.00  0.00     0.209 HD
ENDBRANCH  15  16
ENDBRANCH  14  15
BRANCH  14  18
HETATM   18  O   UNK N   1      30.319  10.517   5.313  0.00  0.00    -0.392 OA
HETATM   19  H   UNK N   1      29.925  10.995   6.058  0.00  0.00     0.210 HD
ENDBRANCH  14  18
ENDBRANCH  13  14
ENDBRANCH  11  13
BRANCH  10  20
HETATM   20  O   UNK N   1      33.363  15.065   3.004  0.00  0.00    -0.346 OA
HETATM   21  H   UNK N   1      33.897  14.639   2.362  0.00  0.00     0.219 HD
ENDBRANCH  10  20
ENDBRANCH   1  10
BRANCH   2  22
HETATM   22  C   UNK N   1      32.798  15.947   8.765  0.00  0.00     0.256 C 
HETATM   23  N   UNK N   1      33.922  16.663   9.096  0.00  0.00    -0.350 N 
HETATM   24  C   UNK N   1      34.413  17.705   8.211  0.00  0.00     0.153 C 
HETATM   25  O   UNK N   1      32.287  15.210   9.601  0.00  0.00    -0.267 OA
BRANCH  23  26
HETATM   26  C   UNK N   1      34.563  16.434  10.387  0.00  0.00     0.159 C 
BRANCH  26  27
HETATM   27  C   UNK N   1      35.758  15.467  10.391  0.00  0.00     0.159 C 
BRANCH  27  28
HETATM   28  C   UNK N   1      35.444  14.153  11.086  0.00  0.00     0.197 C 
BRANCH  28  29
HETATM   29  O   UNK N   1      34.187  14.228  11.688  0.00  0.00    -0.398 OA
HETATM   30  H   UNK N   1      33.468  14.752  11.303  0.00  0.00     0.209 HD
ENDBRANCH  28  29
ENDBRANCH  27  28
BRANCH  27  31
HETATM   31  O   UNK N   1      36.899  16.063  10.935  0.00  0.00    -0.392 OA
HETATM   32  H   UNK N   1      37.745  15.588  10.927  0.00  0.00     0.210 HD
ENDBRANCH  27  31
ENDBRANCH  26  27
ENDBRANCH  23  26
ENDBRANCH   2  22
BRANCH   6  33
HETATM   33  N   UNK N   1      29.389  17.934   5.818  0.00  0.00    -0.337 N 
HETATM   34  C   UNK N   1      28.164  17.662   6.119  0.00  0.00     0.140 C 
ATOM     35  HN  UNK N   1      29.595  18.866   5.459  1.00  0.00     0.168 HD
BRANCH  34  36
HETATM   36  C   UNK N   1      27.118  18.704   5.909  0.00  0.00     0.251 C 
BRANCH  36  37
HETATM   37  O   UNK N   1      27.428  19.854   6.635  0.00  0.00    -0.388 OA
HETATM   38  C   UNK N   1      27.186  20.906   5.751  0.00  0.00     0.202 C 
ENDBRANCH  36  37
ENDBRANCH  34  36
BRANCH  34  39
HETATM   39  O   UNK N   1      27.810  16.437   6.566  0.00  0.00    -0.348 OA
HETATM   40  H   UNK N   1      28.186  15.591   6.420  0.00  0.00     0.219 HD
ENDBRANCH  34  39
ENDBRANCH   6  33
TORSDOF 17
ENDMDL
MODEL 9
REMARK VINA RESULT:      -5.0      9.778     12.204
REMARK  17 active torsions:
REMARK  status: ('A' for Active; 'I' for Inactive)
REMARK    1  A    between atoms: C_8  and  C_3 
REMARK    2  A    between atoms: N_22  and  C_3 
REMARK    3  A    between atoms: C_9  and  C_4 
REMARK    4  A    between atoms: N_26  and  C_4 
REMARK    5  A    between atoms: C_8  and  C_5 
REMARK    6  A    between atoms: O_27  and  C_5 
REMARK    7  A    between atoms: C_9  and  C_6 
REMARK    8  A    between atoms: O_28  and  C_6 
REMARK    9  A    between atoms: C_10  and  C_7 
REMARK   10  A    between atoms: O_34  and  C_7 
REMARK   11  A    between atoms: O_29  and  C_8 
REMARK   12  A    between atoms: O_30  and  C_9 
REMARK   13  A    between atoms: O_31  and  C_10 
REMARK   14  A    between atoms: C_17  and  C_11 
REMARK   15  A    between atoms: C_18  and  C_12 
REMARK   16  A    between atoms: N_24  and  C_16 
REMARK   17  A    between atoms: O_32  and  C_17 
REMARK       I    between atoms: N_26  and  C_18 
ROOT
HETATM    1  C   UNK N   1      21.308  13.010   3.903  0.00  0.00     0.051 A 
HETATM    2  C   UNK N   1      20.778  15.334   4.546  0.00  0.00     0.068 A 
HETATM    3  C   UNK N   1      20.909  14.332   3.546  0.00  0.00     0.039 A 
HETATM    4  C   UNK N   1      21.614  12.725   5.263  0.00  0.00     0.050 A 
HETATM    5  C   UNK N   1      20.975  14.987   5.902  0.00  0.00     0.051 A 
HETATM    6  C   UNK N   1      21.394  13.703   6.256  0.00  0.00     0.069 A 
HETATM    7  I   UNK N   1      20.517  14.840   1.491  0.00  0.00    -0.042 I 
HETATM    8  I   UNK N   1      22.621  10.905   5.837  0.00  0.00    -0.041 I 
HETATM    9  I   UNK N   1      20.535  16.350   7.513  0.00  0.00    -0.041 I 
ENDROOT
BRANCH   1  10
HETATM   10  C   UNK N   1      21.449  11.948   2.844  0.00  0.00     0.149 C 
HETATM   11  N   UNK N   1      22.527  11.792   2.140  0.00  0.00    -0.368 N 
ATOM     12  HN  UNK N   1      22.512  11.092   1.399  1.00  0.00     0.161 HD
BRANCH  11  13
HETATM   13  C   UNK N   1      23.753  12.543   2.333  0.00  0.00     0.155 C 
BRANCH  13  14
HETATM   14  C   UNK N   1      24.298  13.163   1.037  0.00  0.00     0.159 C 
BRANCH  14  15
HETATM   15  C   UNK N   1      23.537  12.772  -0.227  0.00  0.00     0.197 C 
BRANCH  15  16
HETATM   16  O   UNK N   1      23.720  11.415  -0.493  0.00  0.00    -0.398 OA
HETATM   17  H   UNK N   1      23.799  11.106  -1.410  0.00  0.00     0.209 HD
ENDBRANCH  15  16
ENDBRANCH  14  15
BRANCH  14  18
HETATM   18  O   UNK N   1      24.312  14.553   1.161  0.00  0.00    -0.392 OA
HETATM   19  H   UNK N   1      23.668  15.109   0.696  0.00  0.00     0.210 HD
ENDBRANCH  14  18
ENDBRANCH  13  14
ENDBRANCH  11  13
BRANCH  10  20
HETATM   20  O   UNK N   1      20.437  11.081   2.647  0.00  0.00    -0.346 OA
HETATM   21  H   UNK N   1      20.482  10.171   2.428  0.00  0.00     0.219 HD
ENDBRANCH  10  20
ENDBRANCH   1  10
BRANCH   2  22
HETATM   22  C   UNK N   1      20.391  16.740   4.197  0.00  0.00     0.256 C 
HETATM   23  N   UNK N   1      21.329  17.717   3.968  0.00  0.00    -0.350 N 
HETATM   24  C   UNK N   1      22.732  17.366   3.838  0.00  0.00     0.153 C 
HETATM   25  O   UNK N   1      19.200  17.020   4.114  0.00  0.00    -0.267 OA
BRANCH  23  26
HETATM   26  C   UNK N   1      20.894  19.094   3.764  0.00  0.00     0.159 C 
BRANCH  26  27
HETATM   27  C   UNK N   1      20.642  19.519   2.307  0.00  0.00     0.159 C 
BRANCH  27  28
HETATM   28  C   UNK N   1      20.822  21.012   2.095  0.00  0.00     0.197 C 
BRANCH  28  29
HETATM   29  O   UNK N   1      21.919  21.463   2.828  0.00  0.00    -0.398 OA
HETATM   30  H   UNK N   1      22.006  22.389   3.101  0.00  0.00     0.209 HD
ENDBRANCH  28  29
ENDBRANCH  27  28
BRANCH  27  31
HETATM   31  O   UNK N   1      19.389  19.094   1.857  0.00  0.00    -0.392 OA
HETATM   32  H   UNK N   1      18.740  19.744   1.543  0.00  0.00     0.210 HD
ENDBRANCH  27  31
ENDBRANCH  26  27
ENDBRANCH  23  26
ENDBRANCH   2  22
BRANCH   6  33
HETATM   33  N   UNK N   1      21.613  13.434   7.637  0.00  0.00    -0.337 N 
HETATM   34  C   UNK N   1      22.730  13.639   8.250  0.00  0.00     0.140 C 
ATOM     35  HN  UNK N   1      20.836  13.055   8.177  1.00  0.00     0.168 HD
BRANCH  34  36
HETATM   36  C   UNK N   1      22.835  13.292   9.697  0.00  0.00     0.251 C 
BRANCH  36  37
HETATM   37  O   UNK N   1      21.578  13.344  10.299  0.00  0.00    -0.388 OA
HETATM   38  C   UNK N   1      21.515  12.194  11.086  0.00  0.00     0.202 C 
ENDBRANCH  36  37
ENDBRANCH  34  36
BRANCH  34  39
HETATM   39  O   UNK N   1      23.813  14.107   7.593  0.00  0.00    -0.348 OA
HETATM   40  H   UNK N   1      24.010  14.956   7.249  0.00  0.00     0.219 HD
ENDBRANCH  34  39
ENDBRANCH   6  33
TORSDOF 17
ENDMDL
