MODEL 1
REMARK VINA RESULT:      -8.2      0.000      0.000
REMARK  7 active torsions:
REMARK  status: ('A' for Active; 'I' for Inactive)
REMARK    1  A    between atoms: C_1  and  O_11 
REMARK    2  A    between atoms: O_11  and  C_12 
REMARK    3  A    between atoms: C_12  and  C_13 
REMARK    4  A    between atoms: C_13  and  C_14 
REMARK    5  A    between atoms: C_14  and  C_15 
REMARK    6  A    between atoms: C_15  and  N_16 
REMARK    7  A    between atoms: N_19  and  C_22 
ROOT
HETATM    1  C   UNK N   1      36.733  13.353  10.650  0.00  0.00     0.032 C 
ENDROOT
BRANCH   1   2
HETATM    2  C   UNK N   1      36.883  14.778  10.110  0.00  0.00     0.272 C 
BRANCH   2   3
HETATM    3  N   UNK N   1      35.727  15.286   9.360  0.00  0.00     0.091 N 
HETATM    4  C   UNK N   1      35.115  16.429  10.027  0.00  0.00     0.292 C 
HETATM    5  C   UNK N   1      34.251  17.159   9.016  0.00  0.00     0.153 C 
HETATM    6  N   UNK N   1      33.544  16.231   8.147  0.00  0.00    -0.377 N 
HETATM    7  C   UNK N   1      33.389  14.847   8.576  0.00  0.00     0.153 C 
HETATM    8  C   UNK N   1      34.729  14.248   9.063  0.00  0.00     0.292 C 
BRANCH   6   9
HETATM    9  C   UNK N   1      32.936  16.689   6.928  0.00  0.00     0.042 A 
HETATM   10  C   UNK N   1      31.542  16.937   6.810  0.00  0.00     0.008 A 
HETATM   11  C   UNK N   1      31.014  17.361   5.594  0.00  0.00     0.017 A 
HETATM   12  C   UNK N   1      30.551  16.820   7.831  0.00  0.00     0.022 A 
HETATM   13  C   UNK N   1      31.789  17.558   4.461  0.00  0.00     0.020 A 
HETATM   14  S   UNK N   1      29.392  17.569   5.794  0.00  0.00    -0.101 SA
HETATM   15  C   UNK N   1      33.166  17.327   4.561  0.00  0.00     0.004 A 
HETATM   16  C   UNK N   1      33.734  16.903   5.780  0.00  0.00     0.030 A 
HETATM   17  C   UNK N   1      29.254  17.151   7.401  0.00  0.00     0.051 A 
ENDBRANCH   6   9
ENDBRANCH   2   3
ENDBRANCH   1   2
BRANCH   1  18
HETATM   18  C   UNK N   1      36.709  13.310  12.177  0.00  0.00     0.028 C 
BRANCH  18  19
HETATM   19  C   UNK N   1      35.436  13.916  12.785  0.00  0.00     0.175 C 
BRANCH  19  20
HETATM   20  O   UNK N   1      34.526  12.950  13.170  0.00  0.00    -0.351 OA
BRANCH  20  21
HETATM   21  C   UNK N   1      34.626  12.273  14.341  0.00  0.00     0.070 A 
HETATM   22  C   UNK N   1      34.906  12.944  15.545  0.00  0.00     0.067 A 
HETATM   23  C   UNK N   1      35.018  12.230  16.736  0.00  0.00     0.048 A 
HETATM   24  C   UNK N   1      34.857  10.830  16.734  0.00  0.00    -0.009 A 
HETATM   25  N   UNK N   1      35.279  12.884  17.900  0.00  0.00    -0.323 N 
HETATM   26  C   UNK N   1      34.584  10.160  15.538  0.00  0.00     0.016 A 
HETATM   27  C   UNK N   1      34.970  10.127  17.932  0.00  0.00     0.019 A 
HETATM   28  C   UNK N   1      34.466  10.883  14.345  0.00  0.00     0.038 A 
HETATM   29  C   UNK N   1      35.237  10.817  19.117  0.00  0.00     0.075 A 
HETATM   30  C   UNK N   1      35.389  12.206  19.086  0.00  0.00     0.245 A 
HETATM   31  O   UNK N   1      35.616  12.816  20.115  0.00  0.00    -0.268 OA
HETATM   32  H   UNK N   1      35.390  13.863  17.891  0.00  0.00     0.169 HD
ENDBRANCH  20  21
ENDBRANCH  19  20
ENDBRANCH  18  19
ENDBRANCH   1  18
TORSDOF 7
ENDMDL
MODEL 2
REMARK VINA RESULT:      -8.1      1.224      2.392
REMARK  7 active torsions:
REMARK  status: ('A' for Active; 'I' for Inactive)
REMARK    1  A    between atoms: C_1  and  O_11 
REMARK    2  A    between atoms: O_11  and  C_12 
REMARK    3  A    between atoms: C_12  and  C_13 
REMARK    4  A    between atoms: C_13  and  C_14 
REMARK    5  A    between atoms: C_14  and  C_15 
REMARK    6  A    between atoms: C_15  and  N_16 
REMARK    7  A    between atoms: N_19  and  C_22 
ROOT
HETATM    1  C   UNK N   1      35.545  15.498  11.554  0.00  0.00     0.032 C 
ENDROOT
BRANCH   1   2
HETATM    2  C   UNK N   1      35.404  15.208  10.057  0.00  0.00     0.272 C 
BRANCH   2   3
HETATM    3  N   UNK N   1      34.225  15.803   9.415  0.00  0.00     0.091 N 
HETATM    4  C   UNK N   1      33.769  15.004   8.284  0.00  0.00     0.292 C 
HETATM    5  C   UNK N   1      32.343  15.407   7.964  0.00  0.00     0.153 C 
HETATM    6  N   UNK N   1      32.150  16.843   8.094  0.00  0.00    -0.377 N 
HETATM    7  C   UNK N   1      33.319  17.713   8.070  0.00  0.00     0.153 C 
HETATM    8  C   UNK N   1      34.425  17.207   9.026  0.00  0.00     0.292 C 
BRANCH   6   9
HETATM    9  C   UNK N   1      30.827  17.401   8.159  0.00  0.00     0.042 A 
HETATM   10  C   UNK N   1      29.993  17.537   7.017  0.00  0.00     0.008 A 
HETATM   11  C   UNK N   1      28.729  18.104   7.146  0.00  0.00     0.017 A 
HETATM   12  C   UNK N   1      30.284  17.136   5.678  0.00  0.00     0.022 A 
HETATM   13  C   UNK N   1      28.223  18.557   8.355  0.00  0.00     0.020 A 
HETATM   14  S   UNK N   1      28.022  18.105   5.658  0.00  0.00    -0.101 SA
HETATM   15  C   UNK N   1      29.028  18.422   9.493  0.00  0.00     0.004 A 
HETATM   16  C   UNK N   1      30.310  17.846   9.399  0.00  0.00     0.030 A 
HETATM   17  C   UNK N   1      29.242  17.396   4.771  0.00  0.00     0.051 A 
ENDBRANCH   6   9
ENDBRANCH   2   3
ENDBRANCH   1   2
BRANCH   1  18
HETATM   18  C   UNK N   1      36.267  14.376  12.297  0.00  0.00     0.028 C 
BRANCH  18  19
HETATM   19  C   UNK N   1      35.551  13.020  12.200  0.00  0.00     0.175 C 
BRANCH  19  20
HETATM   20  O   UNK N   1      34.509  12.910  13.101  0.00  0.00    -0.351 OA
BRANCH  20  21
HETATM   21  C   UNK N   1      34.630  12.262  14.285  0.00  0.00     0.070 A 
HETATM   22  C   UNK N   1      34.868  12.967  15.478  0.00  0.00     0.067 A 
HETATM   23  C   UNK N   1      35.002  12.281  16.684  0.00  0.00     0.048 A 
HETATM   24  C   UNK N   1      34.904  10.876  16.708  0.00  0.00    -0.009 A 
HETATM   25  N   UNK N   1      35.222  12.969  17.837  0.00  0.00    -0.323 N 
HETATM   26  C   UNK N   1      34.672  10.172  15.523  0.00  0.00     0.016 A 
HETATM   27  C   UNK N   1      35.038  10.201  17.920  0.00  0.00     0.019 A 
HETATM   28  C   UNK N   1      34.532  10.865  14.315  0.00  0.00     0.038 A 
HETATM   29  C   UNK N   1      35.263  10.926  19.094  0.00  0.00     0.075 A 
HETATM   30  C   UNK N   1      35.352  12.319  19.037  0.00  0.00     0.245 A 
HETATM   31  O   UNK N   1      35.543  12.958  20.056  0.00  0.00    -0.268 OA
HETATM   32  H   UNK N   1      35.289  13.951  17.810  0.00  0.00     0.169 HD
ENDBRANCH  20  21
ENDBRANCH  19  20
ENDBRANCH  18  19
ENDBRANCH   1  18
TORSDOF 7
ENDMDL
MODEL 3
REMARK VINA RESULT:      -7.7      1.397      2.084
REMARK  7 active torsions:
REMARK  status: ('A' for Active; 'I' for Inactive)
REMARK    1  A    between atoms: C_1  and  O_11 
REMARK    2  A    between atoms: O_11  and  C_12 
REMARK    3  A    between atoms: C_12  and  C_13 
REMARK    4  A    between atoms: C_13  and  C_14 
REMARK    5  A    between atoms: C_14  and  C_15 
REMARK    6  A    between atoms: C_15  and  N_16 
REMARK    7  A    between atoms: N_19  and  C_22 
ROOT
HETATM    1  C   UNK N   1      35.383  14.072  10.464  0.00  0.00     0.032 C 
ENDROOT
BRANCH   1   2
HETATM    2  C   UNK N   1      35.017  15.558  10.423  0.00  0.00     0.272 C 
BRANCH   2   3
HETATM    3  N   UNK N   1      34.114  15.947   9.333  0.00  0.00     0.091 N 
HETATM    4  C   UNK N   1      34.042  14.918   8.302  0.00  0.00     0.292 C 
HETATM    5  C   UNK N   1      32.799  15.169   7.470  0.00  0.00     0.153 C 
HETATM    6  N   UNK N   1      32.587  16.588   7.237  0.00  0.00    -0.377 N 
HETATM    7  C   UNK N   1      33.708  17.504   7.411  0.00  0.00     0.153 C 
HETATM    8  C   UNK N   1      34.441  17.259   8.751  0.00  0.00     0.292 C 
BRANCH   6   9
HETATM    9  C   UNK N   1      31.319  17.071   6.763  0.00  0.00     0.042 A 
HETATM   10  C   UNK N   1      30.327  17.604   7.630  0.00  0.00     0.008 A 
HETATM   11  C   UNK N   1      29.112  18.037   7.109  0.00  0.00     0.017 A 
HETATM   12  C   UNK N   1      30.416  17.781   9.044  0.00  0.00     0.022 A 
HETATM   13  C   UNK N   1      28.803  17.975   5.758  0.00  0.00     0.020 A 
HETATM   14  S   UNK N   1      28.200  18.604   8.358  0.00  0.00    -0.101 SA
HETATM   15  C   UNK N   1      29.772  17.461   4.889  0.00  0.00     0.004 A 
HETATM   16  C   UNK N   1      31.016  17.020   5.382  0.00  0.00     0.030 A 
HETATM   17  C   UNK N   1      29.264  18.350   9.615  0.00  0.00     0.051 A 
ENDBRANCH   6   9
ENDBRANCH   2   3
ENDBRANCH   1   2
BRANCH   1  18
HETATM   18  C   UNK N   1      36.867  13.847  10.752  0.00  0.00     0.028 C 
BRANCH  18  19
HETATM   19  C   UNK N   1      37.126  13.068  12.050  0.00  0.00     0.175 C 
BRANCH  19  20
HETATM   20  O   UNK N   1      36.505  13.643  13.142  0.00  0.00    -0.351 OA
BRANCH  20  21
HETATM   21  C   UNK N   1      36.307  12.978  14.306  0.00  0.00     0.070 A 
HETATM   22  C   UNK N   1      35.914  13.658  15.473  0.00  0.00     0.067 A 
HETATM   23  C   UNK N   1      35.728  12.958  16.664  0.00  0.00     0.048 A 
HETATM   24  C   UNK N   1      35.940  11.566  16.701  0.00  0.00    -0.009 A 
HETATM   25  N   UNK N   1      35.339  13.619  17.788  0.00  0.00    -0.323 N 
HETATM   26  C   UNK N   1      36.334  10.888  15.544  0.00  0.00     0.016 A 
HETATM   27  C   UNK N   1      35.748  10.877  17.898  0.00  0.00     0.019 A 
HETATM   28  C   UNK N   1      36.515  11.594  14.349  0.00  0.00     0.038 A 
HETATM   29  C   UNK N   1      35.347  11.573  19.041  0.00  0.00     0.075 A 
HETATM   30  C   UNK N   1      35.143  12.953  18.970  0.00  0.00     0.245 A 
HETATM   31  O   UNK N   1      34.789  13.567  19.960  0.00  0.00    -0.268 OA
HETATM   32  H   UNK N   1      35.194  14.593  17.751  0.00  0.00     0.169 HD
ENDBRANCH  20  21
ENDBRANCH  19  20
ENDBRANCH  18  19
ENDBRANCH   1  18
TORSDOF 7
ENDMDL
MODEL 4
REMARK VINA RESULT:      -7.7     18.561     22.213
REMARK  7 active torsions:
REMARK  status: ('A' for Active; 'I' for Inactive)
REMARK    1  A    between atoms: C_1  and  O_11 
REMARK    2  A    between atoms: O_11  and  C_12 
REMARK    3  A    between atoms: C_12  and  C_13 
REMARK    4  A    between atoms: C_13  and  C_14 
REMARK    5  A    between atoms: C_14  and  C_15 
REMARK    6  A    between atoms: C_15  and  N_16 
REMARK    7  A    between atoms: N_19  and  C_22 
ROOT
HETATM    1  C   UNK N   1      27.882  29.739  -5.420  0.00  0.00     0.032 C 
ENDROOT
BRANCH   1   2
HETATM    2  C   UNK N   1      29.198  29.408  -4.710  0.00  0.00     0.272 C 
BRANCH   2   3
HETATM    3  N   UNK N   1      29.609  28.000  -4.785  0.00  0.00     0.091 N 
HETATM    4  C   UNK N   1      31.061  27.866  -4.805  0.00  0.00     0.292 C 
HETATM    5  C   UNK N   1      31.409  26.436  -4.436  0.00  0.00     0.153 C 
HETATM    6  N   UNK N   1      30.481  25.488  -5.032  0.00  0.00    -0.377 N 
HETATM    7  C   UNK N   1      29.676  25.914  -6.170  0.00  0.00     0.153 C 
HETATM    8  C   UNK N   1      28.993  27.276  -5.907  0.00  0.00     0.292 C 
BRANCH   6   9
HETATM    9  C   UNK N   1      30.419  24.131  -4.562  0.00  0.00     0.042 A 
HETATM   10  C   UNK N   1      30.469  23.012  -5.437  0.00  0.00     0.008 A 
HETATM   11  C   UNK N   1      30.384  21.724  -4.919  0.00  0.00     0.017 A 
HETATM   12  C   UNK N   1      30.619  23.028  -6.857  0.00  0.00     0.022 A 
HETATM   13  C   UNK N   1      30.248  21.461  -3.564  0.00  0.00     0.020 A 
HETATM   14  S   UNK N   1      30.486  20.666  -6.178  0.00  0.00    -0.101 SA
HETATM   15  C   UNK N   1      30.206  22.551  -2.687  0.00  0.00     0.004 A 
HETATM   16  C   UNK N   1      30.296  23.869  -3.178  0.00  0.00     0.030 A 
HETATM   17  C   UNK N   1      30.646  21.747  -7.436  0.00  0.00     0.051 A 
ENDBRANCH   6   9
ENDBRANCH   2   3
ENDBRANCH   1   2
BRANCH   1  18
HETATM   18  C   UNK N   1      26.775  30.125  -4.441  0.00  0.00     0.028 C 
BRANCH  18  19
HETATM   19  C   UNK N   1      26.529  29.071  -3.351  0.00  0.00     0.175 C 
BRANCH  19  20
HETATM   20  O   UNK N   1      25.546  28.167  -3.706  0.00  0.00    -0.351 OA
BRANCH  20  21
HETATM   21  C   UNK N   1      25.825  26.959  -4.255  0.00  0.00     0.070 A 
HETATM   22  C   UNK N   1      25.428  26.649  -5.568  0.00  0.00     0.067 A 
HETATM   23  C   UNK N   1      25.712  25.398  -6.111  0.00  0.00     0.048 A 
HETATM   24  C   UNK N   1      26.395  24.436  -5.339  0.00  0.00    -0.009 A 
HETATM   25  N   UNK N   1      25.334  25.106  -7.384  0.00  0.00    -0.323 N 
HETATM   26  C   UNK N   1      26.788  24.740  -4.032  0.00  0.00     0.016 A 
HETATM   27  C   UNK N   1      26.676  23.189  -5.894  0.00  0.00     0.019 A 
HETATM   28  C   UNK N   1      26.504  26.001  -3.494  0.00  0.00     0.038 A 
HETATM   29  C   UNK N   1      26.280  22.909  -7.204  0.00  0.00     0.075 A 
HETATM   30  C   UNK N   1      25.607  23.885  -7.943  0.00  0.00     0.245 A 
HETATM   31  O   UNK N   1      25.263  23.651  -9.088  0.00  0.00    -0.268 OA
HETATM   32  H   UNK N   1      24.856  25.785  -7.915  0.00  0.00     0.169 HD
ENDBRANCH  20  21
ENDBRANCH  19  20
ENDBRANCH  18  19
ENDBRANCH   1  18
TORSDOF 7
ENDMDL
MODEL 5
REMARK VINA RESULT:      -7.6      4.220     11.522
REMARK  7 active torsions:
REMARK  status: ('A' for Active; 'I' for Inactive)
REMARK    1  A    between atoms: C_1  and  O_11 
REMARK    2  A    between atoms: O_11  and  C_12 
REMARK    3  A    between atoms: C_12  and  C_13 
REMARK    4  A    between atoms: C_13  and  C_14 
REMARK    5  A    between atoms: C_14  and  C_15 
REMARK    6  A    between atoms: C_15  and  N_16 
REMARK    7  A    between atoms: N_19  and  C_22 
ROOT
HETATM    1  C   UNK N   1      37.207  13.241  10.714  0.00  0.00     0.032 C 
ENDROOT
BRANCH   1   2
HETATM    2  C   UNK N   1      35.942  12.513  11.180  0.00  0.00     0.272 C 
BRANCH   2   3
HETATM    3  N   UNK N   1      35.869  12.253  12.623  0.00  0.00     0.091 N 
HETATM    4  C   UNK N   1      37.040  11.525  13.097  0.00  0.00     0.292 C 
HETATM    5  C   UNK N   1      37.117  11.684  14.604  0.00  0.00     0.153 C 
HETATM    6  N   UNK N   1      35.800  11.622  15.217  0.00  0.00    -0.377 N 
HETATM    7  C   UNK N   1      34.704  11.021  14.467  0.00  0.00     0.153 C 
HETATM    8  C   UNK N   1      34.625  11.579  13.027  0.00  0.00     0.292 C 
BRANCH   6   9
HETATM    9  C   UNK N   1      35.599  12.068  16.569  0.00  0.00     0.042 A 
HETATM   10  C   UNK N   1      35.503  11.172  17.667  0.00  0.00     0.008 A 
HETATM   11  C   UNK N   1      35.290  11.669  18.949  0.00  0.00     0.017 A 
HETATM   12  C   UNK N   1      35.618   9.749  17.638  0.00  0.00     0.022 A 
HETATM   13  C   UNK N   1      35.159  13.021  19.224  0.00  0.00     0.020 A 
HETATM   14  S   UNK N   1      35.242  10.388  19.985  0.00  0.00    -0.101 SA
HETATM   15  C   UNK N   1      35.261  13.919  18.155  0.00  0.00     0.004 A 
HETATM   16  C   UNK N   1      35.484  13.450  16.845  0.00  0.00     0.030 A 
HETATM   17  C   UNK N   1      35.489   9.146  18.902  0.00  0.00     0.051 A 
ENDBRANCH   6   9
ENDBRANCH   2   3
ENDBRANCH   1   2
BRANCH   1  18
HETATM   18  C   UNK N   1      36.906  14.635  10.167  0.00  0.00     0.028 C 
BRANCH  18  19
HETATM   19  C   UNK N   1      35.615  14.700   9.337  0.00  0.00     0.175 C 
BRANCH  19  20
HETATM   20  O   UNK N   1      35.222  15.998   9.077  0.00  0.00    -0.351 OA
BRANCH  20  21
HETATM   21  C   UNK N   1      34.584  16.355   7.935  0.00  0.00     0.070 A 
HETATM   22  C   UNK N   1      34.737  15.607   6.753  0.00  0.00     0.067 A 
HETATM   23  C   UNK N   1      34.083  15.997   5.586  0.00  0.00     0.048 A 
HETATM   24  C   UNK N   1      33.270  17.148   5.587  0.00  0.00    -0.009 A 
HETATM   25  N   UNK N   1      34.227  15.265   4.449  0.00  0.00    -0.323 N 
HETATM   26  C   UNK N   1      33.118  17.895   6.759  0.00  0.00     0.016 A 
HETATM   27  C   UNK N   1      32.619  17.526   4.414  0.00  0.00     0.019 A 
HETATM   28  C   UNK N   1      33.773  17.496   7.931  0.00  0.00     0.038 A 
HETATM   29  C   UNK N   1      32.779  16.761   3.256  0.00  0.00     0.075 A 
HETATM   30  C   UNK N   1      33.590  15.624   3.289  0.00  0.00     0.245 A 
HETATM   31  O   UNK N   1      33.731  14.948   2.285  0.00  0.00    -0.268 OA
HETATM   32  H   UNK N   1      34.799  14.463   4.458  0.00  0.00     0.169 HD
ENDBRANCH  20  21
ENDBRANCH  19  20
ENDBRANCH  18  19
ENDBRANCH   1  18
TORSDOF 7
ENDMDL
MODEL 6
REMARK VINA RESULT:      -7.4      4.152     10.019
REMARK  7 active torsions:
REMARK  status: ('A' for Active; 'I' for Inactive)
REMARK    1  A    between atoms: C_1  and  O_11 
REMARK    2  A    between atoms: O_11  and  C_12 
REMARK    3  A    between atoms: C_12  and  C_13 
REMARK    4  A    between atoms: C_13  and  C_14 
REMARK    5  A    between atoms: C_14  and  C_15 
REMARK    6  A    between atoms: C_15  and  N_16 
REMARK    7  A    between atoms: N_19  and  C_22 
ROOT
HETATM    1  C   UNK N   1      34.523  13.775   7.607  0.00  0.00     0.032 C 
ENDROOT
BRANCH   1   2
HETATM    2  C   UNK N   1      35.973  13.811   8.096  0.00  0.00     0.272 C 
BRANCH   2   3
HETATM    3  N   UNK N   1      36.140  13.770   9.555  0.00  0.00     0.091 N 
HETATM    4  C   UNK N   1      36.347  15.103  10.108  0.00  0.00     0.292 C 
HETATM    5  C   UNK N   1      36.066  15.046  11.598  0.00  0.00     0.153 C 
HETATM    6  N   UNK N   1      36.568  13.817  12.191  0.00  0.00    -0.377 N 
HETATM    7  C   UNK N   1      37.584  13.055  11.473  0.00  0.00     0.153 C 
HETATM    8  C   UNK N   1      37.197  12.845   9.991  0.00  0.00     0.292 C 
BRANCH   6   9
HETATM    9  C   UNK N   1      36.135  13.403  13.497  0.00  0.00     0.042 A 
HETATM   10  C   UNK N   1      35.252  12.310  13.703  0.00  0.00     0.008 A 
HETATM   11  C   UNK N   1      34.856  11.973  14.994  0.00  0.00     0.017 A 
HETATM   12  C   UNK N   1      34.695  11.446  12.712  0.00  0.00     0.022 A 
HETATM   13  C   UNK N   1      35.281  12.663  16.119  0.00  0.00     0.020 A 
HETATM   14  S   UNK N   1      33.856  10.668  14.890  0.00  0.00    -0.101 SA
HETATM   15  C   UNK N   1      36.158  13.738  15.935  0.00  0.00     0.004 A 
HETATM   16  C   UNK N   1      36.585  14.101  14.642  0.00  0.00     0.030 A 
HETATM   17  C   UNK N   1      33.863  10.443  13.239  0.00  0.00     0.051 A 
ENDBRANCH   6   9
ENDBRANCH   2   3
ENDBRANCH   1   2
BRANCH   1  18
HETATM   18  C   UNK N   1      34.249  14.817   6.524  0.00  0.00     0.028 C 
BRANCH  18  19
HETATM   19  C   UNK N   1      34.693  16.234   6.915  0.00  0.00     0.175 C 
BRANCH  19  20
HETATM   20  O   UNK N   1      34.024  17.211   6.202  0.00  0.00    -0.351 OA
BRANCH  20  21
HETATM   21  C   UNK N   1      32.671  17.293   6.165  0.00  0.00     0.070 A 
HETATM   22  C   UNK N   1      31.910  17.283   7.348  0.00  0.00     0.067 A 
HETATM   23  C   UNK N   1      30.520  17.355   7.289  0.00  0.00     0.048 A 
HETATM   24  C   UNK N   1      29.872  17.432   6.040  0.00  0.00    -0.009 A 
HETATM   25  N   UNK N   1      29.789  17.355   8.437  0.00  0.00    -0.323 N 
HETATM   26  C   UNK N   1      30.626  17.438   4.862  0.00  0.00     0.016 A 
HETATM   27  C   UNK N   1      28.481  17.506   5.994  0.00  0.00     0.019 A 
HETATM   28  C   UNK N   1      32.022  17.371   4.927  0.00  0.00     0.038 A 
HETATM   29  C   UNK N   1      27.749  17.506   7.184  0.00  0.00     0.075 A 
HETATM   30  C   UNK N   1      28.421  17.431   8.406  0.00  0.00     0.245 A 
HETATM   31  O   UNK N   1      27.790  17.435   9.448  0.00  0.00    -0.268 OA
HETATM   32  H   UNK N   1      30.251  17.301   9.305  0.00  0.00     0.169 HD
ENDBRANCH  20  21
ENDBRANCH  19  20
ENDBRANCH  18  19
ENDBRANCH   1  18
TORSDOF 7
ENDMDL
MODEL 7
REMARK VINA RESULT:      -7.4      1.998      2.687
REMARK  7 active torsions:
REMARK  status: ('A' for Active; 'I' for Inactive)
REMARK    1  A    between atoms: C_1  and  O_11 
REMARK    2  A    between atoms: O_11  and  C_12 
REMARK    3  A    between atoms: C_12  and  C_13 
REMARK    4  A    between atoms: C_13  and  C_14 
REMARK    5  A    between atoms: C_14  and  C_15 
REMARK    6  A    between atoms: C_15  and  N_16 
REMARK    7  A    between atoms: N_19  and  C_22 
ROOT
HETATM    1  C   UNK N   1      35.077  13.940  11.040  0.00  0.00     0.032 C 
ENDROOT
BRANCH   1   2
HETATM    2  C   UNK N   1      35.385  15.358  10.552  0.00  0.00     0.272 C 
BRANCH   2   3
HETATM    3  N   UNK N   1      34.707  15.751   9.310  0.00  0.00     0.091 N 
HETATM    4  C   UNK N   1      34.665  17.200   9.157  0.00  0.00     0.292 C 
HETATM    5  C   UNK N   1      34.374  17.514   7.701  0.00  0.00     0.153 C 
HETATM    6  N   UNK N   1      33.398  16.594   7.139  0.00  0.00    -0.377 N 
HETATM    7  C   UNK N   1      32.545  15.835   8.046  0.00  0.00     0.153 C 
HETATM    8  C   UNK N   1      33.366  15.163   9.172  0.00  0.00     0.292 C 
BRANCH   6   9
HETATM    9  C   UNK N   1      33.219  16.495   5.717  0.00  0.00     0.042 A 
HETATM   10  C   UNK N   1      33.799  15.457   4.940  0.00  0.00     0.008 A 
HETATM   11  C   UNK N   1      33.602  15.430   3.562  0.00  0.00     0.017 A 
HETATM   12  C   UNK N   1      34.589  14.362   5.406  0.00  0.00     0.022 A 
HETATM   13  C   UNK N   1      32.856  16.384   2.886  0.00  0.00     0.020 A 
HETATM   14  S   UNK N   1      34.384  14.108   2.967  0.00  0.00    -0.101 SA
HETATM   15  C   UNK N   1      32.271  17.410   3.638  0.00  0.00     0.004 A 
HETATM   16  C   UNK N   1      32.444  17.463   5.035  0.00  0.00     0.030 A 
HETATM   17  C   UNK N   1      35.005  13.491   4.384  0.00  0.00     0.051 A 
ENDBRANCH   6   9
ENDBRANCH   2   3
ENDBRANCH   1   2
BRANCH   1  18
HETATM   18  C   UNK N   1      36.262  12.993  10.858  0.00  0.00     0.028 C 
BRANCH  18  19
HETATM   19  C   UNK N   1      36.988  12.664  12.170  0.00  0.00     0.175 C 
BRANCH  19  20
HETATM   20  O   UNK N   1      36.432  11.580  12.822  0.00  0.00    -0.351 OA
BRANCH  20  21
HETATM   21  C   UNK N   1      36.156  11.586  14.149  0.00  0.00     0.070 A 
HETATM   22  C   UNK N   1      36.008  12.793  14.855  0.00  0.00     0.067 A 
HETATM   23  C   UNK N   1      35.738  12.779  16.222  0.00  0.00     0.048 A 
HETATM   24  C   UNK N   1      35.618  11.551  16.902  0.00  0.00    -0.009 A 
HETATM   25  N   UNK N   1      35.586  13.950  16.898  0.00  0.00    -0.323 N 
HETATM   26  C   UNK N   1      35.769  10.349  16.204  0.00  0.00     0.016 A 
HETATM   27  C   UNK N   1      35.346  11.549  18.269  0.00  0.00     0.019 A 
HETATM   28  C   UNK N   1      36.035  10.368  14.829  0.00  0.00     0.038 A 
HETATM   29  C   UNK N   1      35.192  12.762  18.945  0.00  0.00     0.075 A 
HETATM   30  C   UNK N   1      35.314  13.963  18.241  0.00  0.00     0.245 A 
HETATM   31  O   UNK N   1      35.177  15.024  18.822  0.00  0.00    -0.268 OA
HETATM   32  H   UNK N   1      35.672  14.804  16.414  0.00  0.00     0.169 HD
ENDBRANCH  20  21
ENDBRANCH  19  20
ENDBRANCH  18  19
ENDBRANCH   1  18
TORSDOF 7
ENDMDL
MODEL 8
REMARK VINA RESULT:      -7.2      8.399     11.133
REMARK  7 active torsions:
REMARK  status: ('A' for Active; 'I' for Inactive)
REMARK    1  A    between atoms: C_1  and  O_11 
REMARK    2  A    between atoms: O_11  and  C_12 
REMARK    3  A    between atoms: C_12  and  C_13 
REMARK    4  A    between atoms: C_13  and  C_14 
REMARK    5  A    between atoms: C_14  and  C_15 
REMARK    6  A    between atoms: C_15  and  N_16 
REMARK    7  A    between atoms: N_19  and  C_22 
ROOT
HETATM    1  C   UNK N   1      24.465  16.488   4.738  0.00  0.00     0.032 C 
ENDROOT
BRANCH   1   2
HETATM    2  C   UNK N   1      25.175  17.824   4.978  0.00  0.00     0.272 C 
BRANCH   2   3
HETATM    3  N   UNK N   1      26.636  17.787   4.840  0.00  0.00     0.091 N 
HETATM    4  C   UNK N   1      27.150  19.010   4.237  0.00  0.00     0.292 C 
HETATM    5  C   UNK N   1      28.635  19.096   4.531  0.00  0.00     0.153 C 
HETATM    6  N   UNK N   1      29.276  17.794   4.435  0.00  0.00    -0.377 N 
HETATM    7  C   UNK N   1      28.601  16.732   3.699  0.00  0.00     0.153 C 
HETATM    8  C   UNK N   1      27.120  16.597   4.123  0.00  0.00     0.292 C 
BRANCH   6   9
HETATM    9  C   UNK N   1      30.588  17.581   4.983  0.00  0.00     0.042 A 
HETATM   10  C   UNK N   1      30.815  17.346   6.365  0.00  0.00     0.008 A 
HETATM   11  C   UNK N   1      32.112  17.167   6.834  0.00  0.00     0.017 A 
HETATM   12  C   UNK N   1      29.835  17.247   7.399  0.00  0.00     0.022 A 
HETATM   13  C   UNK N   1      33.226  17.208   6.009  0.00  0.00     0.020 A 
HETATM   14  S   UNK N   1      32.030  16.905   8.458  0.00  0.00    -0.101 SA
HETATM   15  C   UNK N   1      33.021  17.430   4.643  0.00  0.00     0.004 A 
HETATM   16  C   UNK N   1      31.719  17.609   4.134  0.00  0.00     0.030 A 
HETATM   17  C   UNK N   1      30.380  16.993   8.671  0.00  0.00     0.051 A 
ENDBRANCH   6   9
ENDBRANCH   2   3
ENDBRANCH   1   2
BRANCH   1  18
HETATM   18  C   UNK N   1      23.343  16.238   5.743  0.00  0.00     0.028 C 
BRANCH  18  19
HETATM   19  C   UNK N   1      22.434  15.060   5.363  0.00  0.00     0.175 C 
BRANCH  19  20
HETATM   20  O   UNK N   1      22.991  13.839   5.689  0.00  0.00    -0.351 OA
BRANCH  20  21
HETATM   21  C   UNK N   1      23.146  13.423   6.970  0.00  0.00     0.070 A 
HETATM   22  C   UNK N   1      22.034  13.233   7.811  0.00  0.00     0.067 A 
HETATM   23  C   UNK N   1      22.214  12.818   9.129  0.00  0.00     0.048 A 
HETATM   24  C   UNK N   1      23.514  12.592   9.624  0.00  0.00    -0.009 A 
HETATM   25  N   UNK N   1      21.135  12.627   9.935  0.00  0.00    -0.323 N 
HETATM   26  C   UNK N   1      24.621  12.784   8.792  0.00  0.00     0.016 A 
HETATM   27  C   UNK N   1      23.680  12.175  10.943  0.00  0.00     0.019 A 
HETATM   28  C   UNK N   1      24.435  13.196   7.467  0.00  0.00     0.038 A 
HETATM   29  C   UNK N   1      22.560  11.983  11.755  0.00  0.00     0.075 A 
HETATM   30  C   UNK N   1      21.284  12.213  11.234  0.00  0.00     0.245 A 
HETATM   31  O   UNK N   1      20.302  12.043  11.933  0.00  0.00    -0.268 OA
HETATM   32  H   UNK N   1      20.230  12.787   9.580  0.00  0.00     0.169 HD
ENDBRANCH  20  21
ENDBRANCH  19  20
ENDBRANCH  18  19
ENDBRANCH   1  18
TORSDOF 7
ENDMDL
MODEL 9
REMARK VINA RESULT:      -7.1      3.365      5.384
REMARK  7 active torsions:
REMARK  status: ('A' for Active; 'I' for Inactive)
REMARK    1  A    between atoms: C_1  and  O_11 
REMARK    2  A    between atoms: O_11  and  C_12 
REMARK    3  A    between atoms: C_12  and  C_13 
REMARK    4  A    between atoms: C_13  and  C_14 
REMARK    5  A    between atoms: C_14  and  C_15 
REMARK    6  A    between atoms: C_15  and  N_16 
REMARK    7  A    between atoms: N_19  and  C_22 
ROOT
HETATM    1  C   UNK N   1      33.931  16.740   7.194  0.00  0.00     0.032 C 
ENDROOT
BRANCH   1   2
HETATM    2  C   UNK N   1      33.583  17.532   5.931  0.00  0.00     0.272 C 
BRANCH   2   3
HETATM    3  N   UNK N   1      32.276  17.220   5.340  0.00  0.00     0.091 N 
HETATM    4  C   UNK N   1      31.772  15.932   5.801  0.00  0.00     0.292 C 
HETATM    5  C   UNK N   1      30.281  15.881   5.527  0.00  0.00     0.153 C 
HETATM    6  N   UNK N   1      29.951  16.489   4.247  0.00  0.00    -0.377 N 
HETATM    7  C   UNK N   1      31.006  16.654   3.256  0.00  0.00     0.153 C 
HETATM    8  C   UNK N   1      32.271  17.297   3.871  0.00  0.00     0.292 C 
BRANCH   6   9
HETATM    9  C   UNK N   1      28.593  16.843   3.934  0.00  0.00     0.042 A 
HETATM   10  C   UNK N   1      27.708  15.965   3.254  0.00  0.00     0.008 A 
HETATM   11  C   UNK N   1      26.411  16.377   2.963  0.00  0.00     0.017 A 
HETATM   12  C   UNK N   1      27.975  14.632   2.816  0.00  0.00     0.022 A 
HETATM   13  C   UNK N   1      25.921  17.628   3.305  0.00  0.00     0.020 A 
HETATM   14  S   UNK N   1      25.648  15.136   2.193  0.00  0.00    -0.101 SA
HETATM   15  C   UNK N   1      26.777  18.503   3.983  0.00  0.00     0.004 A 
HETATM   16  C   UNK N   1      28.094  18.115   4.299  0.00  0.00     0.030 A 
HETATM   17  C   UNK N   1      26.882  14.016   2.182  0.00  0.00     0.051 A 
ENDBRANCH   6   9
ENDBRANCH   2   3
ENDBRANCH   1   2
BRANCH   1  18
HETATM   18  C   UNK N   1      34.234  17.648   8.385  0.00  0.00     0.028 C 
BRANCH  18  19
HETATM   19  C   UNK N   1      34.989  16.939   9.518  0.00  0.00     0.175 C 
BRANCH  19  20
HETATM   20  O   UNK N   1      34.599  15.621   9.666  0.00  0.00    -0.351 OA
BRANCH  20  21
HETATM   21  C   UNK N   1      34.972  14.862  10.725  0.00  0.00     0.070 A 
HETATM   22  C   UNK N   1      35.642  15.428  11.825  0.00  0.00     0.067 A 
HETATM   23  C   UNK N   1      36.029  14.629  12.898  0.00  0.00     0.048 A 
HETATM   24  C   UNK N   1      35.753  13.247  12.881  0.00  0.00    -0.009 A 
HETATM   25  N   UNK N   1      36.668  15.183  13.964  0.00  0.00    -0.323 N 
HETATM   26  C   UNK N   1      35.091  12.680  11.787  0.00  0.00     0.016 A 
HETATM   27  C   UNK N   1      36.144  12.458  13.961  0.00  0.00     0.019 A 
HETATM   28  C   UNK N   1      34.700  13.489  10.713  0.00  0.00     0.038 A 
HETATM   29  C   UNK N   1      36.798  13.046  15.047  0.00  0.00     0.075 A 
HETATM   30  C   UNK N   1      37.054  14.419  15.035  0.00  0.00     0.245 A 
HETATM   31  O   UNK N   1      37.619  14.940  15.979  0.00  0.00    -0.268 OA
HETATM   32  H   UNK N   1      36.856  16.150  13.966  0.00  0.00     0.169 HD
ENDBRANCH  20  21
ENDBRANCH  19  20
ENDBRANCH  18  19
ENDBRANCH   1  18
TORSDOF 7
ENDMDL
