REMARK  9 active torsions:
REMARK  status: ('A' for Active; 'I' for Inactive)
REMARK    1  A    between atoms: N_19  and  C_4 
REMARK    2  A    between atoms: N_19  and  C_5 
REMARK    3  A    between atoms: C_7  and  C_6 
REMARK    4  A    between atoms: N_17  and  C_6 
REMARK    5  A    between atoms: N_19  and  C_7 
REMARK    6  A    between atoms: C_14  and  C_10 
REMARK    7  A    between atoms: N_16  and  C_12 
REMARK    8  A    between atoms: O_21  and  C_13 
REMARK    9  A    between atoms: O_20  and  C_14 
ROOT
HETATM    1  C   UNK N   1       3.141  -1.933   0.131  0.00  0.00     0.040 A 
HETATM    2  C   UNK N   1       5.633  -3.119  -0.160  0.00  0.00     0.068 A 
HETATM    3  C   UNK N   1       3.229  -3.330   0.254  0.00  0.00     0.049 A 
HETATM    4  C   UNK N   1       4.256  -1.140  -0.129  0.00  0.00     0.038 A 
HETATM    5  C   UNK N   1       5.512  -1.736  -0.258  0.00  0.00     0.046 A 
HETATM    6  C   UNK N   1       4.520  -3.935   0.075  0.00  0.00     0.085 A 
HETATM    7 Br   UNK N   1       4.037   0.754  -0.266  0.00  0.00    -0.049 Br
ENDROOT
BRANCH   3   8
HETATM    8  C   UNK N   1       2.001  -4.115   0.661  0.00  0.00     0.149 C 
HETATM    9  N   UNK N   1       0.808  -3.610   0.733  0.00  0.00    -0.369 N 
ATOM     10  HN  UNK N   1       0.076  -4.232   1.075  1.00  0.00     0.161 HD
BRANCH   9  11
HETATM   11  C   UNK N   1       0.396  -2.271   0.388  0.00  0.00     0.152 C 
BRANCH  11  12
HETATM   12  C   UNK N   1      -0.763  -2.325  -0.603  0.00  0.00     0.292 C 
BRANCH  12  13
HETATM   13  N   UNK N   1      -1.802  -3.227  -0.123  0.00  0.00     0.089 N 
BRANCH  13  14
HETATM   14  C   UNK N   1      -3.081  -2.702  -0.576  0.00  0.00     0.268 C 
HETATM   15  C   UNK N   1      -4.187  -3.156   0.359  0.00  0.00     0.037 C 
ENDBRANCH  13  14
BRANCH  13  16
HETATM   16  C   UNK N   1      -1.592  -4.513  -0.779  0.00  0.00     0.268 C 
HETATM   17  C   UNK N   1      -1.964  -5.644   0.161  0.00  0.00     0.037 C 
ENDBRANCH  13  16
ENDBRANCH  12  13
ENDBRANCH  11  12
ENDBRANCH   9  11
BRANCH   8  18
HETATM   18  O   UNK N   1       2.136  -5.396   1.041  0.00  0.00    -0.346 OA
HETATM   19  H   UNK N   1       1.410  -5.925   1.306  0.00  0.00     0.219 HD
ENDBRANCH   8  18
ENDBRANCH   3   8
BRANCH   6  20
HETATM   20  O   UNK N   1       4.747  -5.270   0.124  0.00  0.00    -0.355 OA
HETATM   21  C   UNK N   1       4.027  -6.190  -0.603  0.00  0.00     0.210 C 
ENDBRANCH   6  20
BRANCH   5  22
HETATM   22  N   UNK N   1       6.660  -0.950  -0.488  0.00  0.00    -0.398 N 
HETATM   23  H   UNK N   1       7.536  -1.370  -0.648  0.00  0.00     0.156 HD
HETATM   24  H   UNK N   1       6.585   0.031  -0.488  0.00  0.00     0.156 HD
ENDBRANCH   5  22
TORSDOF 9
