REMARK  5 active torsions:
REMARK  status: ('A' for Active; 'I' for Inactive)
REMARK    1  A    between atoms: C_14  and  O_24 
REMARK    2  A    between atoms: C_17  and  C_19 
REMARK    3  A    between atoms: C_17  and  O_23 
REMARK    4  A    between atoms: C_19  and  C_20 
REMARK    5  A    between atoms: C_20  and  S_22 
ROOT
HETATM    1  C   UNK N   1      13.967 -17.676   0.323  0.00  0.00     0.084 C 
HETATM    2  C   UNK N   1      14.138 -19.021  -0.336  0.00  0.00     0.149 C 
HETATM    3  C   UNK N   1      15.471 -19.656  -0.422  0.00  0.00     0.053 C 
HETATM    4  C   UNK N   1      16.587 -18.958  -0.154  0.00  0.00    -0.068 C 
HETATM    5  C   UNK N   1      16.495 -17.449   0.070  0.00  0.00    -0.014 C 
HETATM    6  C   UNK N   1      15.273 -17.169   0.961  0.00  0.00     0.022 C 
HETATM    7  C   UNK N   1      17.905 -19.690  -0.240  0.00  0.00     0.035 C 
HETATM    8  C   UNK N   1      19.149 -18.887   0.142  0.00  0.00     0.010 C 
HETATM    9  C   UNK N   1      19.016 -17.388  -0.121  0.00  0.00    -0.002 C 
HETATM   10  C   UNK N   1      17.798 -16.857   0.691  0.00  0.00     0.031 C 
HETATM   11  C   UNK N   1      20.302 -16.655   0.299  0.00  0.00     0.002 C 
HETATM   12  C   UNK N   1      20.162 -15.146   0.112  0.00  0.00     0.001 C 
HETATM   13  C   UNK N   1      19.090 -14.637   1.074  0.00  0.00     0.045 C 
HETATM   14  C   UNK N   1      17.746 -15.296   0.728  0.00  0.00     0.124 C 
HETATM   15  C   UNK N   1      21.566 -16.985  -0.491  0.00  0.00     0.009 C 
HETATM   16  C   UNK N   1      22.416 -15.698  -0.439  0.00  0.00     0.047 C 
HETATM   17  C   UNK N   1      21.601 -14.672   0.370  0.00  0.00     0.126 C 
HETATM   18  O   UNK N   1      13.164 -19.597  -0.792  0.00  0.00    -0.293 OA
HETATM   19  C   UNK N   1      16.250 -16.796  -1.300  0.00  0.00     0.020 C 
HETATM   20  C   UNK N   1      19.755 -14.781  -1.336  0.00  0.00     0.019 C 
ENDROOT
BRANCH  17  21
HETATM   21  C   UNK N   1      21.816 -13.219  -0.025  0.00  0.00     0.170 C 
HETATM   22  O   UNK N   1      21.201 -12.344   0.566  0.00  0.00    -0.294 OA
BRANCH  21  23
HETATM   23  C   UNK N   1      22.708 -12.822  -1.164  0.00  0.00     0.152 C 
BRANCH  23  24
HETATM   24  S   UNK N   1      24.456 -13.127  -0.780  0.00  0.00    -0.175 SA
HETATM   25  H   UNK N   1      24.913 -14.376  -0.493  0.00  0.00     0.102 HD
ENDBRANCH  23  24
ENDBRANCH  21  23
ENDBRANCH  17  21
BRANCH  17  26
HETATM   26  O   UNK N   1      21.940 -14.824   1.720  0.00  0.00    -0.381 OA
HETATM   27  H   UNK N   1      21.966 -15.079   2.655  0.00  0.00     0.211 HD
ENDBRANCH  17  26
BRANCH  14  28
HETATM   28  O   UNK N   1      16.773 -14.843   1.620  0.00  0.00    -0.395 OA
HETATM   29  H   UNK N   1      16.708 -14.100   2.240  0.00  0.00     0.210 HD
ENDBRANCH  14  28
TORSDOF 5
