MODEL 1
REMARK VINA RESULT:      -7.5      0.000      0.000
REMARK  2 active torsions:
REMARK  status: ('A' for Active; 'I' for Inactive)
REMARK    1  A    between atoms: C_15  and  C_20 
REMARK    2  A    between atoms: C_15  and  O_23 
ROOT
HETATM    1  C   UNK N   1      26.853  25.972  -2.949  0.00  0.00     0.162 C 
HETATM    2  C   UNK N   1      26.127  27.212  -3.160  0.00  0.00     0.062 C 
HETATM    3  N   UNK N   1      25.560  28.188  -3.331  0.00  0.00    -0.197 NA
ENDROOT
BRANCH   1   4
HETATM    4  C   UNK N   1      27.000  24.925  -4.102  0.00  0.00     0.077 C 
HETATM    5  C   UNK N   1      28.391  24.322  -3.986  0.00  0.00    -0.007 C 
HETATM    6  C   UNK N   1      28.647  23.553  -2.702  0.00  0.00     0.017 C 
HETATM    7  C   UNK N   1      29.464  25.430  -4.149  0.00  0.00     0.019 C 
HETATM    8  C   UNK N   1      28.402  23.356  -5.170  0.00  0.00     0.005 C 
HETATM    9  C   UNK N   1      30.090  23.084  -2.701  0.00  0.00     0.036 C 
HETATM   10  C   UNK N   1      30.412  22.276  -3.932  0.00  0.00    -0.069 C 
HETATM   11  C   UNK N   1      29.779  22.631  -5.308  0.00  0.00     0.020 C 
HETATM   12  C   UNK N   1      31.419  21.388  -3.858  0.00  0.00    -0.049 C 
HETATM   13  C   UNK N   1      29.701  21.445  -6.294  0.00  0.00     0.014 C 
HETATM   14  C   UNK N   1      30.584  20.234  -5.973  0.00  0.00     0.040 C 
HETATM   15  C   UNK N   1      31.693  20.514  -5.005  0.00  0.00    -0.048 C 
HETATM   16  C   UNK N   1      32.859  19.867  -5.105  0.00  0.00     0.057 C 
HETATM   17  C   UNK N   1      33.950  20.099  -4.133  0.00  0.00     0.150 C 
HETATM   18  O   UNK N   1      35.048  19.613  -4.343  0.00  0.00    -0.293 OA
HETATM   19  C   UNK N   1      33.739  21.000  -2.935  0.00  0.00     0.087 C 
HETATM   20  C   UNK N   1      32.265  21.215  -2.612  0.00  0.00     0.047 C 
HETATM   21  C   UNK N   1      27.877  24.265  -6.298  0.00  0.00     0.009 C 
HETATM   22  C   UNK N   1      26.975  25.329  -5.574  0.00  0.00     0.040 C 
BRANCH   4  23
HETATM   23  O   UNK N   1      26.008  23.954  -3.890  0.00  0.00    -0.388 OA
HETATM   24  H   UNK N   1      25.519  23.326  -3.334  0.00  0.00     0.210 HD
ENDBRANCH   4  23
ENDBRANCH   1   4
TORSDOF 2
ENDMDL
MODEL 2
REMARK VINA RESULT:      -7.3     22.694     25.438
REMARK  2 active torsions:
REMARK  status: ('A' for Active; 'I' for Inactive)
REMARK    1  A    between atoms: C_15  and  C_20 
REMARK    2  A    between atoms: C_15  and  O_23 
ROOT
HETATM    1  C   UNK N   1      36.643  11.123  12.610  0.00  0.00     0.162 C 
HETATM    2  C   UNK N   1      36.389  11.762  11.331  0.00  0.00     0.062 C 
HETATM    3  N   UNK N   1      36.184  12.267  10.327  0.00  0.00    -0.197 NA
ENDROOT
BRANCH   1   4
HETATM    4  C   UNK N   1      36.754  11.972  13.920  0.00  0.00     0.077 C 
HETATM    5  C   UNK N   1      35.857  11.315  14.957  0.00  0.00    -0.007 C 
HETATM    6  C   UNK N   1      36.263   9.905  15.349  0.00  0.00     0.017 C 
HETATM    7  C   UNK N   1      34.387  11.312  14.461  0.00  0.00     0.019 C 
HETATM    8  C   UNK N   1      36.041  12.249  16.152  0.00  0.00     0.005 C 
HETATM    9  C   UNK N   1      35.235   9.362  16.325  0.00  0.00     0.036 C 
HETATM   10  C   UNK N   1      35.068  10.267  17.518  0.00  0.00    -0.069 C 
HETATM   11  C   UNK N   1      35.158  11.813  17.365  0.00  0.00     0.020 C 
HETATM   12  C   UNK N   1      34.625   9.724  18.665  0.00  0.00    -0.049 C 
HETATM   13  C   UNK N   1      35.562  12.554  18.658  0.00  0.00     0.014 C 
HETATM   14  C   UNK N   1      35.427  11.766  19.966  0.00  0.00     0.040 C 
HETATM   15  C   UNK N   1      34.548  10.556  19.872  0.00  0.00    -0.048 C 
HETATM   16  C   UNK N   1      33.819  10.165  20.923  0.00  0.00     0.057 C 
HETATM   17  C   UNK N   1      32.978   8.949  20.863  0.00  0.00     0.150 C 
HETATM   18  O   UNK N   1      32.211   8.710  21.780  0.00  0.00    -0.293 OA
HETATM   19  C   UNK N   1      33.000   8.054  19.643  0.00  0.00     0.087 C 
HETATM   20  C   UNK N   1      34.240   8.262  18.781  0.00  0.00     0.047 C 
HETATM   21  C   UNK N   1      35.835  13.624  15.486  0.00  0.00     0.009 C 
HETATM   22  C   UNK N   1      36.277  13.420  13.992  0.00  0.00     0.040 C 
BRANCH   4  23
HETATM   23  O   UNK N   1      38.101  11.926  14.313  0.00  0.00    -0.388 OA
HETATM   24  H   UNK N   1      38.923  12.336  14.627  0.00  0.00     0.210 HD
ENDBRANCH   4  23
ENDBRANCH   1   4
TORSDOF 2
ENDMDL
MODEL 3
REMARK VINA RESULT:      -7.2     11.530     14.632
REMARK  2 active torsions:
REMARK  status: ('A' for Active; 'I' for Inactive)
REMARK    1  A    between atoms: C_15  and  C_20 
REMARK    2  A    between atoms: C_15  and  O_23 
ROOT
HETATM    1  C   UNK N   1      34.404  14.365   6.318  0.00  0.00     0.162 C 
HETATM    2  C   UNK N   1      35.797  14.587   5.973  0.00  0.00     0.062 C 
HETATM    3  N   UNK N   1      36.892  14.768   5.702  0.00  0.00    -0.197 NA
ENDROOT
BRANCH   1   4
HETATM    4  C   UNK N   1      33.745  15.128   7.514  0.00  0.00     0.077 C 
HETATM    5  C   UNK N   1      32.688  16.051   6.929  0.00  0.00    -0.007 C 
HETATM    6  C   UNK N   1      31.548  15.344   6.218  0.00  0.00     0.017 C 
HETATM    7  C   UNK N   1      33.349  17.069   5.964  0.00  0.00     0.019 C 
HETATM    8  C   UNK N   1      32.157  16.738   8.186  0.00  0.00     0.005 C 
HETATM    9  C   UNK N   1      30.625  16.394   5.627  0.00  0.00     0.036 C 
HETATM   10  C   UNK N   1      30.139  17.361   6.676  0.00  0.00    -0.069 C 
HETATM   11  C   UNK N   1      31.068  17.805   7.843  0.00  0.00     0.020 C 
HETATM   12  C   UNK N   1      28.974  17.995   6.458  0.00  0.00    -0.049 C 
HETATM   13  C   UNK N   1      30.315  18.277   9.106  0.00  0.00     0.014 C 
HETATM   14  C   UNK N   1      28.834  18.628   8.925  0.00  0.00     0.040 C 
HETATM   15  C   UNK N   1      28.423  18.866   7.503  0.00  0.00    -0.048 C 
HETATM   16  C   UNK N   1      27.466  19.755   7.215  0.00  0.00     0.057 C 
HETATM   17  C   UNK N   1      27.017  19.973   5.822  0.00  0.00     0.150 C 
HETATM   18  O   UNK N   1      26.259  20.896   5.579  0.00  0.00    -0.293 OA
HETATM   19  C   UNK N   1      27.555  19.119   4.694  0.00  0.00     0.087 C 
HETATM   20  C   UNK N   1      28.171  17.813   5.186  0.00  0.00     0.047 C 
HETATM   21  C   UNK N   1      33.472  17.153   8.874  0.00  0.00     0.009 C 
HETATM   22  C   UNK N   1      34.532  16.098   8.392  0.00  0.00     0.040 C 
BRANCH   4  23
HETATM   23  O   UNK N   1      33.164  14.152   8.340  0.00  0.00    -0.388 OA
HETATM   24  H   UNK N   1      32.555  13.863   9.038  0.00  0.00     0.210 HD
ENDBRANCH   4  23
ENDBRANCH   1   4
TORSDOF 2
ENDMDL
MODEL 4
REMARK VINA RESULT:      -7.2     21.488     24.117
REMARK  2 active torsions:
REMARK  status: ('A' for Active; 'I' for Inactive)
REMARK    1  A    between atoms: C_15  and  C_20 
REMARK    2  A    between atoms: C_15  and  O_23 
ROOT
HETATM    1  C   UNK N   1      35.293  14.574  12.475  0.00  0.00     0.162 C 
HETATM    2  C   UNK N   1      35.930  15.475  11.530  0.00  0.00     0.062 C 
HETATM    3  N   UNK N   1      36.437  16.182  10.790  0.00  0.00    -0.197 NA
ENDROOT
BRANCH   1   4
HETATM    4  C   UNK N   1      35.776  13.093  12.618  0.00  0.00     0.077 C 
HETATM    5  C   UNK N   1      36.019  12.842  14.097  0.00  0.00    -0.007 C 
HETATM    6  C   UNK N   1      34.785  12.955  14.974  0.00  0.00     0.017 C 
HETATM    7  C   UNK N   1      37.119  13.800  14.624  0.00  0.00     0.019 C 
HETATM    8  C   UNK N   1      36.503  11.393  14.082  0.00  0.00     0.005 C 
HETATM    9  C   UNK N   1      35.202  12.756  16.420  0.00  0.00     0.036 C 
HETATM   10  C   UNK N   1      35.930  11.451  16.614  0.00  0.00    -0.069 C 
HETATM   11  C   UNK N   1      36.883  10.898  15.515  0.00  0.00     0.020 C 
HETATM   12  C   UNK N   1      35.908  10.892  17.837  0.00  0.00    -0.049 C 
HETATM   13  C   UNK N   1      37.074   9.366  15.556  0.00  0.00     0.014 C 
HETATM   14  C   UNK N   1      36.660   8.662  16.854  0.00  0.00     0.040 C 
HETATM   15  C   UNK N   1      36.520   9.573  18.035  0.00  0.00    -0.048 C 
HETATM   16  C   UNK N   1      36.813   9.136  19.265  0.00  0.00     0.057 C 
HETATM   17  C   UNK N   1      36.642  10.007  20.449  0.00  0.00     0.150 C 
HETATM   18  O   UNK N   1      37.063   9.633  21.529  0.00  0.00    -0.293 OA
HETATM   19  C   UNK N   1      36.029  11.385  20.312  0.00  0.00     0.087 C 
HETATM   20  C   UNK N   1      35.232  11.551  19.023  0.00  0.00     0.047 C 
HETATM   21  C   UNK N   1      37.563  11.447  12.965  0.00  0.00     0.009 C 
HETATM   22  C   UNK N   1      37.091  12.606  12.015  0.00  0.00     0.040 C 
BRANCH   4  23
HETATM   23  O   UNK N   1      34.735  12.285  12.131  0.00  0.00    -0.388 OA
HETATM   24  H   UNK N   1      34.093  11.563  12.214  0.00  0.00     0.210 HD
ENDBRANCH   4  23
ENDBRANCH   1   4
TORSDOF 2
ENDMDL
MODEL 5
REMARK VINA RESULT:      -7.1      3.253      7.415
REMARK  2 active torsions:
REMARK  status: ('A' for Active; 'I' for Inactive)
REMARK    1  A    between atoms: C_15  and  C_20 
REMARK    2  A    between atoms: C_15  and  O_23 
ROOT
HETATM    1  C   UNK N   1      32.822  19.911  -6.044  0.00  0.00     0.162 C 
HETATM    2  C   UNK N   1      34.187  19.417  -6.019  0.00  0.00     0.062 C 
HETATM    3  N   UNK N   1      35.263  19.033  -5.997  0.00  0.00    -0.197 NA
ENDROOT
BRANCH   1   4
HETATM    4  C   UNK N   1      32.173  20.533  -4.763  0.00  0.00     0.077 C 
HETATM    5  C   UNK N   1      31.140  21.545  -5.231  0.00  0.00    -0.007 C 
HETATM    6  C   UNK N   1      29.988  20.958  -6.028  0.00  0.00     0.017 C 
HETATM    7  C   UNK N   1      31.829  22.661  -6.059  0.00  0.00     0.019 C 
HETATM    8  C   UNK N   1      30.618  22.081  -3.899  0.00  0.00     0.005 C 
HETATM    9  C   UNK N   1      29.092  22.094  -6.485  0.00  0.00     0.036 C 
HETATM   10  C   UNK N   1      28.622  22.933  -5.324  0.00  0.00    -0.069 C 
HETATM   11  C   UNK N   1      29.554  23.207  -4.109  0.00  0.00     0.020 C 
HETATM   12  C   UNK N   1      27.472  23.616  -5.464  0.00  0.00    -0.049 C 
HETATM   13  C   UNK N   1      28.805  23.533  -2.798  0.00  0.00     0.014 C 
HETATM   14  C   UNK N   1      27.333  23.938  -2.938  0.00  0.00     0.040 C 
HETATM   15  C   UNK N   1      26.935  24.361  -4.319  0.00  0.00    -0.048 C 
HETATM   16  C   UNK N   1      25.999  25.300  -4.496  0.00  0.00     0.057 C 
HETATM   17  C   UNK N   1      25.562  25.701  -5.852  0.00  0.00     0.150 C 
HETATM   18  O   UNK N   1      24.826  26.663  -5.980  0.00  0.00    -0.293 OA
HETATM   19  C   UNK N   1      26.087  24.982  -7.076  0.00  0.00     0.087 C 
HETATM   20  C   UNK N   1      26.672  23.612  -6.751  0.00  0.00     0.047 C 
HETATM   21  C   UNK N   1      31.938  22.378  -3.161  0.00  0.00     0.009 C 
HETATM   22  C   UNK N   1      32.977  21.368  -3.769  0.00  0.00     0.040 C 
BRANCH   4  23
HETATM   23  O   UNK N   1      31.567  19.474  -4.068  0.00  0.00    -0.388 OA
HETATM   24  H   UNK N   1      31.127  19.090  -3.293  0.00  0.00     0.210 HD
ENDBRANCH   4  23
ENDBRANCH   1   4
TORSDOF 2
ENDMDL
MODEL 6
REMARK VINA RESULT:      -7.0      1.831      2.467
REMARK  2 active torsions:
REMARK  status: ('A' for Active; 'I' for Inactive)
REMARK    1  A    between atoms: C_15  and  C_20 
REMARK    2  A    between atoms: C_15  and  O_23 
ROOT
HETATM    1  C   UNK N   1      27.072  26.052  -3.729  0.00  0.00     0.162 C 
HETATM    2  C   UNK N   1      26.220  27.160  -3.334  0.00  0.00     0.062 C 
HETATM    3  N   UNK N   1      25.549  28.033  -3.029  0.00  0.00    -0.197 NA
ENDROOT
BRANCH   1   4
HETATM    4  C   UNK N   1      26.575  24.992  -4.767  0.00  0.00     0.077 C 
HETATM    5  C   UNK N   1      27.802  24.249  -5.271  0.00  0.00    -0.007 C 
HETATM    6  C   UNK N   1      28.550  23.461  -4.210  0.00  0.00     0.017 C 
HETATM    7  C   UNK N   1      28.774  25.239  -5.963  0.00  0.00     0.019 C 
HETATM    8  C   UNK N   1      27.178  23.283  -6.277  0.00  0.00     0.005 C 
HETATM    9  C   UNK N   1      29.782  22.845  -4.847  0.00  0.00     0.036 C 
HETATM   10  C   UNK N   1      29.426  22.004  -6.046  0.00  0.00    -0.069 C 
HETATM   11  C   UNK N   1      28.265  22.419  -6.995  0.00  0.00     0.020 C 
HETATM   12  C   UNK N   1      30.269  21.017  -6.397  0.00  0.00    -0.049 C 
HETATM   13  C   UNK N   1      27.634  21.244  -7.774  0.00  0.00     0.014 C 
HETATM   14  C   UNK N   1      28.452  19.949  -7.833  0.00  0.00     0.040 C 
HETATM   15  C   UNK N   1      29.903  20.116  -7.496  0.00  0.00    -0.048 C 
HETATM   16  C   UNK N   1      30.827  19.351  -8.086  0.00  0.00     0.057 C 
HETATM   17  C   UNK N   1      32.260  19.472  -7.736  0.00  0.00     0.150 C 
HETATM   18  O   UNK N   1      33.088  18.874  -8.400  0.00  0.00    -0.293 OA
HETATM   19  C   UNK N   1      32.707  20.393  -6.621  0.00  0.00     0.087 C 
HETATM   20  C   UNK N   1      31.574  20.761  -5.670  0.00  0.00     0.047 C 
HETATM   21  C   UNK N   1      26.277  24.238  -7.084  0.00  0.00     0.009 C 
HETATM   22  C   UNK N   1      25.911  25.392  -6.082  0.00  0.00     0.040 C 
BRANCH   4  23
HETATM   23  O   UNK N   1      25.709  24.130  -4.074  0.00  0.00    -0.388 OA
HETATM   24  H   UNK N   1      25.213  23.302  -3.975  0.00  0.00     0.210 HD
ENDBRANCH   4  23
ENDBRANCH   1   4
TORSDOF 2
ENDMDL
MODEL 7
REMARK VINA RESULT:      -7.0     14.410     15.640
REMARK  2 active torsions:
REMARK  status: ('A' for Active; 'I' for Inactive)
REMARK    1  A    between atoms: C_15  and  C_20 
REMARK    2  A    between atoms: C_15  and  O_23 
ROOT
HETATM    1  C   UNK N   1      20.730  17.988   3.744  0.00  0.00     0.162 C 
HETATM    2  C   UNK N   1      20.679  19.428   3.568  0.00  0.00     0.062 C 
HETATM    3  N   UNK N   1      20.642  20.562   3.435  0.00  0.00    -0.197 NA
ENDROOT
BRANCH   1   4
HETATM    4  C   UNK N   1      22.096  17.258   3.971  0.00  0.00     0.077 C 
HETATM    5  C   UNK N   1      22.030  16.601   5.341  0.00  0.00    -0.007 C 
HETATM    6  C   UNK N   1      20.966  15.527   5.482  0.00  0.00     0.017 C 
HETATM    7  C   UNK N   1      21.828  17.679   6.437  0.00  0.00     0.019 C 
HETATM    8  C   UNK N   1      23.415  15.961   5.435  0.00  0.00     0.005 C 
HETATM    9  C   UNK N   1      20.974  15.026   6.914  0.00  0.00     0.036 C 
HETATM   10  C   UNK N   1      22.341  14.541   7.325  0.00  0.00    -0.069 C 
HETATM   11  C   UNK N   1      23.627  15.250   6.811  0.00  0.00     0.020 C 
HETATM   12  C   UNK N   1      22.416  13.631   8.312  0.00  0.00    -0.049 C 
HETATM   13  C   UNK N   1      24.882  14.351   6.798  0.00  0.00     0.014 C 
HETATM   14  C   UNK N   1      24.811  13.070   7.637  0.00  0.00     0.040 C 
HETATM   15  C   UNK N   1      23.722  13.063   8.667  0.00  0.00    -0.048 C 
HETATM   16  C   UNK N   1      23.894  12.424   9.830  0.00  0.00     0.057 C 
HETATM   17  C   UNK N   1      22.815  12.371  10.841  0.00  0.00     0.150 C 
HETATM   18  O   UNK N   1      23.057  11.918  11.946  0.00  0.00    -0.293 OA
HETATM   19  C   UNK N   1      21.448  12.950  10.544  0.00  0.00     0.087 C 
HETATM   20  C   UNK N   1      21.194  13.125   9.051  0.00  0.00     0.047 C 
HETATM   21  C   UNK N   1      24.314  17.140   5.016  0.00  0.00     0.009 C 
HETATM   22  C   UNK N   1      23.416  18.018   4.071  0.00  0.00     0.040 C 
BRANCH   4  23
HETATM   23  O   UNK N   1      22.210  16.297   2.953  0.00  0.00    -0.388 OA
HETATM   24  H   UNK N   1      22.578  15.485   2.570  0.00  0.00     0.210 HD
ENDBRANCH   4  23
ENDBRANCH   1   4
TORSDOF 2
ENDMDL
MODEL 8
REMARK VINA RESULT:      -6.8     22.081     24.928
REMARK  2 active torsions:
REMARK  status: ('A' for Active; 'I' for Inactive)
REMARK    1  A    between atoms: C_15  and  C_20 
REMARK    2  A    between atoms: C_15  and  O_23 
ROOT
HETATM    1  C   UNK N   1      37.472  10.009  11.809  0.00  0.00     0.162 C 
HETATM    2  C   UNK N   1      38.177  10.207  10.555  0.00  0.00     0.062 C 
HETATM    3  N   UNK N   1      38.726  10.366   9.567  0.00  0.00    -0.197 NA
ENDROOT
BRANCH   1   4
HETATM    4  C   UNK N   1      36.826  11.218  12.564  0.00  0.00     0.077 C 
HETATM    5  C   UNK N   1      36.444  10.728  13.951  0.00  0.00    -0.007 C 
HETATM    6  C   UNK N   1      37.613  10.285  14.815  0.00  0.00     0.017 C 
HETATM    7  C   UNK N   1      35.414   9.574  13.841  0.00  0.00     0.019 C 
HETATM    8  C   UNK N   1      35.814  11.983  14.552  0.00  0.00     0.005 C 
HETATM    9  C   UNK N   1      37.067   9.755  16.128  0.00  0.00     0.036 C 
HETATM   10  C   UNK N   1      36.193  10.771  16.817  0.00  0.00    -0.069 C 
HETATM   11  C   UNK N   1      35.275  11.722  15.996  0.00  0.00     0.020 C 
HETATM   12  C   UNK N   1      36.062  10.688  18.153  0.00  0.00    -0.049 C 
HETATM   13  C   UNK N   1      34.922  13.040  16.719  0.00  0.00     0.014 C 
HETATM   14  C   UNK N   1      35.159  13.072  18.233  0.00  0.00     0.040 C 
HETATM   15  C   UNK N   1      35.301  11.721  18.866  0.00  0.00    -0.048 C 
HETATM   16  C   UNK N   1      34.870  11.509  20.114  0.00  0.00     0.057 C 
HETATM   17  C   UNK N   1      35.040  10.194  20.771  0.00  0.00     0.150 C 
HETATM   18  O   UNK N   1      34.500   9.991  21.844  0.00  0.00    -0.293 OA
HETATM   19  C   UNK N   1      35.803   9.081  20.086  0.00  0.00     0.087 C 
HETATM   20  C   UNK N   1      36.710   9.588  18.969  0.00  0.00     0.047 C 
HETATM   21  C   UNK N   1      34.855  12.403  13.422  0.00  0.00     0.009 C 
HETATM   22  C   UNK N   1      35.518  11.857  12.106  0.00  0.00     0.040 C 
BRANCH   4  23
HETATM   23  O   UNK N   1      37.810  12.217  12.633  0.00  0.00    -0.388 OA
HETATM   24  H   UNK N   1      38.130  13.124  12.503  0.00  0.00     0.210 HD
ENDBRANCH   4  23
ENDBRANCH   1   4
TORSDOF 2
ENDMDL
MODEL 9
REMARK VINA RESULT:      -6.7     10.110     13.166
REMARK  2 active torsions:
REMARK  status: ('A' for Active; 'I' for Inactive)
REMARK    1  A    between atoms: C_15  and  C_20 
REMARK    2  A    between atoms: C_15  and  O_23 
ROOT
HETATM    1  C   UNK N   1      33.324  14.139   2.487  0.00  0.00     0.162 C 
HETATM    2  C   UNK N   1      34.673  13.896   2.008  0.00  0.00     0.062 C 
HETATM    3  N   UNK N   1      35.737  13.709   1.634  0.00  0.00    -0.197 NA
ENDROOT
BRANCH   1   4
HETATM    4  C   UNK N   1      33.061  14.509   3.984  0.00  0.00     0.077 C 
HETATM    5  C   UNK N   1      32.085  15.674   3.993  0.00  0.00    -0.007 C 
HETATM    6  C   UNK N   1      30.720  15.366   3.403  0.00  0.00     0.017 C 
HETATM    7  C   UNK N   1      32.704  16.891   3.258  0.00  0.00     0.019 C 
HETATM    8  C   UNK N   1      31.945  15.940   5.491  0.00  0.00     0.005 C 
HETATM    9  C   UNK N   1      29.892  16.638   3.413  0.00  0.00     0.036 C 
HETATM   10  C   UNK N   1      29.803  17.233   4.795  0.00  0.00    -0.069 C 
HETATM   11  C   UNK N   1      31.010  17.160   5.774  0.00  0.00     0.020 C 
HETATM   12  C   UNK N   1      28.745  18.013   5.079  0.00  0.00    -0.049 C 
HETATM   13  C   UNK N   1      30.620  17.244   7.266  0.00  0.00     0.014 C 
HETATM   14  C   UNK N   1      29.217  17.778   7.574  0.00  0.00     0.040 C 
HETATM   15  C   UNK N   1      28.575  18.524   6.444  0.00  0.00    -0.048 C 
HETATM   16  C   UNK N   1      27.749  19.546   6.691  0.00  0.00     0.057 C 
HETATM   17  C   UNK N   1      27.073  20.268   5.590  0.00  0.00     0.150 C 
HETATM   18  O   UNK N   1      26.454  21.288   5.838  0.00  0.00    -0.293 OA
HETATM   19  C   UNK N   1      27.217  19.801   4.157  0.00  0.00     0.087 C 
HETATM   20  C   UNK N   1      27.684  18.354   4.052  0.00  0.00     0.047 C 
HETATM   21  C   UNK N   1      33.423  15.967   5.926  0.00  0.00     0.009 C 
HETATM   22  C   UNK N   1      34.165  15.042   4.895  0.00  0.00     0.040 C 
BRANCH   4  23
HETATM   23  O   UNK N   1      32.498  13.371   4.584  0.00  0.00    -0.388 OA
HETATM   24  H   UNK N   1      32.290  12.424   4.612  0.00  0.00     0.210 HD
ENDBRANCH   4  23
ENDBRANCH   1   4
TORSDOF 2
ENDMDL
