MODEL 1
REMARK VINA RESULT:      -6.3      0.000      0.000
REMARK  4 active torsions:
REMARK  status: ('A' for Active; 'I' for Inactive)
REMARK    1  A    between atoms: C_14  and  C_12 
REMARK    2  A    between atoms: N_21  and  C_12 
REMARK    3  A    between atoms: C_14  and  C_13 
REMARK    4  A    between atoms: N_22  and  C_13 
ROOT
HETATM    1  C   UNK N   1      31.776  15.883   7.024  0.00  0.00     0.002 A 
HETATM    2  C   UNK N   1      31.709  16.466   8.281  0.00  0.00     0.002 A 
HETATM    3  C   UNK N   1      30.844  16.232   6.054  0.00  0.00     0.031 A 
HETATM    4  C   UNK N   1      30.686  17.362   8.574  0.00  0.00     0.021 A 
HETATM    5  C   UNK N   1      26.367  20.949   5.479  0.00  0.00     0.024 A 
HETATM    6  C   UNK N   1      26.984  20.486   6.642  0.00  0.00     0.023 A 
HETATM    7  C   UNK N   1      27.478  19.221   4.227  0.00  0.00     0.053 A 
HETATM    8  C   UNK N   1      25.917  20.616   3.074  0.00  0.00     0.099 C 
HETATM    9  C   UNK N   1      26.616  20.296   4.273  0.00  0.00     0.046 A 
HETATM   10  C   UNK N   1      29.826  17.169   6.304  0.00  0.00     0.052 A 
HETATM   11  C   UNK N   1      28.105  18.730   5.372  0.00  0.00     0.053 A 
HETATM   12  C   UNK N   1      29.745  17.717   7.606  0.00  0.00     0.032 A 
HETATM   13  C   UNK N   1      27.841  19.377   6.602  0.00  0.00     0.032 A 
HETATM   14  N   UNK N   1      25.384  20.826   2.071  0.00  0.00    -0.191 NA
HETATM   15  N   UNK N   1      28.945  17.576   5.240  0.00  0.00    -0.344 N 
HETATM   16  S   UNK N   1      28.438  18.788   8.163  0.00  0.00    -0.086 SA
ENDROOT
BRANCH  15  17
HETATM   17  C   UNK N   1      28.867  16.842   3.961  0.00  0.00     0.135 C 
BRANCH  17  18
HETATM   18  C   UNK N   1      28.010  15.574   3.908  0.00  0.00     0.028 C 
HETATM   19  C   UNK N   1      28.779  14.355   3.436  0.00  0.00     0.013 C 
BRANCH  18  20
HETATM   20  C   UNK N   1      26.733  15.800   3.094  0.00  0.00     0.277 C 
BRANCH  20  21
HETATM   21  N   UNK N   1      25.527  15.609   3.902  0.00  0.00     0.080 N 
HETATM   22  C   UNK N   1      24.701  16.791   3.725  0.00  0.00     0.309 C 
HETATM   23  C   UNK N   1      25.878  15.563   5.315  0.00  0.00     0.309 C 
ENDBRANCH  20  21
ENDBRANCH  18  20
ENDBRANCH  17  18
ENDBRANCH  15  17
TORSDOF 4
ENDMDL
MODEL 2
REMARK VINA RESULT:      -6.2      4.238      7.131
REMARK  4 active torsions:
REMARK  status: ('A' for Active; 'I' for Inactive)
REMARK    1  A    between atoms: C_14  and  C_12 
REMARK    2  A    between atoms: N_21  and  C_12 
REMARK    3  A    between atoms: C_14  and  C_13 
REMARK    4  A    between atoms: N_22  and  C_13 
ROOT
HETATM    1  C   UNK N   1      25.717  20.410   3.140  0.00  0.00     0.002 A 
HETATM    2  C   UNK N   1      26.780  19.567   3.428  0.00  0.00     0.002 A 
HETATM    3  C   UNK N   1      24.426  20.033   3.487  0.00  0.00     0.031 A 
HETATM    4  C   UNK N   1      26.540  18.332   4.023  0.00  0.00     0.021 A 
HETATM    5  C   UNK N   1      21.869  15.337   7.233  0.00  0.00     0.024 A 
HETATM    6  C   UNK N   1      23.147  15.391   6.674  0.00  0.00     0.023 A 
HETATM    7  C   UNK N   1      21.291  17.353   6.054  0.00  0.00     0.053 A 
HETATM    8  C   UNK N   1      19.580  16.260   7.316  0.00  0.00     0.099 C 
HETATM    9  C   UNK N   1      20.942  16.324   6.903  0.00  0.00     0.046 A 
HETATM   10  C   UNK N   1      24.155  18.813   4.131  0.00  0.00     0.052 A 
HETATM   11  C   UNK N   1      22.557  17.433   5.475  0.00  0.00     0.053 A 
HETATM   12  C   UNK N   1      25.246  17.944   4.374  0.00  0.00     0.032 A 
HETATM   13  C   UNK N   1      23.496  16.422   5.790  0.00  0.00     0.032 A 
HETATM   14  N   UNK N   1      18.464  16.264   7.616  0.00  0.00    -0.191 NA
HETATM   15  N   UNK N   1      22.816  18.508   4.563  0.00  0.00    -0.344 N 
HETATM   16  S   UNK N   1      25.089  16.297   5.025  0.00  0.00    -0.086 SA
ENDROOT
BRANCH  15  17
HETATM   17  C   UNK N   1      21.647  19.285   4.105  0.00  0.00     0.135 C 
BRANCH  17  18
HETATM   18  C   UNK N   1      21.182  19.105   2.658  0.00  0.00     0.028 C 
HETATM   19  C   UNK N   1      20.803  20.411   1.986  0.00  0.00     0.013 C 
BRANCH  18  20
HETATM   20  C   UNK N   1      20.066  18.061   2.559  0.00  0.00     0.277 C 
BRANCH  20  21
HETATM   21  N   UNK N   1      20.576  16.749   2.156  0.00  0.00     0.080 N 
HETATM   22  C   UNK N   1      20.070  16.485   0.820  0.00  0.00     0.309 C 
HETATM   23  C   UNK N   1      20.019  15.714   3.016  0.00  0.00     0.309 C 
ENDBRANCH  20  21
ENDBRANCH  18  20
ENDBRANCH  17  18
ENDBRANCH  15  17
TORSDOF 4
ENDMDL
MODEL 3
REMARK VINA RESULT:      -6.1     10.510     14.401
REMARK  4 active torsions:
REMARK  status: ('A' for Active; 'I' for Inactive)
REMARK    1  A    between atoms: C_14  and  C_12 
REMARK    2  A    between atoms: N_21  and  C_12 
REMARK    3  A    between atoms: C_14  and  C_13 
REMARK    4  A    between atoms: N_22  and  C_13 
ROOT
HETATM    1  C   UNK N   1      35.227  12.772  19.264  0.00  0.00     0.002 A 
HETATM    2  C   UNK N   1      35.581  11.588  19.895  0.00  0.00     0.002 A 
HETATM    3  C   UNK N   1      35.190  12.827  17.876  0.00  0.00     0.031 A 
HETATM    4  C   UNK N   1      35.938  10.480  19.134  0.00  0.00     0.021 A 
HETATM    5  C   UNK N   1      35.396   8.380  13.100  0.00  0.00     0.024 A 
HETATM    6  C   UNK N   1      35.805   8.237  14.427  0.00  0.00     0.023 A 
HETATM    7  C   UNK N   1      34.955  10.710  13.511  0.00  0.00     0.053 A 
HETATM    8  C   UNK N   1      34.688   9.891  11.280  0.00  0.00     0.099 C 
HETATM    9  C   UNK N   1      34.982   9.632  12.650  0.00  0.00     0.046 A 
HETATM   10  C   UNK N   1      35.499  11.711  17.079  0.00  0.00     0.052 A 
HETATM   11  C   UNK N   1      35.362  10.601  14.839  0.00  0.00     0.053 A 
HETATM   12  C   UNK N   1      35.904  10.527  17.739  0.00  0.00     0.032 A 
HETATM   13  C   UNK N   1      35.803   9.337  15.297  0.00  0.00     0.032 A 
HETATM   14  N   UNK N   1      34.440  10.165  10.186  0.00  0.00    -0.191 NA
HETATM   15  N   UNK N   1      35.350  11.784  15.649  0.00  0.00    -0.344 N 
HETATM   16  S   UNK N   1      36.490   9.067  16.908  0.00  0.00    -0.086 SA
ENDROOT
BRANCH  15  17
HETATM   17  C   UNK N   1      35.165  13.068  14.943  0.00  0.00     0.135 C 
BRANCH  17  18
HETATM   18  C   UNK N   1      36.412  13.803  14.444  0.00  0.00     0.028 C 
HETATM   19  C   UNK N   1      37.086  14.632  15.521  0.00  0.00     0.013 C 
BRANCH  18  20
HETATM   20  C   UNK N   1      36.106  14.626  13.190  0.00  0.00     0.277 C 
BRANCH  20  21
HETATM   21  N   UNK N   1      35.434  13.830  12.161  0.00  0.00     0.080 N 
HETATM   22  C   UNK N   1      36.466  13.301  11.287  0.00  0.00     0.309 C 
HETATM   23  C   UNK N   1      34.599  14.690  11.335  0.00  0.00     0.309 C 
ENDBRANCH  20  21
ENDBRANCH  18  20
ENDBRANCH  17  18
ENDBRANCH  15  17
TORSDOF 4
ENDMDL
MODEL 4
REMARK VINA RESULT:      -6.1     10.189     12.852
REMARK  4 active torsions:
REMARK  status: ('A' for Active; 'I' for Inactive)
REMARK    1  A    between atoms: C_14  and  C_12 
REMARK    2  A    between atoms: N_21  and  C_12 
REMARK    3  A    between atoms: C_14  and  C_13 
REMARK    4  A    between atoms: N_22  and  C_13 
ROOT
HETATM    1  C   UNK N   1      29.983  20.021  -6.839  0.00  0.00     0.002 A 
HETATM    2  C   UNK N   1      29.103  19.787  -7.885  0.00  0.00     0.002 A 
HETATM    3  C   UNK N   1      29.868  21.186  -6.090  0.00  0.00     0.031 A 
HETATM    4  C   UNK N   1      28.141  20.740  -8.204  0.00  0.00     0.021 A 
HETATM    5  C   UNK N   1      25.346  25.866  -5.556  0.00  0.00     0.024 A 
HETATM    6  C   UNK N   1      25.518  24.950  -6.595  0.00  0.00     0.023 A 
HETATM    7  C   UNK N   1      27.357  25.040  -4.525  0.00  0.00     0.053 A 
HETATM    8  C   UNK N   1      26.261  26.906  -3.511  0.00  0.00     0.099 C 
HETATM    9  C   UNK N   1      26.286  25.908  -4.527  0.00  0.00     0.046 A 
HETATM   10  C   UNK N   1      28.876  22.146  -6.357  0.00  0.00     0.052 A 
HETATM   11  C   UNK N   1      27.560  24.117  -5.551  0.00  0.00     0.053 A 
HETATM   12  C   UNK N   1      28.018  21.913  -7.458  0.00  0.00     0.032 A 
HETATM   13  C   UNK N   1      26.621  24.084  -6.608  0.00  0.00     0.032 A 
HETATM   14  N   UNK N   1      26.296  27.689  -2.663  0.00  0.00    -0.191 NA
HETATM   15  N   UNK N   1      28.729  23.289  -5.494  0.00  0.00    -0.344 N 
HETATM   16  S   UNK N   1      26.813  23.079  -8.055  0.00  0.00    -0.086 SA
ENDROOT
BRANCH  15  17
HETATM   17  C   UNK N   1      29.758  23.662  -4.502  0.00  0.00     0.135 C 
BRANCH  17  18
HETATM   18  C   UNK N   1      30.033  22.695  -3.349  0.00  0.00     0.028 C 
HETATM   19  C   UNK N   1      29.120  22.913  -2.157  0.00  0.00     0.013 C 
BRANCH  18  20
HETATM   20  C   UNK N   1      31.512  22.710  -2.953  0.00  0.00     0.277 C 
BRANCH  20  21
HETATM   21  N   UNK N   1      32.278  21.677  -3.653  0.00  0.00     0.080 N 
HETATM   22  C   UNK N   1      33.157  21.059  -2.676  0.00  0.00     0.309 C 
HETATM   23  C   UNK N   1      33.142  22.292  -4.651  0.00  0.00     0.309 C 
ENDBRANCH  20  21
ENDBRANCH  18  20
ENDBRANCH  17  18
ENDBRANCH  15  17
TORSDOF 4
ENDMDL
MODEL 5
REMARK VINA RESULT:      -5.9     12.004     13.346
REMARK  4 active torsions:
REMARK  status: ('A' for Active; 'I' for Inactive)
REMARK    1  A    between atoms: C_14  and  C_12 
REMARK    2  A    between atoms: N_21  and  C_12 
REMARK    3  A    between atoms: C_14  and  C_13 
REMARK    4  A    between atoms: N_22  and  C_13 
ROOT
HETATM    1  C   UNK N   1      30.558  20.140  -6.325  0.00  0.00     0.002 A 
HETATM    2  C   UNK N   1      29.761  19.810  -7.412  0.00  0.00     0.002 A 
HETATM    3  C   UNK N   1      30.313  21.314  -5.624  0.00  0.00     0.031 A 
HETATM    4  C   UNK N   1      28.753  20.677  -7.817  0.00  0.00     0.021 A 
HETATM    5  C   UNK N   1      25.437  25.654  -5.508  0.00  0.00     0.024 A 
HETATM    6  C   UNK N   1      25.736  24.724  -6.504  0.00  0.00     0.023 A 
HETATM    7  C   UNK N   1      27.438  25.012  -4.336  0.00  0.00     0.053 A 
HETATM    8  C   UNK N   1      26.148  26.819  -3.450  0.00  0.00     0.099 C 
HETATM    9  C   UNK N   1      26.307  25.797  -4.428  0.00  0.00     0.046 A 
HETATM   10  C   UNK N   1      29.271  22.188  -5.980  0.00  0.00     0.052 A 
HETATM   11  C   UNK N   1      27.768  24.078  -5.317  0.00  0.00     0.053 A 
HETATM   12  C   UNK N   1      28.500  21.859  -7.120  0.00  0.00     0.032 A 
HETATM   13  C   UNK N   1      26.899  23.943  -6.425  0.00  0.00     0.032 A 
HETATM   14  N   UNK N   1      26.076  27.627  -2.628  0.00  0.00    -0.191 NA
HETATM   15  N   UNK N   1      28.989  23.341  -5.165  0.00  0.00    -0.344 N 
HETATM   16  S   UNK N   1      27.251  22.913  -7.823  0.00  0.00    -0.086 SA
ENDROOT
BRANCH  15  17
HETATM   17  C   UNK N   1      29.927  23.820  -4.129  0.00  0.00     0.135 C 
BRANCH  17  18
HETATM   18  C   UNK N   1      31.003  24.827  -4.540  0.00  0.00     0.028 C 
HETATM   19  C   UNK N   1      32.375  24.201  -4.702  0.00  0.00     0.013 C 
BRANCH  18  20
HETATM   20  C   UNK N   1      31.027  26.030  -3.593  0.00  0.00     0.277 C 
BRANCH  20  21
HETATM   21  N   UNK N   1      30.779  27.289  -4.299  0.00  0.00     0.080 N 
HETATM   22  C   UNK N   1      29.666  27.942  -3.634  0.00  0.00     0.309 C 
HETATM   23  C   UNK N   1      30.340  27.016  -5.661  0.00  0.00     0.309 C 
ENDBRANCH  20  21
ENDBRANCH  18  20
ENDBRANCH  17  18
ENDBRANCH  15  17
TORSDOF 4
ENDMDL
MODEL 6
REMARK VINA RESULT:      -5.8     10.598     14.072
REMARK  4 active torsions:
REMARK  status: ('A' for Active; 'I' for Inactive)
REMARK    1  A    between atoms: C_14  and  C_12 
REMARK    2  A    between atoms: N_21  and  C_12 
REMARK    3  A    between atoms: C_14  and  C_13 
REMARK    4  A    between atoms: N_22  and  C_13 
ROOT
HETATM    1  C   UNK N   1      25.504  22.528  -7.041  0.00  0.00     0.002 A 
HETATM    2  C   UNK N   1      25.453  23.141  -8.284  0.00  0.00     0.002 A 
HETATM    3  C   UNK N   1      25.998  23.229  -5.948  0.00  0.00     0.031 A 
HETATM    4  C   UNK N   1      25.936  24.436  -8.435  0.00  0.00     0.021 A 
HETATM    5  C   UNK N   1      27.461  29.486  -4.791  0.00  0.00     0.024 A 
HETATM    6  C   UNK N   1      27.321  28.849  -6.025  0.00  0.00     0.023 A 
HETATM    7  C   UNK N   1      27.175  27.366  -3.690  0.00  0.00     0.053 A 
HETATM    8  C   UNK N   1      27.673  29.275  -2.340  0.00  0.00     0.099 C 
HETATM    9  C   UNK N   1      27.397  28.726  -3.625  0.00  0.00     0.046 A 
HETATM   10  C   UNK N   1      26.451  24.555  -6.058  0.00  0.00     0.052 A 
HETATM   11  C   UNK N   1      27.036  26.700  -4.906  0.00  0.00     0.053 A 
HETATM   12  C   UNK N   1      26.436  25.148  -7.343  0.00  0.00     0.032 A 
HETATM   13  C   UNK N   1      27.121  27.463  -6.095  0.00  0.00     0.032 A 
HETATM   14  N   UNK N   1      27.888  29.660  -1.272  0.00  0.00    -0.191 NA
HETATM   15  N   UNK N   1      26.860  25.277  -4.882  0.00  0.00    -0.344 N 
HETATM   16  S   UNK N   1      27.115  26.749  -7.717  0.00  0.00    -0.086 SA
ENDROOT
BRANCH  15  17
HETATM   17  C   UNK N   1      27.107  24.601  -3.592  0.00  0.00     0.135 C 
BRANCH  17  18
HETATM   18  C   UNK N   1      28.387  23.775  -3.443  0.00  0.00     0.028 C 
HETATM   19  C   UNK N   1      28.540  23.155  -2.067  0.00  0.00     0.013 C 
BRANCH  18  20
HETATM   20  C   UNK N   1      29.620  24.584  -3.851  0.00  0.00     0.277 C 
BRANCH  20  21
HETATM   21  N   UNK N   1      30.109  24.208  -5.179  0.00  0.00     0.080 N 
HETATM   22  C   UNK N   1      31.385  23.539  -4.992  0.00  0.00     0.309 C 
HETATM   23  C   UNK N   1      30.386  25.404  -5.963  0.00  0.00     0.309 C 
ENDBRANCH  20  21
ENDBRANCH  18  20
ENDBRANCH  17  18
ENDBRANCH  15  17
TORSDOF 4
ENDMDL
MODEL 7
REMARK VINA RESULT:      -5.7      5.332      8.095
REMARK  4 active torsions:
REMARK  status: ('A' for Active; 'I' for Inactive)
REMARK    1  A    between atoms: C_14  and  C_12 
REMARK    2  A    between atoms: N_21  and  C_12 
REMARK    3  A    between atoms: C_14  and  C_13 
REMARK    4  A    between atoms: N_22  and  C_13 
ROOT
HETATM    1  C   UNK N   1      20.889  12.320  11.328  0.00  0.00     0.002 A 
HETATM    2  C   UNK N   1      22.084  11.921  11.910  0.00  0.00     0.002 A 
HETATM    3  C   UNK N   1      20.906  12.974  10.102  0.00  0.00     0.031 A 
HETATM    4  C   UNK N   1      23.290  12.215  11.282  0.00  0.00     0.021 A 
HETATM    5  C   UNK N   1      25.429  13.982   5.503  0.00  0.00     0.024 A 
HETATM    6  C   UNK N   1      25.625  13.633   6.840  0.00  0.00     0.023 A 
HETATM    7  C   UNK N   1      23.069  14.185   5.924  0.00  0.00     0.053 A 
HETATM    8  C   UNK N   1      23.877  14.771   3.752  0.00  0.00     0.099 C 
HETATM    9  C   UNK N   1      24.139  14.269   5.058  0.00  0.00     0.046 A 
HETATM   10  C   UNK N   1      22.105  13.244   9.420  0.00  0.00     0.052 A 
HETATM   11  C   UNK N   1      23.232  13.844   7.266  0.00  0.00     0.053 A 
HETATM   12  C   UNK N   1      23.316  12.872  10.051  0.00  0.00     0.032 A 
HETATM   13  C   UNK N   1      24.541  13.572   7.728  0.00  0.00     0.032 A 
HETATM   14  N   UNK N   1      23.599  15.182   2.709  0.00  0.00    -0.191 NA
HETATM   15  N   UNK N   1      22.070  13.832   8.106  0.00  0.00    -0.344 N 
HETATM   16  S   UNK N   1      24.934  13.272   9.429  0.00  0.00    -0.086 SA
ENDROOT
BRANCH  15  17
HETATM   17  C   UNK N   1      20.843  14.438   7.549  0.00  0.00     0.135 C 
BRANCH  17  18
HETATM   18  C   UNK N   1      20.708  15.962   7.594  0.00  0.00     0.028 C 
HETATM   19  C   UNK N   1      19.957  16.459   8.814  0.00  0.00     0.013 C 
BRANCH  18  20
HETATM   20  C   UNK N   1      20.113  16.505   6.291  0.00  0.00     0.277 C 
BRANCH  20  21
HETATM   21  N   UNK N   1      21.150  16.927   5.348  0.00  0.00     0.080 N 
HETATM   22  C   UNK N   1      21.898  17.998   5.985  0.00  0.00     0.309 C 
HETATM   23  C   UNK N   1      20.536  17.506   4.161  0.00  0.00     0.309 C 
ENDBRANCH  20  21
ENDBRANCH  18  20
ENDBRANCH  17  18
ENDBRANCH  15  17
TORSDOF 4
ENDMDL
MODEL 8
REMARK VINA RESULT:      -5.6      2.232      5.054
REMARK  4 active torsions:
REMARK  status: ('A' for Active; 'I' for Inactive)
REMARK    1  A    between atoms: C_14  and  C_12 
REMARK    2  A    between atoms: N_21  and  C_12 
REMARK    3  A    between atoms: C_14  and  C_13 
REMARK    4  A    between atoms: N_22  and  C_13 
ROOT
HETATM    1  C   UNK N   1      33.047  17.966   8.357  0.00  0.00     0.002 A 
HETATM    2  C   UNK N   1      34.127  17.827   7.497  0.00  0.00     0.002 A 
HETATM    3  C   UNK N   1      31.778  17.587   7.934  0.00  0.00     0.031 A 
HETATM    4  C   UNK N   1      33.925  17.350   6.207  0.00  0.00     0.021 A 
HETATM    5  C   UNK N   1      29.457  14.201   2.857  0.00  0.00     0.024 A 
HETATM    6  C   UNK N   1      30.700  14.823   2.980  0.00  0.00     0.023 A 
HETATM    7  C   UNK N   1      28.806  15.132   4.978  0.00  0.00     0.053 A 
HETATM    8  C   UNK N   1      27.174  13.893   3.747  0.00  0.00     0.099 C 
HETATM    9  C   UNK N   1      28.509  14.374   3.865  0.00  0.00     0.046 A 
HETATM   10  C   UNK N   1      31.549  17.056   6.652  0.00  0.00     0.052 A 
HETATM   11  C   UNK N   1      30.035  15.772   5.128  0.00  0.00     0.053 A 
HETATM   12  C   UNK N   1      32.655  16.967   5.773  0.00  0.00     0.032 A 
HETATM   13  C   UNK N   1      30.994  15.616   4.099  0.00  0.00     0.032 A 
HETATM   14  N   UNK N   1      26.078  13.531   3.710  0.00  0.00    -0.191 NA
HETATM   15  N   UNK N   1      30.239  16.582   6.293  0.00  0.00    -0.344 N 
HETATM   16  S   UNK N   1      32.541  16.480   4.066  0.00  0.00    -0.086 SA
ENDROOT
BRANCH  15  17
HETATM   17  C   UNK N   1      29.042  16.890   7.102  0.00  0.00     0.135 C 
BRANCH  17  18
HETATM   18  C   UNK N   1      28.578  18.347   7.180  0.00  0.00     0.028 C 
HETATM   19  C   UNK N   1      28.188  18.774   8.582  0.00  0.00     0.013 C 
BRANCH  18  20
HETATM   20  C   UNK N   1      27.471  18.631   6.161  0.00  0.00     0.277 C 
BRANCH  20  21
HETATM   21  N   UNK N   1      27.599  19.964   5.569  0.00  0.00     0.080 N 
HETATM   22  C   UNK N   1      26.425  20.723   5.962  0.00  0.00     0.309 C 
HETATM   23  C   UNK N   1      27.558  19.868   4.116  0.00  0.00     0.309 C 
ENDBRANCH  20  21
ENDBRANCH  18  20
ENDBRANCH  17  18
ENDBRANCH  15  17
TORSDOF 4
ENDMDL
MODEL 9
REMARK VINA RESULT:      -5.5      5.551      7.057
REMARK  4 active torsions:
REMARK  status: ('A' for Active; 'I' for Inactive)
REMARK    1  A    between atoms: C_14  and  C_12 
REMARK    2  A    between atoms: N_21  and  C_12 
REMARK    3  A    between atoms: C_14  and  C_13 
REMARK    4  A    between atoms: N_22  and  C_13 
ROOT
HETATM    1  C   UNK N   1      23.186  11.605  10.095  0.00  0.00     0.002 A 
HETATM    2  C   UNK N   1      22.134  11.937  10.936  0.00  0.00     0.002 A 
HETATM    3  C   UNK N   1      23.389  12.331   8.928  0.00  0.00     0.031 A 
HETATM    4  C   UNK N   1      21.267  12.967  10.584  0.00  0.00     0.021 A 
HETATM    5  C   UNK N   1      21.062  17.952   6.558  0.00  0.00     0.024 A 
HETATM    6  C   UNK N   1      20.516  17.150   7.561  0.00  0.00     0.023 A 
HETATM    7  C   UNK N   1      22.760  16.289   6.183  0.00  0.00     0.053 A 
HETATM    8  C   UNK N   1      22.711  18.192   4.736  0.00  0.00     0.099 C 
HETATM    9  C   UNK N   1      22.184  17.501   5.865  0.00  0.00     0.046 A 
HETATM   10  C   UNK N   1      22.559  13.407   8.568  0.00  0.00     0.052 A 
HETATM   11  C   UNK N   1      22.235  15.462   7.175  0.00  0.00     0.053 A 
HETATM   12  C   UNK N   1      21.464  13.701   9.413  0.00  0.00     0.032 A 
HETATM   13  C   UNK N   1      21.084  15.905   7.868  0.00  0.00     0.032 A 
HETATM   14  N   UNK N   1      23.184  18.703   3.815  0.00  0.00    -0.191 NA
HETATM   15  N   UNK N   1      22.868  14.196   7.403  0.00  0.00    -0.344 N 
HETATM   16  S   UNK N   1      20.212  14.911   9.048  0.00  0.00    -0.086 SA
ENDROOT
BRANCH  15  17
HETATM   17  C   UNK N   1      23.851  13.755   6.393  0.00  0.00     0.135 C 
BRANCH  17  18
HETATM   18  C   UNK N   1      23.407  12.722   5.355  0.00  0.00     0.028 C 
HETATM   19  C   UNK N   1      24.137  11.399   5.480  0.00  0.00     0.013 C 
BRANCH  18  20
HETATM   20  C   UNK N   1      23.485  13.292   3.936  0.00  0.00     0.277 C 
BRANCH  20  21
HETATM   21  N   UNK N   1      24.707  14.071   3.725  0.00  0.00     0.080 N 
HETATM   22  C   UNK N   1      24.330  15.268   2.992  0.00  0.00     0.309 C 
HETATM   23  C   UNK N   1      25.622  13.335   2.864  0.00  0.00     0.309 C 
ENDBRANCH  20  21
ENDBRANCH  18  20
ENDBRANCH  17  18
ENDBRANCH  15  17
TORSDOF 4
ENDMDL
