MODEL 1
REMARK VINA RESULT:     -13.6      0.000      0.000
REMARK  9 active torsions:
REMARK  status: ('A' for Active; 'I' for Inactive)
REMARK    1  A    between atoms: C_21  and  C_13 
REMARK    2  A    between atoms: C_19  and  C_18 
REMARK    3  A    between atoms: C_24  and  C_20 
REMARK    4  A    between atoms: N_31  and  C_22 
REMARK    5  A    between atoms: C_25  and  C_24 
REMARK    6  A    between atoms: C_27  and  C_25 
REMARK    7  A    between atoms: C_27  and  C_26 
REMARK    8  A    between atoms: O_38  and  C_28 
REMARK    9  A    between atoms: O_37  and  C_29 
ROOT
HETATM    1  C   UNK N   1      34.191  18.494   7.957  0.00  0.00     0.034 A 
HETATM    2  C   UNK N   1      37.297  12.853  12.152  0.00  0.00     0.040 A 
HETATM    3  C   UNK N   1      34.591  17.866   8.312  0.00  0.00     0.175 A 
HETATM    4  C   UNK N   1      35.959  11.738  17.007  0.00  0.00     0.004 A 
HETATM    5  C   UNK N   1      36.138  11.954  16.231  0.00  0.00     0.012 A 
HETATM    6  C   UNK N   1      35.381  12.149  17.426  0.00  0.00     0.042 A 
HETATM    7  C   UNK N   1      36.495  12.388  14.680  0.00  0.00     0.016 A 
HETATM    8  C   UNK N   1      36.674  12.604  13.904  0.00  0.00     0.030 A 
HETATM    9  C   UNK N   1      36.454  13.449  12.772  0.00  0.00     0.026 A 
HETATM   10  C   UNK N   1      34.854  15.960  11.350  0.00  0.00     0.026 A 
HETATM   11  C   UNK N   1      35.254  15.332  11.706  0.00  0.00     0.007 A 
HETATM   12  C   UNK N   1      36.053  14.077  12.417  0.00  0.00    -0.019 A 
HETATM   13  C   UNK N   1      35.159  12.994  16.296  0.00  0.00     0.054 A 
HETATM   14  C   UNK N   1      35.612  15.765  10.155  0.00  0.00     0.030 A 
HETATM   15  C   UNK N   1      36.590  14.727  10.090  0.00  0.00     0.020 A 
HETATM   16  C   UNK N   1      35.517  13.427  14.744  0.00  0.00     0.100 A 
HETATM   17  C   UNK N   1      37.293  13.245  11.425  0.00  0.00     0.133 A 
HETATM   18  C   UNK N   1      35.738  12.582  15.875  0.00  0.00    -0.022 A 
HETATM   19  C   UNK N   1      35.917  12.799  15.099  0.00  0.00    -0.010 A 
HETATM   20  C   UNK N   1      36.011  15.138  10.510  0.00  0.00    -0.007 A 
HETATM   21  C   UNK N   1      34.980  12.777  17.071  0.00  0.00     0.117 A 
HETATM   22  C   UNK N   1      36.275  13.232  13.548  0.00  0.00     0.031 A 
HETATM   23  C   UNK N   1      35.033  16.177  10.574  0.00  0.00     0.085 A 
HETATM   24  C   UNK N   1      35.833  14.921  11.285  0.00  0.00    -0.002 A 
HETATM   25  C   UNK N   1      36.232  14.293  11.641  0.00  0.00     0.020 A 
HETATM   26  C   UNK N   1      36.990  14.098  10.445  0.00  0.00     0.093 A 
HETATM   27  C   UNK N   1      36.811  13.882  11.221  0.00  0.00     0.036 A 
HETATM   28  C   UNK N   1      37.582  13.595  10.171  0.00  0.00     0.263 A 
HETATM   29  C   UNK N   1      34.812  17.021   9.444  0.00  0.00     0.258 A 
HETATM   30  F   UNK N   1      34.402  13.188  17.491  0.00  0.00    -0.206 F 
HETATM   31  N   UNK N   1      35.696  13.643  13.968  0.00  0.00    -0.365 N 
ATOM     32  HN  UNK N   1      35.201  14.420  13.529  1.00  0.00     0.165 HD
HETATM   33  N   UNK N   1      34.633  16.805  10.219  0.00  0.00    -0.346 N 
ATOM     34  HN  UNK N   1      33.917  17.314  10.739  1.00  0.00     0.164 HD
HETATM   35  O   UNK N   1      37.927  13.616   9.421  0.00  0.00    -0.265 OA
HETATM   36  O   UNK N   1      35.390  16.610   9.023  0.00  0.00    -0.327 OA
HETATM   37  O   UNK N   1      34.412  17.650   9.088  0.00  0.00    -0.317 OA
HETATM   38  O   UNK N   1      37.770  13.067  10.776  0.00  0.00    -0.316 OA
HETATM   39  H   UNK N   1      35.844  15.897   9.427  0.00  0.00     0.221 HD
ENDROOT
TORSDOF 9
ENDMDL
MODEL 2
REMARK VINA RESULT:     -13.5     13.514     15.339
REMARK  9 active torsions:
REMARK  status: ('A' for Active; 'I' for Inactive)
REMARK    1  A    between atoms: C_21  and  C_13 
REMARK    2  A    between atoms: C_19  and  C_18 
REMARK    3  A    between atoms: C_24  and  C_20 
REMARK    4  A    between atoms: N_31  and  C_22 
REMARK    5  A    between atoms: C_25  and  C_24 
REMARK    6  A    between atoms: C_27  and  C_25 
REMARK    7  A    between atoms: C_27  and  C_26 
REMARK    8  A    between atoms: O_38  and  C_28 
REMARK    9  A    between atoms: O_37  and  C_29 
ROOT
HETATM    1  C   UNK N   1      21.569  19.443   3.434  0.00  0.00     0.034 A 
HETATM    2  C   UNK N   1      19.843  14.942   9.420  0.00  0.00     0.040 A 
HETATM    3  C   UNK N   1      21.277  19.010   4.072  0.00  0.00     0.175 A 
HETATM    4  C   UNK N   1      23.113  11.614  11.619  0.00  0.00     0.004 A 
HETATM    5  C   UNK N   1      22.628  12.159  11.234  0.00  0.00     0.012 A 
HETATM    6  C   UNK N   1      23.890  11.502  11.365  0.00  0.00     0.042 A 
HETATM    7  C   UNK N   1      21.658  13.249  10.464  0.00  0.00     0.016 A 
HETATM    8  C   UNK N   1      21.173  13.794  10.079  0.00  0.00     0.030 A 
HETATM    9  C   UNK N   1      20.979  14.773   9.056  0.00  0.00     0.026 A 
HETATM   10  C   UNK N   1      22.148  16.507   6.503  0.00  0.00     0.026 A 
HETATM   11  C   UNK N   1      21.856  16.073   7.142  0.00  0.00     0.007 A 
HETATM   12  C   UNK N   1      21.272  15.206   8.418  0.00  0.00    -0.019 A 
HETATM   13  C   UNK N   1      23.698  12.481  10.342  0.00  0.00     0.054 A 
HETATM   14  C   UNK N   1      20.885  17.164   6.372  0.00  0.00     0.030 A 
HETATM   15  C   UNK N   1      19.817  16.842   7.263  0.00  0.00     0.020 A 
HETATM   16  C   UNK N   1      22.727  13.571   9.572  0.00  0.00     0.100 A 
HETATM   17  C   UNK N   1      19.572  15.518   8.894  0.00  0.00     0.133 A 
HETATM   18  C   UNK N   1      22.920  12.592  10.596  0.00  0.00    -0.022 A 
HETATM   19  C   UNK N   1      22.435  13.138  10.211  0.00  0.00    -0.010 A 
HETATM   20  C   UNK N   1      20.593  16.730   7.010  0.00  0.00    -0.007 A 
HETATM   21  C   UNK N   1      24.183  11.936  10.727  0.00  0.00     0.117 A 
HETATM   22  C   UNK N   1      21.464  14.228   9.441  0.00  0.00     0.031 A 
HETATM   23  C   UNK N   1      21.663  17.052   6.118  0.00  0.00     0.085 A 
HETATM   24  C   UNK N   1      21.078  16.185   7.395  0.00  0.00    -0.002 A 
HETATM   25  C   UNK N   1      20.787  15.751   8.033  0.00  0.00     0.020 A 
HETATM   26  C   UNK N   1      19.524  16.408   7.901  0.00  0.00     0.093 A 
HETATM   27  C   UNK N   1      20.009  15.863   8.286  0.00  0.00     0.036 A 
HETATM   28  C   UNK N   1      18.788  16.400   8.272  0.00  0.00     0.263 A 
HETATM   29  C   UNK N   1      21.470  18.031   5.096  0.00  0.00     0.258 A 
HETATM   30  F   UNK N   1      24.959  11.824  10.474  0.00  0.00    -0.206 F 
HETATM   31  N   UNK N   1      22.242  14.116   9.187  0.00  0.00    -0.365 N 
ATOM     32  HN  UNK N   1      22.603  14.652   8.399  1.00  0.00     0.165 HD
HETATM   33  N   UNK N   1      21.955  17.486   5.480  0.00  0.00    -0.346 N 
ATOM     34  HN  UNK N   1      22.916  17.348   5.167  1.00  0.00     0.164 HD
HETATM   35  O   UNK N   1      18.136  16.861   8.065  0.00  0.00    -0.265 OA
HETATM   36  O   UNK N   1      20.693  18.143   5.348  0.00  0.00    -0.327 OA
HETATM   37  O   UNK N   1      21.762  18.465   4.457  0.00  0.00    -0.317 OA
HETATM   38  O   UNK N   1      18.817  15.849   8.886  0.00  0.00    -0.316 OA
HETATM   39  H   UNK N   1      20.361  17.650   6.073  0.00  0.00     0.221 HD
ENDROOT
TORSDOF 9
ENDMDL
MODEL 3
REMARK VINA RESULT:     -13.0      2.359      3.423
REMARK  9 active torsions:
REMARK  status: ('A' for Active; 'I' for Inactive)
REMARK    1  A    between atoms: C_21  and  C_13 
REMARK    2  A    between atoms: C_19  and  C_18 
REMARK    3  A    between atoms: C_24  and  C_20 
REMARK    4  A    between atoms: N_31  and  C_22 
REMARK    5  A    between atoms: C_25  and  C_24 
REMARK    6  A    between atoms: C_27  and  C_25 
REMARK    7  A    between atoms: C_27  and  C_26 
REMARK    8  A    between atoms: O_38  and  C_28 
REMARK    9  A    between atoms: O_37  and  C_29 
ROOT
HETATM    1  C   UNK N   1      30.793  14.530   5.593  0.00  0.00     0.034 A 
HETATM    2  C   UNK N   1      35.668  16.374  11.240  0.00  0.00     0.040 A 
HETATM    3  C   UNK N   1      31.329  14.830   6.142  0.00  0.00     0.175 A 
HETATM    4  C   UNK N   1      36.841  13.303  15.216  0.00  0.00     0.004 A 
HETATM    5  C   UNK N   1      36.622  13.757  14.562  0.00  0.00     0.012 A 
HETATM    6  C   UNK N   1      36.523  12.550  15.319  0.00  0.00     0.042 A 
HETATM    7  C   UNK N   1      36.184  14.664  13.256  0.00  0.00     0.016 A 
HETATM    8  C   UNK N   1      35.965  15.118  12.602  0.00  0.00     0.030 A 
HETATM    9  C   UNK N   1      35.209  15.272  11.399  0.00  0.00     0.026 A 
HETATM   10  C   UNK N   1      33.061  14.070   9.201  0.00  0.00     0.026 A 
HETATM   11  C   UNK N   1      33.598  14.370   9.751  0.00  0.00     0.007 A 
HETATM   12  C   UNK N   1      34.672  14.971  10.850  0.00  0.00    -0.019 A 
HETATM   13  C   UNK N   1      35.767  12.702  14.117  0.00  0.00     0.054 A 
HETATM   14  C   UNK N   1      33.160  15.278   8.445  0.00  0.00     0.030 A 
HETATM   15  C   UNK N   1      34.014  16.332   8.890  0.00  0.00     0.020 A 
HETATM   16  C   UNK N   1      35.329  13.610  12.810  0.00  0.00     0.100 A 
HETATM   17  C   UNK N   1      35.307  16.618  10.539  0.00  0.00     0.133 A 
HETATM   18  C   UNK N   1      36.085  13.457  14.013  0.00  0.00    -0.022 A 
HETATM   19  C   UNK N   1      35.866  13.911  13.359  0.00  0.00    -0.010 A 
HETATM   20  C   UNK N   1      33.697  15.578   8.994  0.00  0.00    -0.007 A 
HETATM   21  C   UNK N   1      35.986  12.248  14.770  0.00  0.00     0.117 A 
HETATM   22  C   UNK N   1      35.428  14.818  12.053  0.00  0.00     0.031 A 
HETATM   23  C   UNK N   1      32.842  14.524   8.548  0.00  0.00     0.085 A 
HETATM   24  C   UNK N   1      33.916  15.125   9.647  0.00  0.00    -0.002 A 
HETATM   25  C   UNK N   1      34.452  15.424  10.197  0.00  0.00     0.020 A 
HETATM   26  C   UNK N   1      34.551  16.633   9.440  0.00  0.00     0.093 A 
HETATM   27  C   UNK N   1      34.771  16.179  10.093  0.00  0.00     0.036 A 
HETATM   28  C   UNK N   1      34.953  17.351   9.483  0.00  0.00     0.263 A 
HETATM   29  C   UNK N   1      32.086  14.677   7.346  0.00  0.00     0.258 A 
HETATM   30  F   UNK N   1      35.668  11.495  14.873  0.00  0.00    -0.206 F 
HETATM   31  N   UNK N   1      35.110  14.063  12.157  0.00  0.00    -0.365 N 
ATOM     32  HN  UNK N   1      34.446  13.692  11.477  1.00  0.00     0.165 HD
HETATM   33  N   UNK N   1      32.305  14.223   7.999  0.00  0.00    -0.346 N 
ATOM     34  HN  UNK N   1      31.912  13.290   8.127  1.00  0.00     0.164 HD
HETATM   35  O   UNK N   1      34.897  17.971   8.941  0.00  0.00    -0.265 OA
HETATM   36  O   UNK N   1      32.403  15.431   7.241  0.00  0.00    -0.327 OA
HETATM   37  O   UNK N   1      31.548  14.376   6.796  0.00  0.00    -0.317 OA
HETATM   38  O   UNK N   1      35.420  17.342  10.162  0.00  0.00    -0.316 OA
HETATM   39  H   UNK N   1      33.013  15.772   7.866  0.00  0.00     0.221 HD
ENDROOT
TORSDOF 9
ENDMDL
MODEL 4
REMARK VINA RESULT:     -12.9      5.805     10.213
REMARK  9 active torsions:
REMARK  status: ('A' for Active; 'I' for Inactive)
REMARK    1  A    between atoms: C_21  and  C_13 
REMARK    2  A    between atoms: C_19  and  C_18 
REMARK    3  A    between atoms: C_24  and  C_20 
REMARK    4  A    between atoms: N_31  and  C_22 
REMARK    5  A    between atoms: C_25  and  C_24 
REMARK    6  A    between atoms: C_27  and  C_25 
REMARK    7  A    between atoms: C_27  and  C_26 
REMARK    8  A    between atoms: O_38  and  C_28 
REMARK    9  A    between atoms: O_37  and  C_29 
ROOT
HETATM    1  C   UNK N   1      35.494  16.104  10.281  0.00  0.00     0.034 A 
HETATM    2  C   UNK N   1      29.295  16.387   5.748  0.00  0.00     0.040 A 
HETATM    3  C   UNK N   1      34.859  16.025   9.762  0.00  0.00     0.175 A 
HETATM    4  C   UNK N   1      26.099  20.422   5.406  0.00  0.00     0.004 A 
HETATM    5  C   UNK N   1      26.638  19.804   5.496  0.00  0.00     0.012 A 
HETATM    6  C   UNK N   1      26.196  21.118   5.837  0.00  0.00     0.042 A 
HETATM    7  C   UNK N   1      27.716  18.567   5.674  0.00  0.00     0.016 A 
HETATM    8  C   UNK N   1      28.254  17.949   5.764  0.00  0.00     0.030 A 
HETATM    9  C   UNK N   1      29.429  17.408   6.373  0.00  0.00     0.026 A 
HETATM   10  C   UNK N   1      31.971  17.723   8.453  0.00  0.00     0.026 A 
HETATM   11  C   UNK N   1      31.335  17.644   7.933  0.00  0.00     0.007 A 
HETATM   12  C   UNK N   1      30.064  17.488   6.893  0.00  0.00    -0.019 A 
HETATM   13  C   UNK N   1      27.370  20.579   6.447  0.00  0.00     0.054 A 
HETATM   14  C   UNK N   1      32.413  16.408   8.112  0.00  0.00     0.030 A 
HETATM   15  C   UNK N   1      31.681  15.633   7.161  0.00  0.00     0.020 A 
HETATM   16  C   UNK N   1      28.448  19.343   6.625  0.00  0.00     0.100 A 
HETATM   17  C   UNK N   1      29.938  15.937   6.002  0.00  0.00     0.133 A 
HETATM   18  C   UNK N   1      27.274  19.882   6.015  0.00  0.00    -0.022 A 
HETATM   19  C   UNK N   1      27.812  19.263   6.105  0.00  0.00    -0.010 A 
HETATM   20  C   UNK N   1      31.778  16.329   7.592  0.00  0.00    -0.007 A 
HETATM   21  C   UNK N   1      26.832  21.198   6.357  0.00  0.00     0.117 A 
HETATM   22  C   UNK N   1      28.890  18.027   6.284  0.00  0.00     0.031 A 
HETATM   23  C   UNK N   1      32.510  17.105   8.543  0.00  0.00     0.085 A 
HETATM   24  C   UNK N   1      31.239  16.947   7.503  0.00  0.00    -0.002 A 
HETATM   25  C   UNK N   1      30.603  16.869   6.983  0.00  0.00     0.020 A 
HETATM   26  C   UNK N   1      31.045  15.553   6.641  0.00  0.00     0.093 A 
HETATM   27  C   UNK N   1      30.506  16.172   6.552  0.00  0.00     0.036 A 
HETATM   28  C   UNK N   1      30.809  14.938   6.147  0.00  0.00     0.263 A 
HETATM   29  C   UNK N   1      33.684  16.565   9.152  0.00  0.00     0.258 A 
HETATM   30  F   UNK N   1      26.928  21.894   6.788  0.00  0.00    -0.206 F 
HETATM   31  N   UNK N   1      28.987  18.724   6.715  0.00  0.00    -0.365 N 
ATOM     32  HN  UNK N   1      29.772  18.821   7.357  1.00  0.00     0.165 HD
HETATM   33  N   UNK N   1      33.145  17.183   9.063  0.00  0.00    -0.346 N 
ATOM     34  HN  UNK N   1      33.265  18.045   9.595  1.00  0.00     0.164 HD
HETATM   35  O   UNK N   1      31.191  14.211   6.062  0.00  0.00    -0.265 OA
HETATM   36  O   UNK N   1      33.588  15.868   8.722  0.00  0.00    -0.327 OA
HETATM   37  O   UNK N   1      34.320  16.643   9.672  0.00  0.00    -0.317 OA
HETATM   38  O   UNK N   1      30.125  15.174   5.752  0.00  0.00    -0.316 OA
HETATM   39  H   UNK N   1      32.866  15.779   8.131  0.00  0.00     0.221 HD
ENDROOT
TORSDOF 9
ENDMDL
MODEL 5
REMARK VINA RESULT:     -12.9      3.896      6.791
REMARK  9 active torsions:
REMARK  status: ('A' for Active; 'I' for Inactive)
REMARK    1  A    between atoms: C_21  and  C_13 
REMARK    2  A    between atoms: C_19  and  C_18 
REMARK    3  A    between atoms: C_24  and  C_20 
REMARK    4  A    between atoms: N_31  and  C_22 
REMARK    5  A    between atoms: C_25  and  C_24 
REMARK    6  A    between atoms: C_27  and  C_25 
REMARK    7  A    between atoms: C_27  and  C_26 
REMARK    8  A    between atoms: O_38  and  C_28 
REMARK    9  A    between atoms: O_37  and  C_29 
ROOT
HETATM    1  C   UNK N   1      35.311  13.899  12.095  0.00  0.00     0.034 A 
HETATM    2  C   UNK N   1      35.227  12.437  19.639  0.00  0.00     0.040 A 
HETATM    3  C   UNK N   1      35.303  13.860  12.918  0.00  0.00     0.175 A 
HETATM    4  C   UNK N   1      35.172   7.710  21.704  0.00  0.00     0.004 A 
HETATM    5  C   UNK N   1      35.181   8.444  21.327  0.00  0.00     0.012 A 
HETATM    6  C   UNK N   1      35.171   7.017  21.258  0.00  0.00     0.042 A 
HETATM    7  C   UNK N   1      35.200   9.911  20.572  0.00  0.00     0.016 A 
HETATM    8  C   UNK N   1      35.209  10.645  20.195  0.00  0.00     0.030 A 
HETATM    9  C   UNK N   1      35.226  11.419  18.994  0.00  0.00     0.026 A 
HETATM   10  C   UNK N   1      35.259  11.579  15.698  0.00  0.00     0.026 A 
HETATM   11  C   UNK N   1      35.251  11.539  16.523  0.00  0.00     0.007 A 
HETATM   12  C   UNK N   1      35.234  11.458  18.170  0.00  0.00    -0.019 A 
HETATM   13  C   UNK N   1      35.189   7.790  20.056  0.00  0.00     0.054 A 
HETATM   14  C   UNK N   1      35.269  13.006  15.768  0.00  0.00     0.030 A 
HETATM   15  C   UNK N   1      35.262  13.659  17.038  0.00  0.00     0.020 A 
HETATM   16  C   UNK N   1      35.207   9.257  19.302  0.00  0.00     0.100 A 
HETATM   17  C   UNK N   1      35.237  13.018  19.053  0.00  0.00     0.133 A 
HETATM   18  C   UNK N   1      35.189   8.484  20.503  0.00  0.00    -0.022 A 
HETATM   19  C   UNK N   1      35.199   9.218  20.126  0.00  0.00    -0.010 A 
HETATM   20  C   UNK N   1      35.261  12.966  16.591  0.00  0.00    -0.007 A 
HETATM   21  C   UNK N   1      35.179   7.057  20.434  0.00  0.00     0.117 A 
HETATM   22  C   UNK N   1      35.217  10.685  19.371  0.00  0.00     0.031 A 
HETATM   23  C   UNK N   1      35.268  12.312  15.321  0.00  0.00     0.085 A 
HETATM   24  C   UNK N   1      35.252  12.232  16.969  0.00  0.00    -0.002 A 
HETATM   25  C   UNK N   1      35.243  12.192  17.792  0.00  0.00     0.020 A 
HETATM   26  C   UNK N   1      35.253  13.620  17.862  0.00  0.00     0.093 A 
HETATM   27  C   UNK N   1      35.244  12.886  18.239  0.00  0.00     0.036 A 
HETATM   28  C   UNK N   1      35.252  14.204  18.443  0.00  0.00     0.263 A 
HETATM   29  C   UNK N   1      35.285  13.086  14.120  0.00  0.00     0.258 A 
HETATM   30  F   UNK N   1      35.179   6.364  19.987  0.00  0.00    -0.206 F 
HETATM   31  N   UNK N   1      35.216   9.991  18.924  0.00  0.00    -0.365 N 
ATOM     32  HN  UNK N   1      35.226  10.041  17.906  1.00  0.00     0.165 HD
HETATM   33  N   UNK N   1      35.276  12.352  14.497  0.00  0.00    -0.346 N 
ATOM     34  HN  UNK N   1      35.275  11.494  13.944  1.00  0.00     0.164 HD
HETATM   35  O   UNK N   1      35.260  15.019  18.311  0.00  0.00    -0.265 OA
HETATM   36  O   UNK N   1      35.286  13.780  14.566  0.00  0.00    -0.327 OA
HETATM   37  O   UNK N   1      35.294  13.126  13.295  0.00  0.00    -0.317 OA
HETATM   38  O   UNK N   1      35.242  13.833  19.179  0.00  0.00    -0.316 OA
HETATM   39  H   UNK N   1      35.277  13.734  15.502  0.00  0.00     0.221 HD
ENDROOT
TORSDOF 9
ENDMDL
MODEL 6
REMARK VINA RESULT:     -12.8      4.164      8.545
REMARK  9 active torsions:
REMARK  status: ('A' for Active; 'I' for Inactive)
REMARK    1  A    between atoms: C_21  and  C_13 
REMARK    2  A    between atoms: C_19  and  C_18 
REMARK    3  A    between atoms: C_24  and  C_20 
REMARK    4  A    between atoms: N_31  and  C_22 
REMARK    5  A    between atoms: C_25  and  C_24 
REMARK    6  A    between atoms: C_27  and  C_25 
REMARK    7  A    between atoms: C_27  and  C_26 
REMARK    8  A    between atoms: O_38  and  C_28 
REMARK    9  A    between atoms: O_37  and  C_29 
ROOT
HETATM    1  C   UNK N   1      34.664   7.210  21.210  0.00  0.00     0.034 A 
HETATM    2  C   UNK N   1      35.477  13.814  17.365  0.00  0.00     0.040 A 
HETATM    3  C   UNK N   1      34.732   7.971  20.901  0.00  0.00     0.175 A 
HETATM    4  C   UNK N   1      36.438  14.158  12.308  0.00  0.00     0.004 A 
HETATM    5  C   UNK N   1      36.284  14.051  13.112  0.00  0.00     0.012 A 
HETATM    6  C   UNK N   1      36.522  13.503  11.814  0.00  0.00     0.042 A 
HETATM    7  C   UNK N   1      35.978  13.837  14.719  0.00  0.00     0.016 A 
HETATM    8  C   UNK N   1      35.824  13.731  15.523  0.00  0.00     0.030 A 
HETATM    9  C   UNK N   1      35.602  12.862  16.636  0.00  0.00     0.026 A 
HETATM   10  C   UNK N   1      35.329   9.815  17.872  0.00  0.00     0.026 A 
HETATM   11  C   UNK N   1      35.397  10.577  17.563  0.00  0.00     0.007 A 
HETATM   12  C   UNK N   1      35.534  12.100  16.944  0.00  0.00    -0.019 A 
HETATM   13  C   UNK N   1      36.301  12.634  12.927  0.00  0.00     0.054 A 
HETATM   14  C   UNK N   1      35.091  10.364  19.170  0.00  0.00     0.030 A 
HETATM   15  C   UNK N   1      35.074  11.780  19.355  0.00  0.00     0.020 A 
HETATM   16  C   UNK N   1      35.994  12.421  14.534  0.00  0.00     0.100 A 
HETATM   17  C   UNK N   1      35.334  13.459  18.096  0.00  0.00     0.133 A 
HETATM   18  C   UNK N   1      36.216  13.290  13.422  0.00  0.00    -0.022 A 
HETATM   19  C   UNK N   1      36.062  13.183  14.225  0.00  0.00    -0.010 A 
HETATM   20  C   UNK N   1      35.159  11.125  18.861  0.00  0.00    -0.007 A 
HETATM   21  C   UNK N   1      36.454  12.741  12.123  0.00  0.00     0.117 A 
HETATM   22  C   UNK N   1      35.756  12.969  15.832  0.00  0.00     0.031 A 
HETATM   23  C   UNK N   1      35.175   9.708  18.676  0.00  0.00     0.085 A 
HETATM   24  C   UNK N   1      35.312  11.232  18.058  0.00  0.00    -0.002 A 
HETATM   25  C   UNK N   1      35.381  11.993  17.748  0.00  0.00     0.020 A 
HETATM   26  C   UNK N   1      35.142  12.542  19.046  0.00  0.00     0.093 A 
HETATM   27  C   UNK N   1      35.296  12.649  18.243  0.00  0.00     0.036 A 
HETATM   28  C   UNK N   1      35.086  13.286  19.396  0.00  0.00     0.263 A 
HETATM   29  C   UNK N   1      34.954   8.840  19.788  0.00  0.00     0.258 A 
HETATM   30  F   UNK N   1      36.539  12.087  11.629  0.00  0.00    -0.206 F 
HETATM   31  N   UNK N   1      35.841  12.314  15.337  0.00  0.00    -0.365 N 
ATOM     32  HN  UNK N   1      35.756  11.372  15.720  1.00  0.00     0.165 HD
HETATM   33  N   UNK N   1      35.107   8.947  18.985  0.00  0.00    -0.346 N 
ATOM     34  HN  UNK N   1      35.212   8.136  18.373  1.00  0.00     0.164 HD
HETATM   35  O   UNK N   1      34.937  13.437  20.193  0.00  0.00    -0.265 OA
HETATM   36  O   UNK N   1      34.869   9.495  20.283  0.00  0.00    -0.327 OA
HETATM   37  O   UNK N   1      34.885   8.078  20.098  0.00  0.00    -0.317 OA
HETATM   38  O   UNK N   1      35.205  13.854  18.809  0.00  0.00    -0.316 OA
HETATM   39  H   UNK N   1      34.947  10.359  19.931  0.00  0.00     0.221 HD
ENDROOT
TORSDOF 9
ENDMDL
MODEL 7
REMARK VINA RESULT:     -12.8      9.993     13.838
REMARK  9 active torsions:
REMARK  status: ('A' for Active; 'I' for Inactive)
REMARK    1  A    between atoms: C_21  and  C_13 
REMARK    2  A    between atoms: C_19  and  C_18 
REMARK    3  A    between atoms: C_24  and  C_20 
REMARK    4  A    between atoms: N_31  and  C_22 
REMARK    5  A    between atoms: C_25  and  C_24 
REMARK    6  A    between atoms: C_27  and  C_25 
REMARK    7  A    between atoms: C_27  and  C_26 
REMARK    8  A    between atoms: O_38  and  C_28 
REMARK    9  A    between atoms: O_37  and  C_29 
ROOT
HETATM    1  C   UNK N   1      19.681  18.724   2.885  0.00  0.00     0.034 A 
HETATM    2  C   UNK N   1      27.141  20.010   4.214  0.00  0.00     0.040 A 
HETATM    3  C   UNK N   1      20.479  18.928   2.930  0.00  0.00     0.175 A 
HETATM    4  C   UNK N   1      29.788  18.049   8.183  0.00  0.00     0.004 A 
HETATM    5  C   UNK N   1      29.322  18.338   7.566  0.00  0.00     0.012 A 
HETATM    6  C   UNK N   1      29.455  17.556   8.754  0.00  0.00     0.042 A 
HETATM    7  C   UNK N   1      28.391  18.916   6.332  0.00  0.00     0.016 A 
HETATM    8  C   UNK N   1      27.926  19.205   5.716  0.00  0.00     0.030 A 
HETATM    9  C   UNK N   1      26.663  19.289   5.053  0.00  0.00     0.026 A 
HETATM   10  C   UNK N   1      23.471  18.471   4.871  0.00  0.00     0.026 A 
HETATM   11  C   UNK N   1      24.269  18.676   4.917  0.00  0.00     0.007 A 
HETATM   12  C   UNK N   1      25.865  19.084   5.008  0.00  0.00    -0.019 A 
HETATM   13  C   UNK N   1      28.192  17.640   8.092  0.00  0.00     0.054 A 
HETATM   14  C   UNK N   1      23.339  19.253   3.683  0.00  0.00     0.030 A 
HETATM   15  C   UNK N   1      24.468  19.951   3.157  0.00  0.00     0.020 A 
HETATM   16  C   UNK N   1      27.261  18.218   6.859  0.00  0.00     0.100 A 
HETATM   17  C   UNK N   1      26.496  20.161   3.721  0.00  0.00     0.133 A 
HETATM   18  C   UNK N   1      28.524  18.134   7.520  0.00  0.00    -0.022 A 
HETATM   19  C   UNK N   1      28.059  18.423   6.903  0.00  0.00    -0.010 A 
HETATM   20  C   UNK N   1      24.136  19.458   3.728  0.00  0.00    -0.007 A 
HETATM   21  C   UNK N   1      28.657  17.351   8.709  0.00  0.00     0.117 A 
HETATM   22  C   UNK N   1      27.128  19.000   5.670  0.00  0.00     0.031 A 
HETATM   23  C   UNK N   1      23.005  18.760   4.254  0.00  0.00     0.085 A 
HETATM   24  C   UNK N   1      24.601  19.169   4.345  0.00  0.00    -0.002 A 
HETATM   25  C   UNK N   1      25.399  19.373   4.391  0.00  0.00     0.020 A 
HETATM   26  C   UNK N   1      25.266  20.156   3.202  0.00  0.00     0.093 A 
HETATM   27  C   UNK N   1      25.732  19.867   3.819  0.00  0.00     0.036 A 
HETATM   28  C   UNK N   1      25.743  20.628   2.723  0.00  0.00     0.263 A 
HETATM   29  C   UNK N   1      21.743  18.844   3.592  0.00  0.00     0.258 A 
HETATM   30  F   UNK N   1      28.325  16.858   9.280  0.00  0.00    -0.206 F 
HETATM   31  N   UNK N   1      26.795  18.507   6.242  0.00  0.00    -0.365 N 
ATOM     32  HN  UNK N   1      25.809  18.254   6.186  1.00  0.00     0.165 HD
HETATM   33  N   UNK N   1      22.208  18.555   4.209  0.00  0.00    -0.346 N 
ATOM     34  HN  UNK N   1      21.796  17.945   4.916  1.00  0.00     0.164 HD
HETATM   35  O   UNK N   1      25.502  21.027   2.043  0.00  0.00    -0.265 OA
HETATM   36  O   UNK N   1      22.074  19.338   3.021  0.00  0.00    -0.327 OA
HETATM   37  O   UNK N   1      20.944  18.640   3.547  0.00  0.00    -0.317 OA
HETATM   38  O   UNK N   1      26.503  20.631   3.044  0.00  0.00    -0.316 OA
HETATM   39  H   UNK N   1      22.981  19.569   3.073  0.00  0.00     0.221 HD
ENDROOT
TORSDOF 9
ENDMDL
MODEL 8
REMARK VINA RESULT:     -12.6      3.923      8.272
REMARK  9 active torsions:
REMARK  status: ('A' for Active; 'I' for Inactive)
REMARK    1  A    between atoms: C_21  and  C_13 
REMARK    2  A    between atoms: C_19  and  C_18 
REMARK    3  A    between atoms: C_24  and  C_20 
REMARK    4  A    between atoms: N_31  and  C_22 
REMARK    5  A    between atoms: C_25  and  C_24 
REMARK    6  A    between atoms: C_27  and  C_25 
REMARK    7  A    between atoms: C_27  and  C_26 
REMARK    8  A    between atoms: O_38  and  C_28 
REMARK    9  A    between atoms: O_37  and  C_29 
ROOT
HETATM    1  C   UNK N   1      37.594  11.312  11.553  0.00  0.00     0.034 A 
HETATM    2  C   UNK N   1      34.278  17.469   8.365  0.00  0.00     0.040 A 
HETATM    3  C   UNK N   1      37.256  12.025  11.316  0.00  0.00     0.175 A 
HETATM    4  C   UNK N   1      32.523  17.668   3.519  0.00  0.00     0.004 A 
HETATM    5  C   UNK N   1      32.818  17.587   4.285  0.00  0.00     0.012 A 
HETATM    6  C   UNK N   1      32.566  17.036   2.992  0.00  0.00     0.042 A 
HETATM    7  C   UNK N   1      33.409  17.425   5.817  0.00  0.00     0.016 A 
HETATM    8  C   UNK N   1      33.704  17.344   6.583  0.00  0.00     0.030 A 
HETATM    9  C   UNK N   1      34.338  16.550   7.588  0.00  0.00     0.026 A 
HETATM   10  C   UNK N   1      35.693  13.696   8.541  0.00  0.00     0.026 A 
HETATM   11  C   UNK N   1      35.354  14.410   8.302  0.00  0.00     0.007 A 
HETATM   12  C   UNK N   1      34.677  15.836   7.826  0.00  0.00    -0.019 A 
HETATM   13  C   UNK N   1      33.200  16.241   3.995  0.00  0.00     0.054 A 
HETATM   14  C   UNK N   1      35.944  14.248   9.834  0.00  0.00     0.030 A 
HETATM   15  C   UNK N   1      35.562  15.593  10.124  0.00  0.00     0.020 A 
HETATM   16  C   UNK N   1      33.791  16.079   5.527  0.00  0.00     0.100 A 
HETATM   17  C   UNK N   1      34.628  17.152   9.042  0.00  0.00     0.133 A 
HETATM   18  C   UNK N   1      33.157  16.874   4.524  0.00  0.00    -0.022 A 
HETATM   19  C   UNK N   1      33.452  16.793   5.290  0.00  0.00    -0.010 A 
HETATM   20  C   UNK N   1      35.606  14.961   9.597  0.00  0.00    -0.007 A 
HETATM   21  C   UNK N   1      32.905  16.322   3.229  0.00  0.00     0.117 A 
HETATM   22  C   UNK N   1      34.043  16.631   6.822  0.00  0.00     0.031 A 
HETATM   23  C   UNK N   1      35.988  13.615   9.307  0.00  0.00     0.085 A 
HETATM   24  C   UNK N   1      35.311  15.042   8.830  0.00  0.00    -0.002 A 
HETATM   25  C   UNK N   1      34.972  15.755   8.592  0.00  0.00     0.020 A 
HETATM   26  C   UNK N   1      35.224  16.307   9.886  0.00  0.00     0.093 A 
HETATM   27  C   UNK N   1      34.929  16.388   9.120  0.00  0.00     0.036 A 
HETATM   28  C   UNK N   1      35.105  17.021  10.281  0.00  0.00     0.263 A 
HETATM   29  C   UNK N   1      36.622  12.821  10.311  0.00  0.00     0.258 A 
HETATM   30  F   UNK N   1      32.948  15.690   2.702  0.00  0.00    -0.206 F 
HETATM   31  N   UNK N   1      34.086  15.998   6.294  0.00  0.00    -0.365 N 
ATOM     32  HN  UNK N   1      34.505  15.116   6.588  1.00  0.00     0.165 HD
HETATM   33  N   UNK N   1      36.326  12.902   9.545  0.00  0.00    -0.346 N 
ATOM     34  HN  UNK N   1      36.380  12.119   8.892  1.00  0.00     0.164 HD
HETATM   35  O   UNK N   1      35.318  17.184  11.062  0.00  0.00    -0.265 OA
HETATM   36  O   UNK N   1      36.579  13.453  10.839  0.00  0.00    -0.327 OA
HETATM   37  O   UNK N   1      36.961  12.106  10.549  0.00  0.00    -0.317 OA
HETATM   38  O   UNK N   1      34.737  17.543   9.760  0.00  0.00    -0.316 OA
HETATM   39  H   UNK N   1      36.194  14.263  10.568  0.00  0.00     0.221 HD
ENDROOT
TORSDOF 9
ENDMDL
MODEL 9
REMARK VINA RESULT:     -12.6     17.934     21.149
REMARK  9 active torsions:
REMARK  status: ('A' for Active; 'I' for Inactive)
REMARK    1  A    between atoms: C_21  and  C_13 
REMARK    2  A    between atoms: C_19  and  C_18 
REMARK    3  A    between atoms: C_24  and  C_20 
REMARK    4  A    between atoms: N_31  and  C_22 
REMARK    5  A    between atoms: C_25  and  C_24 
REMARK    6  A    between atoms: C_27  and  C_25 
REMARK    7  A    between atoms: C_27  and  C_26 
REMARK    8  A    between atoms: O_38  and  C_28 
REMARK    9  A    between atoms: O_37  and  C_29 
ROOT
HETATM    1  C   UNK N   1      34.193  18.440  -4.274  0.00  0.00     0.034 A 
HETATM    2  C   UNK N   1      28.801  23.848  -3.409  0.00  0.00     0.040 A 
HETATM    3  C   UNK N   1      33.652  19.028  -4.070  0.00  0.00     0.175 A 
HETATM    4  C   UNK N   1      25.595  25.409  -7.136  0.00  0.00     0.004 A 
HETATM    5  C   UNK N   1      26.129  25.126  -6.574  0.00  0.00     0.012 A 
HETATM    6  C   UNK N   1      25.603  25.104  -7.902  0.00  0.00     0.042 A 
HETATM    7  C   UNK N   1      27.197  24.561  -5.450  0.00  0.00     0.016 A 
HETATM    8  C   UNK N   1      27.730  24.278  -4.888  0.00  0.00     0.030 A 
HETATM    9  C   UNK N   1      28.805  23.407  -4.530  0.00  0.00     0.026 A 
HETATM   10  C   UNK N   1      30.969  21.053  -5.347  0.00  0.00     0.026 A 
HETATM   11  C   UNK N   1      30.428  21.642  -5.143  0.00  0.00     0.007 A 
HETATM   12  C   UNK N   1      29.346  22.818  -4.735  0.00  0.00    -0.019 A 
HETATM   13  C   UNK N   1      26.678  24.232  -7.545  0.00  0.00     0.054 A 
HETATM   14  C   UNK N   1      31.495  21.077  -4.019  0.00  0.00     0.030 A 
HETATM   15  C   UNK N   1      30.947  21.970  -3.049  0.00  0.00     0.020 A 
HETATM   16  C   UNK N   1      27.745  23.667  -6.421  0.00  0.00     0.100 A 
HETATM   17  C   UNK N   1      29.407  23.419  -3.047  0.00  0.00     0.133 A 
HETATM   18  C   UNK N   1      26.670  24.538  -6.778  0.00  0.00    -0.022 A 
HETATM   19  C   UNK N   1      27.204  24.255  -6.216  0.00  0.00    -0.010 A 
HETATM   20  C   UNK N   1      30.954  21.665  -3.814  0.00  0.00    -0.007 A 
HETATM   21  C   UNK N   1      26.144  24.515  -8.107  0.00  0.00     0.117 A 
HETATM   22  C   UNK N   1      28.271  23.690  -5.092  0.00  0.00     0.031 A 
HETATM   23  C   UNK N   1      31.503  20.771  -4.785  0.00  0.00     0.085 A 
HETATM   24  C   UNK N   1      30.421  21.947  -4.376  0.00  0.00    -0.002 A 
HETATM   25  C   UNK N   1      29.880  22.536  -4.173  0.00  0.00     0.020 A 
HETATM   26  C   UNK N   1      30.406  22.559  -2.844  0.00  0.00     0.093 A 
HETATM   27  C   UNK N   1      29.872  22.841  -3.406  0.00  0.00     0.036 A 
HETATM   28  C   UNK N   1      30.270  22.962  -2.138  0.00  0.00     0.263 A 
HETATM   29  C   UNK N   1      32.577  19.900  -4.427  0.00  0.00     0.258 A 
HETATM   30  F   UNK N   1      26.151  24.210  -8.872  0.00  0.00    -0.206 F 
HETATM   31  N   UNK N   1      28.279  23.384  -5.859  0.00  0.00    -0.365 N 
ATOM     32  HN  UNK N   1      28.947  22.657  -6.111  1.00  0.00     0.165 HD
HETATM   33  N   UNK N   1      32.043  20.183  -4.989  0.00  0.00    -0.346 N 
ATOM     34  HN  UNK N   1      32.053  19.804  -5.937  1.00  0.00     0.164 HD
HETATM   35  O   UNK N   1      30.679  22.852  -1.430  0.00  0.00    -0.265 OA
HETATM   36  O   UNK N   1      32.570  20.205  -3.661  0.00  0.00    -0.327 OA
HETATM   37  O   UNK N   1      33.119  19.311  -4.632  0.00  0.00    -0.317 OA
HETATM   38  O   UNK N   1      29.652  23.494  -2.263  0.00  0.00    -0.316 OA
HETATM   39  H   UNK N   1      31.956  20.873  -3.430  0.00  0.00     0.221 HD
ENDROOT
TORSDOF 9
ENDMDL
