REMARK  15 active torsions:
REMARK  status: ('A' for Active; 'I' for Inactive)
REMARK    1  A    between atoms: C_39  and  C_24 
REMARK    2  A    between atoms: C_40  and  C_25 
REMARK    3  A    between atoms: C_27  and  C_26 
REMARK    4  A    between atoms: C_37  and  C_28 
REMARK    5  A    between atoms: C_38  and  C_42 
REMARK    6  A    between atoms: C_44  and  C_39 
REMARK    7  A    between atoms: C_39  and  N_58 
REMARK    8  A    between atoms: C_45  and  C_40 
REMARK    9  A    between atoms: C_40  and  N_60 
REMARK   10  A    between atoms: C_41  and  C_43 
REMARK       I    between atoms: N_62  and  C_44 
REMARK       I    between atoms: N_63  and  C_45 
REMARK   11  A    between atoms: N_58  and  C_46 
REMARK   12  A    between atoms: O_68  and  C_46 
REMARK   13  A    between atoms: N_60  and  C_47 
REMARK   14  A    between atoms: C_47  and  O_67 
REMARK   15  A    between atoms: O_69  and  C_47 
ROOT
HETATM    1  C   UNK N   1       0.714   7.333   0.632  0.00  0.00     0.258 C 
HETATM    2  O   UNK N   1       0.484   7.363   1.964  0.00  0.00    -0.327 OA
HETATM    3  H   UNK N   1       0.423   7.512   2.887  0.00  0.00     0.221 HD
ENDROOT
BRANCH   1   4
HETATM    4  N   UNK N   1      -0.227   7.018  -0.196  0.00  0.00    -0.337 N 
ATOM      5  HN  UNK N   1       0.009   7.009  -1.189  1.00  0.00     0.164 HD
BRANCH   4   6
HETATM    6  C   UNK N   1      -1.600   6.672   0.169  0.00  0.00     0.181 C 
BRANCH   6   7
HETATM    7  C   UNK N   1      -2.501   7.755  -0.478  0.00  0.00     0.009 C 
HETATM    8  C   UNK N   1      -3.986   7.591  -0.229  0.00  0.00     0.012 C 
HETATM    9  C   UNK N   1      -2.104   9.161  -0.052  0.00  0.00     0.012 C 
ENDBRANCH   6   7
BRANCH   6  10
HETATM   10  C   UNK N   1      -1.923   5.280  -0.404  0.00  0.00     0.243 C 
HETATM   11  N   UNK N   1      -3.006   4.521   0.008  0.00  0.00    -0.338 N 
HETATM   12  C   UNK N   1      -3.900   4.970   1.046  0.00  0.00     0.136 C 
HETATM   13  C   UNK N   1      -3.473   3.287  -0.659  0.00  0.00     0.155 C 
HETATM   14  C   UNK N   1      -5.085   4.050   0.864  0.00  0.00    -0.022 A 
HETATM   15  C   UNK N   1      -6.479   4.284   1.400  0.00  0.00     0.012 A 
HETATM   16  C   UNK N   1      -6.127   4.727  -0.006  0.00  0.00     0.012 A 
HETATM   17  C   UNK N   1      -4.661   2.799   0.162  0.00  0.00     0.044 C 
HETATM   18  O   UNK N   1      -1.196   4.862  -1.290  0.00  0.00    -0.271 OA
BRANCH  13  19
HETATM   19  C   UNK N   1      -2.496   2.174  -0.825  0.00  0.00     0.105 A 
HETATM   20  N   UNK N   1      -2.644   0.913  -0.359  0.00  0.00    -0.352 N 
HETATM   21  C   UNK N   1      -1.520   0.272  -0.721  0.00  0.00     0.119 A 
ATOM     22  HN  UNK N   1      -3.438   0.531   0.155  1.00  0.00     0.166 HD
HETATM   23  C   UNK N   1      -0.737   1.165  -1.429  0.00  0.00     0.059 A 
HETATM   24  N   UNK N   1      -1.366   2.338  -1.498  0.00  0.00    -0.342 N 
HETATM   25  H   UNK N   1      -1.057   3.154  -1.953  0.00  0.00     0.167 HD
BRANCH  23  26
HETATM   26  C   UNK N   1       0.695   1.152  -1.315  0.00  0.00    -0.007 C 
HETATM   27  C   UNK N   1       1.260  -0.028  -0.797  0.00  0.00     0.014 C 
HETATM   28  C   UNK N   1       2.164   0.052   0.248  0.00  0.00     0.009 C 
HETATM   29  C   UNK N   1       2.410   1.308   0.793  0.00  0.00    -0.037 C 
HETATM   30  C   UNK N   1       3.358   1.618   1.788  0.00  0.00     0.056 C 
HETATM   31  C   UNK N   1       1.959   2.460   0.198  0.00  0.00     0.021 C 
HETATM   32  C   UNK N   1       4.408   0.701   1.909  0.00  0.00    -0.016 C 
HETATM   33  C   UNK N   1       3.578   2.990   1.606  0.00  0.00     0.099 C 
HETATM   34  C   UNK N   1       5.574   1.018   1.232  0.00  0.00     0.009 C 
HETATM   35  C   UNK N   1       5.665   2.306   0.715  0.00  0.00    -0.029 C 
HETATM   36  C   UNK N   1       4.782   3.306   1.120  0.00  0.00    -0.003 C 
HETATM   37  C   UNK N   1       2.495   3.685   0.815  0.00  0.00     0.279 C 
HETATM   38  F   UNK N   1       1.570   4.356   1.591  0.00  0.00    -0.200 F 
HETATM   39  F   UNK N   1       2.985   4.539  -0.179  0.00  0.00    -0.200 F 
HETATM   40  C   UNK N   1       1.143   2.406  -0.884  0.00  0.00     0.027 C 
BRANCH  35  41
HETATM   41  C   UNK N   1       6.569   2.706  -0.310  0.00  0.00    -0.024 C 
HETATM   42  C   UNK N   1       7.868   2.213  -0.225  0.00  0.00     0.014 C 
HETATM   43  C   UNK N   1       8.896   3.085  -0.526  0.00  0.00     0.033 C 
HETATM   44  C   UNK N   1       8.539   4.376  -0.855  0.00  0.00     0.060 A 
HETATM   45  C   UNK N   1       7.289   4.807  -1.080  0.00  0.00     0.061 A 
HETATM   46  N   UNK N   1       9.328   5.414  -0.872  0.00  0.00    -0.343 N 
HETATM   47  C   UNK N   1       6.260   3.967  -0.884  0.00  0.00     0.044 C 
HETATM   48  N   UNK N   1       7.239   6.133  -1.239  0.00  0.00    -0.343 N 
HETATM   49  C   UNK N   1       8.539   6.475  -1.045  0.00  0.00     0.101 A 
HETATM   50  H   UNK N   1       6.466   6.708  -1.442  0.00  0.00     0.167 HD
ATOM     51  HN  UNK N   1      10.343   5.414  -0.773  1.00  0.00     0.167 HD
BRANCH  49  52
HETATM   52  C   UNK N   1       9.152   7.824  -1.136  0.00  0.00     0.138 C 
HETATM   53  C   UNK N   1       8.487   9.146  -0.740  0.00  0.00     0.013 C 
HETATM   54  C   UNK N   1       8.451   9.352   0.781  0.00  0.00     0.008 C 
HETATM   55  C   UNK N   1       9.657  10.033  -1.107  0.00  0.00     0.027 C 
HETATM   56  C   UNK N   1       9.923   9.644   1.131  0.00  0.00     0.020 C 
HETATM   57  C   UNK N   1      10.642   9.328  -0.183  0.00  0.00     0.067 C 
HETATM   58  N   UNK N   1      10.467   7.909  -0.479  0.00  0.00    -0.235 NA
HETATM   59  C   UNK N   1      10.803   7.015   0.537  0.00  0.00     0.224 C 
HETATM   60  O   UNK N   1       9.947   6.688   1.355  0.00  0.00    -0.277 OA
BRANCH  59  61
HETATM   61  C   UNK N   1      12.130   6.241   0.589  0.00  0.00     0.175 C 
BRANCH  61  62
HETATM   62  C   UNK N   1      13.333   6.816  -0.175  0.00  0.00     0.009 C 
HETATM   63  C   UNK N   1      13.098   7.077  -1.650  0.00  0.00     0.012 C 
HETATM   64  C   UNK N   1      13.858   8.072   0.488  0.00  0.00     0.012 C 
ENDBRANCH  61  62
BRANCH  61  65
HETATM   65  N   UNK N   1      11.985   4.793   0.362  0.00  0.00    -0.337 N 
ATOM     66  HN  UNK N   1      12.058   4.205   1.192  1.00  0.00     0.164 HD
BRANCH  65  67
HETATM   67  C   UNK N   1      11.776   4.165  -0.760  0.00  0.00     0.258 C 
BRANCH  67  68
HETATM   68  O   UNK N   1      11.620   4.836  -1.918  0.00  0.00    -0.327 OA
HETATM   69  H   UNK N   1      11.970   5.163  -2.723  0.00  0.00     0.221 HD
ENDBRANCH  67  68
BRANCH  67  70
HETATM   70  O   UNK N   1      11.694   2.809  -0.790  0.00  0.00    -0.322 OA
HETATM   71  C   UNK N   1      11.846   2.015   0.323  0.00  0.00     0.213 C 
ENDBRANCH  67  70
ENDBRANCH  65  67
ENDBRANCH  61  65
ENDBRANCH  59  61
ENDBRANCH  49  52
ENDBRANCH  35  41
ENDBRANCH  23  26
ENDBRANCH  13  19
ENDBRANCH   6  10
ENDBRANCH   4   6
ENDBRANCH   1   4
BRANCH   1  72
HETATM   72  O   UNK N   1       1.938   7.647   0.146  0.00  0.00    -0.322 OA
HETATM   73  C   UNK N   1       2.982   8.012   0.963  0.00  0.00     0.213 C 
ENDBRANCH   1  72
TORSDOF 15
