MODEL 1
REMARK VINA RESULT:      -8.2      0.000      0.000
REMARK  5 active torsions:
REMARK  status: ('A' for Active; 'I' for Inactive)
REMARK    1  A    between atoms: C_15  and  C_2 
REMARK    2  A    between atoms: N_34  and  C_13 
REMARK    3  A    between atoms: C_21  and  C_15 
REMARK    4  A    between atoms: C_15  and  N_31 
REMARK    5  A    between atoms: N_31  and  C_20 
ROOT
HETATM    1  C   UNK N   1      36.839  15.607  17.294  0.00  0.00     0.005 A 
HETATM    2  C   UNK N   1      35.965  14.733  17.941  0.00  0.00     0.043 A 
HETATM    3  C   UNK N   1      37.233  15.350  15.980  0.00  0.00     0.030 A 
HETATM    4  C   UNK N   1      35.485  13.598  17.281  0.00  0.00     0.134 A 
HETATM    5  C   UNK N   1      36.756  14.220  15.311  0.00  0.00     0.052 A 
HETATM    6  C   UNK N   1      35.885  13.332  15.947  0.00  0.00     0.098 A 
HETATM    7  C   UNK N   1      36.699  12.927  13.311  0.00  0.00     0.115 A 
HETATM    8  C   UNK N   1      35.431  12.211  15.225  0.00  0.00     0.269 A 
HETATM    9  F   UNK N   1      34.632  12.774  17.942  0.00  0.00    -0.205 F 
HETATM   10  N   UNK N   1      37.132  13.993  14.040  0.00  0.00    -0.343 N 
ATOM     11  HN  UNK N   1      37.775  14.651  13.601  1.00  0.00     0.167 HD
HETATM   12  N   UNK N   1      35.827  12.002  13.895  0.00  0.00    -0.265 N 
HETATM   13  O   UNK N   1      34.658  11.440  15.769  0.00  0.00    -0.266 OA
ENDROOT
BRANCH   7  14
HETATM   14  C   UNK N   1      37.224  12.827  11.872  0.00  0.00     0.151 C 
BRANCH  14  15
HETATM   15  C   UNK N   1      37.888  11.465  11.594  0.00  0.00     0.028 C 
HETATM   16  C   UNK N   1      37.561  10.912  10.215  0.00  0.00     0.007 C 
ENDBRANCH  14  15
BRANCH  14  17
HETATM   17  N   UNK N   1      36.165  13.088  10.912  0.00  0.00    -0.363 N 
HETATM   18  H   UNK N   1      35.829  12.327  10.385  0.00  0.00     0.162 HD
BRANCH  17  19
HETATM   19  C   UNK N   1      35.572  14.366  10.678  0.00  0.00     0.133 A 
HETATM   20  C   UNK N   1      34.329  14.558  10.054  0.00  0.00     0.122 A 
HETATM   21  C   UNK N   1      33.867  15.808   9.839  0.00  0.00     0.138 A 
HETATM   22  N   UNK N   1      33.427  13.675   9.605  0.00  0.00    -0.346 N 
HETATM   23  N   UNK N   1      32.666  15.767   9.253  0.00  0.00    -0.337 N 
HETATM   24  N   UNK N   1      34.560  16.914  10.188  0.00  0.00    -0.337 N 
HETATM   25  C   UNK N   1      32.412  14.439   9.119  0.00  0.00     0.182 A 
HETATM   26  H   UNK N   1      32.097  16.523   8.980  0.00  0.00     0.168 HD
HETATM   27  C   UNK N   1      35.771  16.749  10.799  0.00  0.00     0.183 A 
ATOM     28  HN  UNK N   1      34.189  17.847  10.003  1.00  0.00     0.168 HD
HETATM   29  N   UNK N   1      36.261  15.490  11.044  0.00  0.00    -0.337 N 
ATOM     30  HN  UNK N   1      37.161  15.389  11.512  1.00  0.00     0.168 HD
ATOM     31  HN  UNK N   1      33.488  12.657   9.623  1.00  0.00     0.167 HD
ENDBRANCH  17  19
ENDBRANCH  14  17
ENDBRANCH   7  14
BRANCH  12  32
HETATM   32  C   UNK N   1      35.313  10.818  13.183  0.00  0.00     0.044 A 
HETATM   33  C   UNK N   1      35.885   9.543  13.344  0.00  0.00     0.030 A 
HETATM   34  C   UNK N   1      35.383   8.430  12.663  0.00  0.00     0.002 A 
HETATM   35  C   UNK N   1      34.299   8.569  11.797  0.00  0.00     0.000 A 
HETATM   36  C   UNK N   1      33.723   9.823  11.606  0.00  0.00     0.002 A 
HETATM   37  C   UNK N   1      34.227  10.932  12.287  0.00  0.00     0.030 A 
ENDBRANCH  12  32
TORSDOF 5
ENDMDL
MODEL 2
REMARK VINA RESULT:      -8.0     15.281     17.840
REMARK  5 active torsions:
REMARK  status: ('A' for Active; 'I' for Inactive)
REMARK    1  A    between atoms: C_15  and  C_2 
REMARK    2  A    between atoms: N_34  and  C_13 
REMARK    3  A    between atoms: C_21  and  C_15 
REMARK    4  A    between atoms: C_15  and  N_31 
REMARK    5  A    between atoms: N_31  and  C_20 
ROOT
HETATM    1  C   UNK N   1      21.027  13.562   8.681  0.00  0.00     0.005 A 
HETATM    2  C   UNK N   1      20.754  14.800   9.261  0.00  0.00     0.043 A 
HETATM    3  C   UNK N   1      21.381  13.489   7.333  0.00  0.00     0.030 A 
HETATM    4  C   UNK N   1      20.829  15.969   8.499  0.00  0.00     0.134 A 
HETATM    5  C   UNK N   1      21.461  14.652   6.563  0.00  0.00     0.052 A 
HETATM    6  C   UNK N   1      21.186  15.900   7.128  0.00  0.00     0.098 A 
HETATM    7  C   UNK N   1      21.940  15.654   4.456  0.00  0.00     0.115 A 
HETATM    8  C   UNK N   1      21.287  17.040   6.309  0.00  0.00     0.269 A 
HETATM    9  F   UNK N   1      20.561  17.156   9.101  0.00  0.00    -0.205 F 
HETATM   10  N   UNK N   1      21.819  14.568   5.270  0.00  0.00    -0.343 N 
ATOM     11  HN  UNK N   1      22.008  13.646   4.878  1.00  0.00     0.167 HD
HETATM   12  N   UNK N   1      21.673  16.929   4.965  0.00  0.00    -0.265 N 
HETATM   13  O   UNK N   1      21.062  18.134   6.800  0.00  0.00    -0.266 OA
ENDROOT
BRANCH   7  14
HETATM   14  C   UNK N   1      22.365  15.375   3.006  0.00  0.00     0.151 C 
BRANCH  14  15
HETATM   15  C   UNK N   1      23.786  14.787   2.925  0.00  0.00     0.028 C 
HETATM   16  C   UNK N   1      24.876  15.839   3.068  0.00  0.00     0.007 C 
ENDBRANCH  14  15
BRANCH  14  17
HETATM   17  N   UNK N   1      21.409  14.506   2.343  0.00  0.00    -0.363 N 
HETATM   18  H   UNK N   1      21.478  13.538   2.513  0.00  0.00     0.162 HD
BRANCH  17  19
HETATM   19  C   UNK N   1      20.374  14.949   1.464  0.00  0.00     0.133 A 
HETATM   20  C   UNK N   1      19.304  14.147   1.035  0.00  0.00     0.122 A 
HETATM   21  C   UNK N   1      18.394  14.642   0.170  0.00  0.00     0.138 A 
HETATM   22  N   UNK N   1      18.970  12.888   1.350  0.00  0.00    -0.346 N 
HETATM   23  N   UNK N   1      17.455  13.726  -0.094  0.00  0.00    -0.337 N 
HETATM   24  N   UNK N   1      18.465  15.895  -0.330  0.00  0.00    -0.337 N 
HETATM   25  C   UNK N   1      17.830  12.652   0.648  0.00  0.00     0.182 A 
HETATM   26  H   UNK N   1      16.675  13.812  -0.688  0.00  0.00     0.168 HD
HETATM   27  C   UNK N   1      19.498  16.693   0.077  0.00  0.00     0.183 A 
ATOM     28  HN  UNK N   1      17.767  16.237  -0.991  1.00  0.00     0.168 HD
HETATM   29  N   UNK N   1      20.431  16.222   0.968  0.00  0.00    -0.337 N 
ATOM     30  HN  UNK N   1      21.186  16.838   1.267  1.00  0.00     0.168 HD
ATOM     31  HN  UNK N   1      19.461  12.250   1.976  1.00  0.00     0.167 HD
ENDBRANCH  17  19
ENDBRANCH  14  17
ENDBRANCH   7  14
BRANCH  12  32
HETATM   32  C   UNK N   1      21.774  18.158   4.155  0.00  0.00     0.044 A 
HETATM   33  C   UNK N   1      20.658  18.718   3.508  0.00  0.00     0.030 A 
HETATM   34  C   UNK N   1      20.769  19.885   2.746  0.00  0.00     0.002 A 
HETATM   35  C   UNK N   1      22.006  20.515   2.607  0.00  0.00     0.000 A 
HETATM   36  C   UNK N   1      23.132  19.973   3.224  0.00  0.00     0.002 A 
HETATM   37  C   UNK N   1      23.016  18.807   3.983  0.00  0.00     0.030 A 
ENDBRANCH  12  32
TORSDOF 5
ENDMDL
MODEL 3
REMARK VINA RESULT:      -7.9     11.760     14.242
REMARK  5 active torsions:
REMARK  status: ('A' for Active; 'I' for Inactive)
REMARK    1  A    between atoms: C_15  and  C_2 
REMARK    2  A    between atoms: N_34  and  C_13 
REMARK    3  A    between atoms: C_21  and  C_15 
REMARK    4  A    between atoms: C_15  and  N_31 
REMARK    5  A    between atoms: N_31  and  C_20 
ROOT
HETATM    1  C   UNK N   1      20.706  12.695  10.937  0.00  0.00     0.005 A 
HETATM    2  C   UNK N   1      21.921  12.196  11.406  0.00  0.00     0.043 A 
HETATM    3  C   UNK N   1      20.669  13.442   9.760  0.00  0.00     0.030 A 
HETATM    4  C   UNK N   1      23.103  12.443  10.703  0.00  0.00     0.134 A 
HETATM    5  C   UNK N   1      21.845  13.693   9.049  0.00  0.00     0.052 A 
HETATM    6  C   UNK N   1      23.071  13.204   9.507  0.00  0.00     0.098 A 
HETATM    7  C   UNK N   1      22.888  14.673   7.144  0.00  0.00     0.115 A 
HETATM    8  C   UNK N   1      24.225  13.481   8.749  0.00  0.00     0.269 A 
HETATM    9  F   UNK N   1      24.265  11.935  11.188  0.00  0.00    -0.205 F 
HETATM   10  N   UNK N   1      21.792  14.401   7.907  0.00  0.00    -0.343 N 
ATOM     11  HN  UNK N   1      20.887  14.753   7.597  1.00  0.00     0.167 HD
HETATM   12  N   UNK N   1      24.144  14.212   7.555  0.00  0.00    -0.265 N 
HETATM   13  O   UNK N   1      25.296  13.044   9.136  0.00  0.00    -0.266 OA
ENDROOT
BRANCH   7  14
HETATM   14  C   UNK N   1      22.644  15.490   5.867  0.00  0.00     0.151 C 
BRANCH  14  15
HETATM   15  C   UNK N   1      21.327  15.096   5.174  0.00  0.00     0.028 C 
HETATM   16  C   UNK N   1      21.461  14.974   3.663  0.00  0.00     0.007 C 
ENDBRANCH  14  15
BRANCH  14  17
HETATM   17  N   UNK N   1      22.673  16.915   6.149  0.00  0.00    -0.363 N 
HETATM   18  H   UNK N   1      22.345  17.212   7.028  0.00  0.00     0.162 HD
BRANCH  17  19
HETATM   19  C   UNK N   1      23.142  17.917   5.246  0.00  0.00     0.133 A 
HETATM   20  C   UNK N   1      22.316  18.650   4.380  0.00  0.00     0.122 A 
HETATM   21  C   UNK N   1      22.856  19.550   3.531  0.00  0.00     0.138 A 
HETATM   22  N   UNK N   1      20.985  18.645   4.223  0.00  0.00    -0.346 N 
HETATM   23  N   UNK N   1      21.898  20.146   2.812  0.00  0.00    -0.337 N 
HETATM   24  N   UNK N   1      24.185  19.781   3.458  0.00  0.00    -0.337 N 
HETATM   25  C   UNK N   1      20.750  19.573   3.258  0.00  0.00     0.182 A 
HETATM   26  H   UNK N   1      22.002  20.839   2.120  0.00  0.00     0.168 HD
HETATM   27  C   UNK N   1      25.007  19.079   4.295  0.00  0.00     0.183 A 
ATOM     28  HN  UNK N   1      24.565  20.460   2.798  1.00  0.00     0.168 HD
HETATM   29  N   UNK N   1      24.485  18.166   5.179  0.00  0.00    -0.337 N 
ATOM     30  HN  UNK N   1      25.115  17.663   5.802  1.00  0.00     0.168 HD
ATOM     31  HN  UNK N   1      20.300  18.073   4.718  1.00  0.00     0.167 HD
ENDBRANCH  17  19
ENDBRANCH  14  17
ENDBRANCH   7  14
BRANCH  12  32
HETATM   32  C   UNK N   1      25.383  14.464   6.795  0.00  0.00     0.044 A 
HETATM   33  C   UNK N   1      26.180  15.600   7.024  0.00  0.00     0.030 A 
HETATM   34  C   UNK N   1      27.353  15.823   6.296  0.00  0.00     0.002 A 
HETATM   35  C   UNK N   1      27.751  14.915   5.315  0.00  0.00     0.000 A 
HETATM   36  C   UNK N   1      26.972  13.789   5.056  0.00  0.00     0.002 A 
HETATM   37  C   UNK N   1      25.802  13.571   5.784  0.00  0.00     0.030 A 
ENDBRANCH  12  32
TORSDOF 5
ENDMDL
MODEL 4
REMARK VINA RESULT:      -7.9      8.226     12.019
REMARK  5 active torsions:
REMARK  status: ('A' for Active; 'I' for Inactive)
REMARK    1  A    between atoms: C_15  and  C_2 
REMARK    2  A    between atoms: N_34  and  C_13 
REMARK    3  A    between atoms: C_21  and  C_15 
REMARK    4  A    between atoms: C_15  and  N_31 
REMARK    5  A    between atoms: N_31  and  C_20 
ROOT
HETATM    1  C   UNK N   1      26.659  20.872   4.799  0.00  0.00     0.005 A 
HETATM    2  C   UNK N   1      25.525  20.243   4.285  0.00  0.00     0.043 A 
HETATM    3  C   UNK N   1      27.861  20.170   4.894  0.00  0.00     0.030 A 
HETATM    4  C   UNK N   1      25.586  18.910   3.868  0.00  0.00     0.134 A 
HETATM    5  C   UNK N   1      27.932  18.838   4.477  0.00  0.00     0.052 A 
HETATM    6  C   UNK N   1      26.804  18.192   3.965  0.00  0.00     0.098 A 
HETATM    7  C   UNK N   1      29.260  16.886   4.158  0.00  0.00     0.115 A 
HETATM    8  C   UNK N   1      26.933  16.851   3.555  0.00  0.00     0.269 A 
HETATM    9  F   UNK N   1      24.463  18.335   3.368  0.00  0.00    -0.205 F 
HETATM   10  N   UNK N   1      29.101  18.178   4.561  0.00  0.00    -0.343 N 
ATOM     11  HN  UNK N   1      29.907  18.669   4.945  1.00  0.00     0.167 HD
HETATM   12  N   UNK N   1      28.166  16.187   3.640  0.00  0.00    -0.265 N 
HETATM   13  O   UNK N   1      25.956  16.286   3.092  0.00  0.00    -0.266 OA
ENDROOT
BRANCH   7  14
HETATM   14  C   UNK N   1      30.666  16.291   4.319  0.00  0.00     0.151 C 
BRANCH  14  15
HETATM   15  C   UNK N   1      31.767  17.353   4.134  0.00  0.00     0.028 C 
HETATM   16  C   UNK N   1      32.834  16.937   3.132  0.00  0.00     0.007 C 
ENDBRANCH  14  15
BRANCH  14  17
HETATM   17  N   UNK N   1      30.805  15.625   5.602  0.00  0.00    -0.363 N 
HETATM   18  H   UNK N   1      30.475  14.700   5.674  0.00  0.00     0.162 HD
BRANCH  17  19
HETATM   19  C   UNK N   1      31.387  16.210   6.768  0.00  0.00     0.133 A 
HETATM   20  C   UNK N   1      30.685  17.006   7.687  0.00  0.00     0.122 A 
HETATM   21  C   UNK N   1      31.330  17.551   8.740  0.00  0.00     0.138 A 
HETATM   22  N   UNK N   1      29.391  17.352   7.740  0.00  0.00    -0.346 N 
HETATM   23  N   UNK N   1      30.479  18.254   9.495  0.00  0.00    -0.337 N 
HETATM   24  N   UNK N   1      32.653  17.378   8.957  0.00  0.00    -0.337 N 
HETATM   25  C   UNK N   1      29.287  18.115   8.860  0.00  0.00     0.182 A 
HETATM   26  H   UNK N   1      30.673  18.756  10.320  0.00  0.00     0.168 HD
HETATM   27  C   UNK N   1      33.354  16.604   8.075  0.00  0.00     0.183 A 
ATOM     28  HN  UNK N   1      33.115  17.811   9.757  1.00  0.00     0.168 HD
HETATM   29  N   UNK N   1      32.722  16.025   7.002  0.00  0.00    -0.337 N 
ATOM     30  HN  UNK N   1      33.261  15.441   6.364  1.00  0.00     0.168 HD
ATOM     31  HN  UNK N   1      28.650  17.099   7.086  1.00  0.00     0.167 HD
ENDBRANCH  17  19
ENDBRANCH  14  17
ENDBRANCH   7  14
BRANCH  12  32
HETATM   32  C   UNK N   1      28.246  14.786   3.185  0.00  0.00     0.044 A 
HETATM   33  C   UNK N   1      27.946  13.707   4.037  0.00  0.00     0.030 A 
HETATM   34  C   UNK N   1      28.025  12.385   3.590  0.00  0.00     0.002 A 
HETATM   35  C   UNK N   1      28.414  12.111   2.279  0.00  0.00     0.000 A 
HETATM   36  C   UNK N   1      28.732  13.159   1.418  0.00  0.00     0.002 A 
HETATM   37  C   UNK N   1      28.653  14.478   1.868  0.00  0.00     0.030 A 
ENDBRANCH  12  32
TORSDOF 5
ENDMDL
MODEL 5
REMARK VINA RESULT:      -7.9     13.759     16.163
REMARK  5 active torsions:
REMARK  status: ('A' for Active; 'I' for Inactive)
REMARK    1  A    between atoms: C_15  and  C_2 
REMARK    2  A    between atoms: N_34  and  C_13 
REMARK    3  A    between atoms: C_21  and  C_15 
REMARK    4  A    between atoms: C_15  and  N_31 
REMARK    5  A    between atoms: N_31  and  C_20 
ROOT
HETATM    1  C   UNK N   1      27.205  20.560   5.159  0.00  0.00     0.005 A 
HETATM    2  C   UNK N   1      28.088  19.686   4.525  0.00  0.00     0.043 A 
HETATM    3  C   UNK N   1      25.875  20.185   5.352  0.00  0.00     0.030 A 
HETATM    4  C   UNK N   1      27.646  18.437   4.078  0.00  0.00     0.134 A 
HETATM    5  C   UNK N   1      25.425  18.938   4.912  0.00  0.00     0.052 A 
HETATM    6  C   UNK N   1      26.295  18.053   4.270  0.00  0.00     0.098 A 
HETATM    7  C   UNK N   1      23.630  17.380   4.739  0.00  0.00     0.115 A 
HETATM    8  C   UNK N   1      25.791  16.808   3.851  0.00  0.00     0.269 A 
HETATM    9  F   UNK N   1      28.537  17.613   3.470  0.00  0.00    -0.205 F 
HETATM   10  N   UNK N   1      24.144  18.583   5.119  0.00  0.00    -0.343 N 
ATOM     11  HN  UNK N   1      23.526  19.249   5.582  1.00  0.00     0.167 HD
HETATM   12  N   UNK N   1      24.453  16.455   4.089  0.00  0.00    -0.265 N 
HETATM   13  O   UNK N   1      26.549  16.024   3.304  0.00  0.00    -0.266 OA
ENDROOT
BRANCH   7  14
HETATM   14  C   UNK N   1      22.148  17.140   5.060  0.00  0.00     0.151 C 
BRANCH  14  15
HETATM   15  C   UNK N   1      21.943  16.656   6.508  0.00  0.00     0.028 C 
HETATM   16  C   UNK N   1      21.330  15.266   6.592  0.00  0.00     0.007 C 
ENDBRANCH  14  15
BRANCH  14  17
HETATM   17  N   UNK N   1      21.360  18.331   4.798  0.00  0.00    -0.363 N 
HETATM   18  H   UNK N   1      21.023  18.835   5.574  0.00  0.00     0.162 HD
BRANCH  17  19
HETATM   19  C   UNK N   1      21.037  18.828   3.499  0.00  0.00     0.133 A 
HETATM   20  C   UNK N   1      20.625  18.024   2.425  0.00  0.00     0.122 A 
HETATM   21  C   UNK N   1      20.380  18.580   1.219  0.00  0.00     0.138 A 
HETATM   22  N   UNK N   1      20.392  16.706   2.354  0.00  0.00    -0.346 N 
HETATM   23  N   UNK N   1      19.985  17.646   0.347  0.00  0.00    -0.337 N 
HETATM   24  N   UNK N   1      20.526  19.902   0.980  0.00  0.00    -0.337 N 
HETATM   25  C   UNK N   1      19.998  16.497   1.070  0.00  0.00     0.182 A 
HETATM   26  H   UNK N   1      19.742  17.765  -0.600  0.00  0.00     0.168 HD
HETATM   27  C   UNK N   1      20.925  20.703   2.013  0.00  0.00     0.183 A 
ATOM     28  HN  UNK N   1      20.344  20.291   0.054  1.00  0.00     0.168 HD
HETATM   29  N   UNK N   1      21.168  20.168   3.254  0.00  0.00    -0.337 N 
ATOM     30  HN  UNK N   1      21.452  20.786   4.014  1.00  0.00     0.168 HD
ATOM     31  HN  UNK N   1      20.490  16.014   3.097  1.00  0.00     0.167 HD
ENDBRANCH  17  19
ENDBRANCH  14  17
ENDBRANCH   7  14
BRANCH  12  32
HETATM   32  C   UNK N   1      23.981  15.132   3.638  0.00  0.00     0.044 A 
HETATM   33  C   UNK N   1      23.416  14.936   2.365  0.00  0.00     0.030 A 
HETATM   34  C   UNK N   1      22.974  13.676   1.952  0.00  0.00     0.002 A 
HETATM   35  C   UNK N   1      23.083  12.581   2.809  0.00  0.00     0.000 A 
HETATM   36  C   UNK N   1      23.624  12.749   4.082  0.00  0.00     0.002 A 
HETATM   37  C   UNK N   1      24.062  14.009   4.491  0.00  0.00     0.030 A 
ENDBRANCH  12  32
TORSDOF 5
ENDMDL
MODEL 6
REMARK VINA RESULT:      -7.8      5.181      8.967
REMARK  5 active torsions:
REMARK  status: ('A' for Active; 'I' for Inactive)
REMARK    1  A    between atoms: C_15  and  C_2 
REMARK    2  A    between atoms: N_34  and  C_13 
REMARK    3  A    between atoms: C_21  and  C_15 
REMARK    4  A    between atoms: C_15  and  N_31 
REMARK    5  A    between atoms: N_31  and  C_20 
ROOT
HETATM    1  C   UNK N   1      28.924  18.604   9.096  0.00  0.00     0.005 A 
HETATM    2  C   UNK N   1      28.292  18.762   7.862  0.00  0.00     0.043 A 
HETATM    3  C   UNK N   1      30.060  17.801   9.198  0.00  0.00     0.030 A 
HETATM    4  C   UNK N   1      28.790  18.115   6.727  0.00  0.00     0.134 A 
HETATM    5  C   UNK N   1      30.566  17.153   8.068  0.00  0.00     0.052 A 
HETATM    6  C   UNK N   1      29.943  17.296   6.827  0.00  0.00     0.098 A 
HETATM    7  C   UNK N   1      32.240  15.745   7.125  0.00  0.00     0.115 A 
HETATM    8  C   UNK N   1      30.497  16.624   5.720  0.00  0.00     0.269 A 
HETATM    9  F   UNK N   1      28.151  18.298   5.543  0.00  0.00    -0.205 F 
HETATM   10  N   UNK N   1      31.671  16.394   8.179  0.00  0.00    -0.343 N 
ATOM     11  HN  UNK N   1      32.104  16.299   9.097  1.00  0.00     0.167 HD
HETATM   12  N   UNK N   1      31.658  15.848   5.857  0.00  0.00    -0.265 N 
HETATM   13  O   UNK N   1      29.967  16.757   4.630  0.00  0.00    -0.266 OA
ENDROOT
BRANCH   7  14
HETATM   14  C   UNK N   1      33.503  14.927   7.430  0.00  0.00     0.151 C 
BRANCH  14  15
HETATM   15  C   UNK N   1      34.787  15.681   7.035  0.00  0.00     0.028 C 
HETATM   16  C   UNK N   1      35.732  14.846   6.183  0.00  0.00     0.007 C 
ENDBRANCH  14  15
BRANCH  14  17
HETATM   17  N   UNK N   1      33.545  14.536   8.828  0.00  0.00    -0.363 N 
HETATM   18  H   UNK N   1      32.799  13.994   9.173  0.00  0.00     0.162 HD
BRANCH  17  19
HETATM   19  C   UNK N   1      34.589  14.878   9.741  0.00  0.00     0.133 A 
HETATM   20  C   UNK N   1      35.693  14.058  10.022  0.00  0.00     0.122 A 
HETATM   21  C   UNK N   1      36.610  14.448  10.932  0.00  0.00     0.138 A 
HETATM   22  N   UNK N   1      36.057  12.872   9.515  0.00  0.00    -0.346 N 
HETATM   23  N   UNK N   1      37.583  13.535  11.035  0.00  0.00    -0.337 N 
HETATM   24  N   UNK N   1      36.515  15.610  11.616  0.00  0.00    -0.337 N 
HETATM   25  C   UNK N   1      37.221  12.572  10.148  0.00  0.00     0.182 A 
HETATM   26  H   UNK N   1      38.376  13.557  11.618  0.00  0.00     0.168 HD
HETATM   27  C   UNK N   1      35.448  16.423  11.355  0.00  0.00     0.183 A 
ATOM     28  HN  UNK N   1      37.219  15.872  12.306  1.00  0.00     0.168 HD
HETATM   29  N   UNK N   1      34.506  16.060  10.425  0.00  0.00    -0.337 N 
ATOM     30  HN  UNK N   1      33.725  16.688  10.237  1.00  0.00     0.168 HD
ATOM     31  HN  UNK N   1      35.569  12.319   8.810  1.00  0.00     0.167 HD
ENDBRANCH  17  19
ENDBRANCH  14  17
ENDBRANCH   7  14
BRANCH  12  32
HETATM   32  C   UNK N   1      32.203  15.175   4.663  0.00  0.00     0.044 A 
HETATM   33  C   UNK N   1      33.111  15.812   3.797  0.00  0.00     0.030 A 
HETATM   34  C   UNK N   1      33.620  15.159   2.671  0.00  0.00     0.002 A 
HETATM   35  C   UNK N   1      33.225  13.854   2.380  0.00  0.00     0.000 A 
HETATM   36  C   UNK N   1      32.315  13.204   3.211  0.00  0.00     0.002 A 
HETATM   37  C   UNK N   1      31.808  13.859   4.334  0.00  0.00     0.030 A 
ENDBRANCH  12  32
TORSDOF 5
ENDMDL
MODEL 7
REMARK VINA RESULT:      -7.8      9.577     12.361
REMARK  5 active torsions:
REMARK  status: ('A' for Active; 'I' for Inactive)
REMARK    1  A    between atoms: C_15  and  C_2 
REMARK    2  A    between atoms: N_34  and  C_13 
REMARK    3  A    between atoms: C_21  and  C_15 
REMARK    4  A    between atoms: C_15  and  N_31 
REMARK    5  A    between atoms: N_31  and  C_20 
ROOT
HETATM    1  C   UNK N   1      29.310  18.488   9.666  0.00  0.00     0.005 A 
HETATM    2  C   UNK N   1      30.508  18.408   8.956  0.00  0.00     0.043 A 
HETATM    3  C   UNK N   1      28.167  17.856   9.175  0.00  0.00     0.030 A 
HETATM    4  C   UNK N   1      30.568  17.700   7.752  0.00  0.00     0.134 A 
HETATM    5  C   UNK N   1      28.218  17.145   7.974  0.00  0.00     0.052 A 
HETATM    6  C   UNK N   1      29.408  17.059   7.248  0.00  0.00     0.098 A 
HETATM    7  C   UNK N   1      27.082  15.799   6.370  0.00  0.00     0.115 A 
HETATM    8  C   UNK N   1      29.406  16.326   6.046  0.00  0.00     0.269 A 
HETATM    9  F   UNK N   1      31.753  17.641   7.093  0.00  0.00    -0.205 F 
HETATM   10  N   UNK N   1      27.112  16.529   7.520  0.00  0.00    -0.343 N 
ATOM     11  HN  UNK N   1      26.254  16.612   8.063  1.00  0.00     0.167 HD
HETATM   12  N   UNK N   1      28.243  15.681   5.599  0.00  0.00    -0.265 N 
HETATM   13  O   UNK N   1      30.446  16.234   5.415  0.00  0.00    -0.266 OA
ENDROOT
BRANCH   7  14
HETATM   14  C   UNK N   1      25.735  15.157   6.005  0.00  0.00     0.151 C 
BRANCH  14  15
HETATM   15  C   UNK N   1      25.543  13.792   6.691  0.00  0.00     0.028 C 
HETATM   16  C   UNK N   1      25.207  12.675   5.713  0.00  0.00     0.007 C 
ENDBRANCH  14  15
BRANCH  14  17
HETATM   17  N   UNK N   1      24.633  16.050   6.317  0.00  0.00    -0.363 N 
HETATM   18  H   UNK N   1      24.404  16.177   7.266  0.00  0.00     0.162 HD
BRANCH  17  19
HETATM   19  C   UNK N   1      23.857  16.759   5.350  0.00  0.00     0.133 A 
HETATM   20  C   UNK N   1      24.196  18.020   4.835  0.00  0.00     0.122 A 
HETATM   21  C   UNK N   1      23.378  18.632   3.953  0.00  0.00     0.138 A 
HETATM   22  N   UNK N   1      25.267  18.797   5.051  0.00  0.00    -0.346 N 
HETATM   23  N   UNK N   1      23.894  19.808   3.578  0.00  0.00    -0.337 N 
HETATM   24  N   UNK N   1      22.213  18.089   3.537  0.00  0.00    -0.337 N 
HETATM   25  C   UNK N   1      25.061  19.888   4.267  0.00  0.00     0.182 A 
HETATM   26  H   UNK N   1      23.514  20.463   2.948  0.00  0.00     0.168 HD
HETATM   27  C   UNK N   1      21.865  16.861   4.025  0.00  0.00     0.183 A 
ATOM     28  HN  UNK N   1      21.610  18.582   2.877  1.00  0.00     0.168 HD
HETATM   29  N   UNK N   1      22.684  16.207   4.913  0.00  0.00    -0.337 N 
ATOM     30  HN  UNK N   1      22.411  15.287   5.255  1.00  0.00     0.168 HD
ATOM     31  HN  UNK N   1      26.059  18.611   5.667  1.00  0.00     0.167 HD
ENDBRANCH  17  19
ENDBRANCH  14  17
ENDBRANCH   7  14
BRANCH  12  32
HETATM   32  C   UNK N   1      28.299  14.916   4.338  0.00  0.00     0.044 A 
HETATM   33  C   UNK N   1      28.043  15.514   3.091  0.00  0.00     0.030 A 
HETATM   34  C   UNK N   1      28.103  14.776   1.906  0.00  0.00     0.002 A 
HETATM   35  C   UNK N   1      28.415  13.417   1.942  0.00  0.00     0.000 A 
HETATM   36  C   UNK N   1      28.658  12.795   3.165  0.00  0.00     0.002 A 
HETATM   37  C   UNK N   1      28.596  13.535   4.346  0.00  0.00     0.030 A 
ENDBRANCH  12  32
TORSDOF 5
ENDMDL
MODEL 8
REMARK VINA RESULT:      -7.7     12.005     15.240
REMARK  5 active torsions:
REMARK  status: ('A' for Active; 'I' for Inactive)
REMARK    1  A    between atoms: C_15  and  C_2 
REMARK    2  A    between atoms: N_34  and  C_13 
REMARK    3  A    between atoms: C_21  and  C_15 
REMARK    4  A    between atoms: C_15  and  N_31 
REMARK    5  A    between atoms: N_31  and  C_20 
ROOT
HETATM    1  C   UNK N   1      20.726  14.638   9.454  0.00  0.00     0.005 A 
HETATM    2  C   UNK N   1      20.909  13.329   9.009  0.00  0.00     0.043 A 
HETATM    3  C   UNK N   1      21.075  15.708   8.630  0.00  0.00     0.030 A 
HETATM    4  C   UNK N   1      21.446  13.084   7.741  0.00  0.00     0.134 A 
HETATM    5  C   UNK N   1      21.609  15.473   7.360  0.00  0.00     0.052 A 
HETATM    6  C   UNK N   1      21.804  14.168   6.901  0.00  0.00     0.098 A 
HETATM    7  C   UNK N   1      22.433  16.372   5.314  0.00  0.00     0.115 A 
HETATM    8  C   UNK N   1      22.341  13.988   5.613  0.00  0.00     0.269 A 
HETATM    9  F   UNK N   1      21.604  11.796   7.342  0.00  0.00    -0.205 F 
HETATM   10  N   UNK N   1      21.927  16.514   6.571  0.00  0.00    -0.343 N 
ATOM     11  HN  UNK N   1      21.782  17.457   6.931  1.00  0.00     0.167 HD
HETATM   12  N   UNK N   1      22.654  15.089   4.802  0.00  0.00    -0.265 N 
HETATM   13  O   UNK N   1      22.500  12.851   5.199  0.00  0.00    -0.266 OA
ENDROOT
BRANCH   7  14
HETATM   14  C   UNK N   1      22.733  17.669   4.549  0.00  0.00     0.151 C 
BRANCH  14  15
HETATM   15  C   UNK N   1      21.457  18.487   4.279  0.00  0.00     0.028 C 
HETATM   16  C   UNK N   1      20.534  17.834   3.261  0.00  0.00     0.007 C 
ENDBRANCH  14  15
BRANCH  14  17
HETATM   17  N   UNK N   1      23.719  18.471   5.253  0.00  0.00    -0.363 N 
HETATM   18  H   UNK N   1      23.476  18.817   6.142  0.00  0.00     0.162 HD
BRANCH  17  19
HETATM   19  C   UNK N   1      25.017  18.795   4.752  0.00  0.00     0.133 A 
HETATM   20  C   UNK N   1      26.191  18.106   5.097  0.00  0.00     0.122 A 
HETATM   21  C   UNK N   1      27.381  18.511   4.604  0.00  0.00     0.138 A 
HETATM   22  N   UNK N   1      26.382  17.029   5.871  0.00  0.00    -0.346 N 
HETATM   23  N   UNK N   1      28.362  17.713   5.040  0.00  0.00    -0.337 N 
HETATM   24  N   UNK N   1      27.509  19.578   3.786  0.00  0.00    -0.337 N 
HETATM   25  C   UNK N   1      27.721  16.803   5.819  0.00  0.00     0.182 A 
HETATM   26  H   UNK N   1      29.325  17.772   4.842  0.00  0.00     0.168 HD
HETATM   27  C   UNK N   1      26.378  20.261   3.436  0.00  0.00     0.183 A 
ATOM     28  HN  UNK N   1      28.424  19.866   3.437  1.00  0.00     0.168 HD
HETATM   29  N   UNK N   1      25.151  19.865   3.911  0.00  0.00    -0.337 N 
ATOM     30  HN  UNK N   1      24.319  20.381   3.627  1.00  0.00     0.168 HD
ATOM     31  HN  UNK N   1      25.679  16.497   6.384  1.00  0.00     0.167 HD
ENDBRANCH  17  19
ENDBRANCH  14  17
ENDBRANCH   7  14
BRANCH  12  32
HETATM   32  C   UNK N   1      23.203  14.842   3.455  0.00  0.00     0.044 A 
HETATM   33  C   UNK N   1      24.587  14.823   3.207  0.00  0.00     0.030 A 
HETATM   34  C   UNK N   1      25.092  14.585   1.925  0.00  0.00     0.002 A 
HETATM   35  C   UNK N   1      24.220  14.368   0.858  0.00  0.00     0.000 A 
HETATM   36  C   UNK N   1      22.844  14.396   1.073  0.00  0.00     0.002 A 
HETATM   37  C   UNK N   1      22.344  14.635   2.354  0.00  0.00     0.030 A 
ENDBRANCH  12  32
TORSDOF 5
ENDMDL
MODEL 9
REMARK VINA RESULT:      -7.7      9.025     12.918
REMARK  5 active torsions:
REMARK  status: ('A' for Active; 'I' for Inactive)
REMARK    1  A    between atoms: C_15  and  C_2 
REMARK    2  A    between atoms: N_34  and  C_13 
REMARK    3  A    between atoms: C_21  and  C_15 
REMARK    4  A    between atoms: C_15  and  N_31 
REMARK    5  A    between atoms: N_31  and  C_20 
ROOT
HETATM    1  C   UNK N   1      25.322  20.981   2.802  0.00  0.00     0.005 A 
HETATM    2  C   UNK N   1      24.018  20.552   3.046  0.00  0.00     0.043 A 
HETATM    3  C   UNK N   1      26.400  20.181   3.184  0.00  0.00     0.030 A 
HETATM    4  C   UNK N   1      23.784  19.325   3.675  0.00  0.00     0.134 A 
HETATM    5  C   UNK N   1      26.177  18.952   3.810  0.00  0.00     0.052 A 
HETATM    6  C   UNK N   1      24.877  18.510   4.066  0.00  0.00     0.098 A 
HETATM    7  C   UNK N   1      27.094  16.967   4.755  0.00  0.00     0.115 A 
HETATM    8  C   UNK N   1      24.708  17.262   4.696  0.00  0.00     0.269 A 
HETATM    9  F   UNK N   1      22.501  18.940   3.890  0.00  0.00    -0.205 F 
HETATM   10  N   UNK N   1      27.225  18.185   4.159  0.00  0.00    -0.343 N 
ATOM     11  HN  UNK N   1      28.164  18.533   3.968  1.00  0.00     0.167 HD
HETATM   12  N   UNK N   1      25.817  16.474   5.039  0.00  0.00    -0.265 N 
HETATM   13  O   UNK N   1      23.575  16.863   4.908  0.00  0.00    -0.266 OA
ENDROOT
BRANCH   7  14
HETATM   14  C   UNK N   1      28.398  16.223   5.078  0.00  0.00     0.151 C 
BRANCH  14  15
HETATM   15  C   UNK N   1      28.771  15.210   3.979  0.00  0.00     0.028 C 
HETATM   16  C   UNK N   1      29.472  15.851   2.790  0.00  0.00     0.007 C 
ENDBRANCH  14  15
BRANCH  14  17
HETATM   17  N   UNK N   1      29.486  17.157   5.308  0.00  0.00    -0.363 N 
HETATM   18  H   UNK N   1      29.732  17.761   4.571  0.00  0.00     0.162 HD
BRANCH  17  19
HETATM   19  C   UNK N   1      30.225  17.267   6.525  0.00  0.00     0.133 A 
HETATM   20  C   UNK N   1      29.660  17.600   7.766  0.00  0.00     0.122 A 
HETATM   21  C   UNK N   1      30.446  17.720   8.857  0.00  0.00     0.138 A 
HETATM   22  N   UNK N   1      28.387  17.828   8.117  0.00  0.00    -0.346 N 
HETATM   23  N   UNK N   1      29.710  18.023   9.931  0.00  0.00    -0.337 N 
HETATM   24  N   UNK N   1      31.785  17.545   8.816  0.00  0.00    -0.337 N 
HETATM   25  C   UNK N   1      28.440  18.083   9.451  0.00  0.00     0.182 A 
HETATM   26  H   UNK N   1      30.017  18.170  10.855  0.00  0.00     0.168 HD
HETATM   27  C   UNK N   1      32.355  17.218   7.618  0.00  0.00     0.183 A 
ATOM     28  HN  UNK N   1      32.355  17.653   9.656  1.00  0.00     0.168 HD
HETATM   29  N   UNK N   1      31.579  17.075   6.494  0.00  0.00    -0.337 N 
ATOM     30  HN  UNK N   1      32.024  16.819   5.613  1.00  0.00     0.168 HD
ATOM     31  HN  UNK N   1      27.562  17.813   7.517  1.00  0.00     0.167 HD
ENDBRANCH  17  19
ENDBRANCH  14  17
ENDBRANCH   7  14
BRANCH  12  32
HETATM   32  C   UNK N   1      25.582  15.169   5.687  0.00  0.00     0.044 A 
HETATM   33  C   UNK N   1      25.430  13.985   4.944  0.00  0.00     0.030 A 
HETATM   34  C   UNK N   1      25.210  12.755   5.573  0.00  0.00     0.002 A 
HETATM   35  C   UNK N   1      25.132  12.686   6.964  0.00  0.00     0.000 A 
HETATM   36  C   UNK N   1      25.264  13.846   7.724  0.00  0.00     0.002 A 
HETATM   37  C   UNK N   1      25.482  15.071   7.092  0.00  0.00     0.030 A 
ENDBRANCH  12  32
TORSDOF 5
ENDMDL
