MODEL 1
REMARK VINA RESULT:      -1.8      0.000      0.000
REMARK  0 active torsions:
REMARK  status: ('A' for Active; 'I' for Inactive)
ROOT
HETATM    1  O   UNK N   1      35.458  22.121  12.850  0.00  0.00    -0.411 OA
HETATM    2  H   UNK N   1      35.498  21.217  13.198  0.00  0.00     0.205 HD
HETATM    3  H   UNK N   1      36.188  22.468  12.313  0.00  0.00     0.205 HD
ENDROOT
TORSDOF 0
ENDMDL
MODEL 2
REMARK VINA RESULT:      -1.5     19.772     19.772
REMARK  0 active torsions:
REMARK  status: ('A' for Active; 'I' for Inactive)
ROOT
HETATM    1  O   UNK N   1      20.609  20.611  -0.117  0.00  0.00    -0.411 OA
HETATM    2  H   UNK N   1      19.798  20.356  -0.584  0.00  0.00     0.205 HD
HETATM    3  H   UNK N   1      21.148  21.347  -0.447  0.00  0.00     0.205 HD
ENDROOT
TORSDOF 0
ENDMDL
MODEL 3
REMARK VINA RESULT:      -1.4     10.371     10.371
REMARK  0 active torsions:
REMARK  status: ('A' for Active; 'I' for Inactive)
ROOT
HETATM    1  O   UNK N   1      41.252  21.761  21.445  0.00  0.00    -0.411 OA
HETATM    2  H   UNK N   1      41.267  22.123  20.545  0.00  0.00     0.205 HD
HETATM    3  H   UNK N   1      40.638  21.045  21.670  0.00  0.00     0.205 HD
ENDROOT
TORSDOF 0
ENDMDL
MODEL 4
REMARK VINA RESULT:      -1.3     19.756     19.756
REMARK  0 active torsions:
REMARK  status: ('A' for Active; 'I' for Inactive)
ROOT
HETATM    1  O   UNK N   1      20.418  24.010   0.181  0.00  0.00    -0.411 OA
HETATM    2  H   UNK N   1      20.725  24.390   1.019  0.00  0.00     0.205 HD
HETATM    3  H   UNK N   1      19.550  23.578   0.134  0.00  0.00     0.205 HD
ENDROOT
TORSDOF 0
ENDMDL
MODEL 5
REMARK VINA RESULT:      -1.3     14.742     14.742
REMARK  0 active torsions:
REMARK  status: ('A' for Active; 'I' for Inactive)
ROOT
HETATM    1  O   UNK N   1      47.532  19.043  20.730  0.00  0.00    -0.411 OA
HETATM    2  H   UNK N   1      46.911  19.260  20.016  0.00  0.00     0.205 HD
HETATM    3  H   UNK N   1      47.297  19.233  21.651  0.00  0.00     0.205 HD
ENDROOT
TORSDOF 0
ENDMDL
MODEL 6
REMARK VINA RESULT:      -1.3      5.089      5.089
REMARK  0 active torsions:
REMARK  status: ('A' for Active; 'I' for Inactive)
ROOT
HETATM    1  O   UNK N   1      35.400  19.346   8.585  0.00  0.00    -0.411 OA
HETATM    2  H   UNK N   1      35.415  19.708   7.686  0.00  0.00     0.205 HD
HETATM    3  H   UNK N   1      34.786  18.630   8.811  0.00  0.00     0.205 HD
ENDROOT
TORSDOF 0
ENDMDL
MODEL 7
REMARK VINA RESULT:      -1.3     16.556     16.556
REMARK  0 active torsions:
REMARK  status: ('A' for Active; 'I' for Inactive)
ROOT
HETATM    1  O   UNK N   1      19.138  19.834  11.257  0.00  0.00    -0.411 OA
HETATM    2  H   UNK N   1      18.327  19.579  10.790  0.00  0.00     0.205 HD
HETATM    3  H   UNK N   1      19.677  20.570  10.927  0.00  0.00     0.205 HD
ENDROOT
TORSDOF 0
ENDMDL
MODEL 8
REMARK VINA RESULT:      -1.2     11.320     11.320
REMARK  0 active torsions:
REMARK  status: ('A' for Active; 'I' for Inactive)
ROOT
HETATM    1  O   UNK N   1      24.805  21.393   9.092  0.00  0.00    -0.411 OA
HETATM    2  H   UNK N   1      24.820  21.755   8.192  0.00  0.00     0.205 HD
HETATM    3  H   UNK N   1      24.191  20.677   9.317  0.00  0.00     0.205 HD
ENDROOT
TORSDOF 0
ENDMDL
MODEL 9
REMARK VINA RESULT:      -1.2     15.064     15.064
REMARK  0 active torsions:
REMARK  status: ('A' for Active; 'I' for Inactive)
ROOT
HETATM    1  O   UNK N   1      32.865  21.100  -1.953  0.00  0.00    -0.411 OA
HETATM    2  H   UNK N   1      32.244  21.317  -2.667  0.00  0.00     0.205 HD
HETATM    3  H   UNK N   1      32.630  21.290  -1.032  0.00  0.00     0.205 HD
ENDROOT
TORSDOF 0
ENDMDL
