REMARK  6 active torsions:
REMARK  status: ('A' for Active; 'I' for Inactive)
REMARK    1  A    between atoms: O_27  and  C_10 
REMARK    2  A    between atoms: C_20  and  C_13 
REMARK    3  A    between atoms: C_15  and  N_26 
REMARK    4  A    between atoms: O_29  and  C_17 
REMARK    5  A    between atoms: O_30  and  C_18 
REMARK    6  A    between atoms: O_32  and  C_20 
ROOT
HETATM    1  C   UNK N   1       4.610   3.114  -0.301  0.00  0.00     0.052 C 
HETATM    2  C   UNK N   1       8.420   0.941  -0.370  0.00  0.00     0.027 A 
HETATM    3  C   UNK N   1       8.416  -0.442  -0.418  0.00  0.00     0.039 A 
HETATM    4  C   UNK N   1       2.189   1.695   0.182  0.00  0.00     0.024 C 
HETATM    5  C   UNK N   1       3.433   0.954  -0.324  0.00  0.00     0.065 C 
HETATM    6  C   UNK N   1       0.902   0.979  -0.136  0.00  0.00     0.075 C 
HETATM    7  C   UNK N   1       7.241   1.656  -0.191  0.00  0.00     0.044 A 
HETATM    8  C   UNK N   1       7.227  -1.150  -0.298  0.00  0.00     0.080 A 
HETATM    9  C   UNK N   1       3.408  -0.513   0.051  0.00  0.00     0.033 C 
HETATM   10  C   UNK N   1       5.995  -0.464  -0.143  0.00  0.00     0.059 A 
HETATM   11  C   UNK N   1      -1.612  -0.410   0.083  0.00  0.00     0.095 C 
HETATM   12  C   UNK N   1       5.989   0.963  -0.082  0.00  0.00     0.015 A 
HETATM   13  C   UNK N   1      -0.354   1.813   0.320  0.00  0.00     0.286 C 
HETATM   14  C   UNK N   1       4.715  -1.237  -0.002  0.00  0.00     0.195 C 
HETATM   15  C   UNK N   1      -1.639   0.945   0.266  0.00  0.00     0.095 C 
HETATM   16  C   UNK N   1       2.251  -1.136   0.441  0.00  0.00     0.097 C 
HETATM   17  C   UNK N   1      -0.287  -1.111   0.034  0.00  0.00     0.207 C 
HETATM   18  C   UNK N   1       4.671   1.686   0.244  0.00  0.00     0.092 C 
HETATM   19  C   UNK N   1       0.923  -0.382   0.572  0.00  0.00     0.177 C 
HETATM   20 Cl   UNK N   1       7.442   3.403  -0.066  0.00  0.00    -0.084 Cl
HETATM   21  O   UNK N   1       4.745  -2.452   0.104  0.00  0.00    -0.287 OA
HETATM   22  O   UNK N   1      -0.195  -2.252  -0.392  0.00  0.00    -0.288 OA
HETATM   23  O   UNK N   1       4.568   1.741   1.638  0.00  0.00    -0.385 OA
HETATM   24  O   UNK N   1       0.731  -0.198   1.946  0.00  0.00    -0.374 OA
HETATM   25  H   UNK N   1       4.565   1.823   2.605  0.00  0.00     0.211 HD
HETATM   26  H   UNK N   1       0.775  -0.019   2.899  0.00  0.00     0.211 HD
ENDROOT
BRANCH  16  27
HETATM   27  O   UNK N   1       2.279  -2.430   0.821  0.00  0.00    -0.361 OA
HETATM   28  H   UNK N   1       1.511  -2.897   1.085  0.00  0.00     0.217 HD
ENDBRANCH  16  27
BRANCH   8  29
HETATM   29  O   UNK N   1       7.282  -2.492  -0.324  0.00  0.00    -0.360 OA
HETATM   30  H   UNK N   1       6.490  -2.993  -0.342  0.00  0.00     0.217 HD
ENDBRANCH   8  29
BRANCH  13  31
HETATM   31  N   UNK N   1      -0.496   3.054  -0.501  0.00  0.00     0.091 N 
HETATM   32  C   UNK N   1      -1.621   3.869  -0.059  0.00  0.00     0.310 C 
HETATM   33  C   UNK N   1       0.637   3.956  -0.330  0.00  0.00     0.310 C 
ENDBRANCH  13  31
BRANCH  15  34
HETATM   34  O   UNK N   1      -2.829   1.558   0.441  0.00  0.00    -0.362 OA
HETATM   35  H   UNK N   1      -2.874   2.486   0.562  0.00  0.00     0.217 HD
ENDBRANCH  15  34
BRANCH  11  36
HETATM   36  C   UNK N   1      -2.888  -1.205  -0.015  0.00  0.00     0.150 C 
HETATM   37  N   UNK N   1      -2.854  -2.481  -0.114  0.00  0.00    -0.379 N 
HETATM   38  H   UNK N   1      -3.691  -2.995  -0.191  0.00  0.00     0.158 HD
ATOM     39  HN  UNK N   1      -1.958  -2.968  -0.114  1.00  0.00     0.158 HD
BRANCH  36  40
HETATM   40  O   UNK N   1      -4.090  -0.593   0.018  0.00  0.00    -0.346 OA
HETATM   41  H   UNK N   1      -4.139   0.343   0.042  0.00  0.00     0.219 HD
ENDBRANCH  36  40
ENDBRANCH  11  36
TORSDOF 6
