MODEL 1
REMARK VINA RESULT:      -5.0      0.000      0.000
REMARK  3 active torsions:
REMARK  status: ('A' for Active; 'I' for Inactive)
REMARK    1  A    between atoms: C_1  and  C_9 
REMARK    2  A    between atoms: N_3  and  O_12 
REMARK    3  A    between atoms: C_9  and  O_10 
ROOT
HETATM    1  C   UNK N   1      34.664  17.144   9.247  0.00  0.00     0.124 A 
HETATM    2  C   UNK N   1      33.915  15.990   9.008  0.00  0.00     0.159 A 
HETATM    3  N   UNK N   1      33.960  14.958   9.889  0.00  0.00    -0.237 N 
HETATM    4  C   UNK N   1      34.733  15.037  11.011  0.00  0.00     0.051 A 
HETATM    5  C   UNK N   1      35.482  16.191  11.251  0.00  0.00     0.115 A 
HETATM    6  N   UNK N   1      35.434  17.220  10.366  0.00  0.00    -0.357 N 
ATOM      7  HN  UNK N   1      35.982  18.063  10.544  1.00  0.00     0.165 HD
HETATM    8  C   UNK N   1      34.789  13.910  11.983  0.00  0.00     0.072 C 
ENDROOT
BRANCH   1   9
HETATM    9  C   UNK N   1      34.618  18.264   8.295  0.00  0.00     0.195 C 
HETATM   10  O   UNK N   1      33.930  18.188   7.290  0.00  0.00    -0.645 OA
BRANCH   9  11
HETATM   11  O   UNK N   1      35.336  19.379   8.529  0.00  0.00    -0.772 OA
HETATM   12  H   UNK N   1      35.865  19.442   9.301  0.00  0.00     0.167 HD
ENDBRANCH   9  11
ENDBRANCH   1   9
BRANCH   3  13
HETATM   13  O   UNK N   1      33.239  13.868   9.642  0.00  0.00    -0.283 OA
ATOM     14  HO  UNK N   1      32.468  13.696  10.169  1.00  0.00     0.245 HD
ENDBRANCH   3  13
TORSDOF 3
ENDMDL
MODEL 2
REMARK VINA RESULT:      -4.7     15.422     16.101
REMARK  3 active torsions:
REMARK  status: ('A' for Active; 'I' for Inactive)
REMARK    1  A    between atoms: C_1  and  C_9 
REMARK    2  A    between atoms: N_3  and  O_12 
REMARK    3  A    between atoms: C_9  and  O_10 
ROOT
HETATM    1  C   UNK N   1      20.646  19.272   1.768  0.00  0.00     0.124 A 
HETATM    2  C   UNK N   1      20.830  19.022   3.130  0.00  0.00     0.159 A 
HETATM    3  N   UNK N   1      20.577  17.786   3.633  0.00  0.00    -0.237 N 
HETATM    4  C   UNK N   1      20.144  16.781   2.817  0.00  0.00     0.051 A 
HETATM    5  C   UNK N   1      19.960  17.029   1.456  0.00  0.00     0.115 A 
HETATM    6  N   UNK N   1      20.214  18.268   0.958  0.00  0.00    -0.357 N 
ATOM      7  HN  UNK N   1      20.079  18.447  -0.038  1.00  0.00     0.165 HD
HETATM    8  C   UNK N   1      19.865  15.422   3.359  0.00  0.00     0.072 C 
ENDROOT
BRANCH   1   9
HETATM    9  C   UNK N   1      20.919  20.609   1.221  0.00  0.00     0.195 C 
HETATM   10  O   UNK N   1      21.070  20.762   0.020  0.00  0.00    -0.645 OA
BRANCH   9  11
HETATM   11  O   UNK N   1      21.003  21.672   2.045  0.00  0.00    -0.772 OA
HETATM   12  H   UNK N   1      20.240  21.973   2.499  0.00  0.00     0.167 HD
ENDBRANCH   9  11
ENDBRANCH   1   9
BRANCH   3  13
HETATM   13  O   UNK N   1      20.758  17.569   4.932  0.00  0.00    -0.283 OA
ATOM     14  HO  UNK N   1      20.445  16.757   5.312  1.00  0.00     0.245 HD
ENDBRANCH   3  13
TORSDOF 3
ENDMDL
MODEL 3
REMARK VINA RESULT:      -4.7      2.205      4.701
REMARK  3 active torsions:
REMARK  status: ('A' for Active; 'I' for Inactive)
REMARK    1  A    between atoms: C_1  and  C_9 
REMARK    2  A    between atoms: N_3  and  O_12 
REMARK    3  A    between atoms: C_9  and  O_10 
ROOT
HETATM    1  C   UNK N   1      34.987  14.854  11.643  0.00  0.00     0.124 A 
HETATM    2  C   UNK N   1      35.552  16.083  11.298  0.00  0.00     0.159 A 
HETATM    3  N   UNK N   1      35.065  16.780  10.239  0.00  0.00    -0.237 N 
HETATM    4  C   UNK N   1      34.024  16.289   9.506  0.00  0.00     0.051 A 
HETATM    5  C   UNK N   1      33.458  15.060   9.849  0.00  0.00     0.115 A 
HETATM    6  N   UNK N   1      33.949  14.367  10.910  0.00  0.00    -0.357 N 
ATOM      7  HN  UNK N   1      33.533  13.469  11.160  1.00  0.00     0.165 HD
HETATM    8  C   UNK N   1      33.483  17.046   8.342  0.00  0.00     0.072 C 
ENDROOT
BRANCH   1   9
HETATM    9  C   UNK N   1      35.511  14.097  12.789  0.00  0.00     0.195 C 
HETATM   10  O   UNK N   1      34.798  13.302  13.378  0.00  0.00    -0.645 OA
BRANCH   9  11
HETATM   11  O   UNK N   1      36.784  14.279  13.193  0.00  0.00    -0.772 OA
HETATM   12  H   UNK N   1      37.490  14.142  12.592  0.00  0.00     0.167 HD
ENDBRANCH   9  11
ENDBRANCH   1   9
BRANCH   3  13
HETATM   13  O   UNK N   1      35.618  17.949   9.927  0.00  0.00    -0.283 OA
ATOM     14  HO  UNK N   1      36.553  18.063  10.043  1.00  0.00     0.245 HD
ENDBRANCH   3  13
TORSDOF 3
ENDMDL
MODEL 4
REMARK VINA RESULT:      -4.7      7.658      9.077
REMARK  3 active torsions:
REMARK  status: ('A' for Active; 'I' for Inactive)
REMARK    1  A    between atoms: C_1  and  C_9 
REMARK    2  A    between atoms: N_3  and  O_12 
REMARK    3  A    between atoms: C_9  and  O_10 
ROOT
HETATM    1  C   UNK N   1      27.886  19.122   7.212  0.00  0.00     0.124 A 
HETATM    2  C   UNK N   1      28.360  18.510   6.050  0.00  0.00     0.159 A 
HETATM    3  N   UNK N   1      27.926  18.933   4.835  0.00  0.00    -0.237 N 
HETATM    4  C   UNK N   1      27.028  19.956   4.737  0.00  0.00     0.051 A 
HETATM    5  C   UNK N   1      26.553  20.570   5.898  0.00  0.00     0.115 A 
HETATM    6  N   UNK N   1      26.990  20.142   7.111  0.00  0.00    -0.357 N 
ATOM      7  HN  UNK N   1      26.642  20.592   7.959  1.00  0.00     0.165 HD
HETATM    8  C   UNK N   1      26.547  20.428   3.409  0.00  0.00     0.072 C 
ENDROOT
BRANCH   1   9
HETATM    9  C   UNK N   1      28.353  18.666   8.529  0.00  0.00     0.195 C 
HETATM   10  O   UNK N   1      29.530  18.770   8.833  0.00  0.00    -0.645 OA
BRANCH   9  11
HETATM   11  O   UNK N   1      27.482  18.131   9.407  0.00  0.00    -0.772 OA
HETATM   12  H   UNK N   1      27.434  17.201   9.510  0.00  0.00     0.167 HD
ENDBRANCH   9  11
ENDBRANCH   1   9
BRANCH   3  13
HETATM   13  O   UNK N   1      28.390  18.336   3.741  0.00  0.00    -0.283 OA
ATOM     14  HO  UNK N   1      28.104  18.647   2.890  1.00  0.00     0.245 HD
ENDBRANCH   3  13
TORSDOF 3
ENDMDL
MODEL 5
REMARK VINA RESULT:      -4.7     10.588     12.289
REMARK  3 active torsions:
REMARK  status: ('A' for Active; 'I' for Inactive)
REMARK    1  A    between atoms: C_1  and  C_9 
REMARK    2  A    between atoms: N_3  and  O_12 
REMARK    3  A    between atoms: C_9  and  O_10 
ROOT
HETATM    1  C   UNK N   1      43.277  22.648   3.016  0.00  0.00     0.124 A 
HETATM    2  C   UNK N   1      43.007  21.336   3.411  0.00  0.00     0.159 A 
HETATM    3  N   UNK N   1      41.830  20.752   3.068  0.00  0.00    -0.237 N 
HETATM    4  C   UNK N   1      40.902  21.439   2.339  0.00  0.00     0.051 A 
HETATM    5  C   UNK N   1      41.170  22.751   1.944  0.00  0.00     0.115 A 
HETATM    6  N   UNK N   1      42.350  23.330   2.289  0.00  0.00    -0.357 N 
ATOM      7  HN  UNK N   1      42.544  24.289   2.000  1.00  0.00     0.165 HD
HETATM    8  C   UNK N   1      39.608  20.809   1.958  0.00  0.00     0.072 C 
ENDROOT
BRANCH   1   9
HETATM    9  C   UNK N   1      44.550  23.282   3.386  0.00  0.00     0.195 C 
HETATM   10  O   UNK N   1      44.751  24.456   3.125  0.00  0.00    -0.645 OA
BRANCH   9  11
HETATM   11  O   UNK N   1      45.503  22.566   4.015  0.00  0.00    -0.772 OA
HETATM   12  H   UNK N   1      46.026  22.967   4.682  0.00  0.00     0.167 HD
ENDBRANCH   9  11
ENDBRANCH   1   9
BRANCH   3  13
HETATM   13  O   UNK N   1      41.592  19.502   3.453  0.00  0.00    -0.283 OA
ATOM     14  HO  UNK N   1      40.790  19.078   3.175  1.00  0.00     0.245 HD
ENDBRANCH   3  13
TORSDOF 3
ENDMDL
MODEL 6
REMARK VINA RESULT:      -4.6     11.389     12.810
REMARK  3 active torsions:
REMARK  status: ('A' for Active; 'I' for Inactive)
REMARK    1  A    between atoms: C_1  and  C_9 
REMARK    2  A    between atoms: N_3  and  O_12 
REMARK    3  A    between atoms: C_9  and  O_10 
ROOT
HETATM    1  C   UNK N   1      23.245  12.263  11.427  0.00  0.00     0.124 A 
HETATM    2  C   UNK N   1      22.107  12.222  10.618  0.00  0.00     0.159 A 
HETATM    3  N   UNK N   1      22.189  12.588   9.313  0.00  0.00    -0.237 N 
HETATM    4  C   UNK N   1      23.377  12.997   8.781  0.00  0.00     0.051 A 
HETATM    5  C   UNK N   1      24.516  13.039   9.588  0.00  0.00     0.115 A 
HETATM    6  N   UNK N   1      24.428  12.672  10.893  0.00  0.00    -0.357 N 
ATOM      7  HN  UNK N   1      25.262  12.703  11.481  1.00  0.00     0.165 HD
HETATM    8  C   UNK N   1      23.477  13.400   7.350  0.00  0.00     0.072 C 
ENDROOT
BRANCH   1   9
HETATM    9  C   UNK N   1      23.160  11.868  12.840  0.00  0.00     0.195 C 
HETATM   10  O   UNK N   1      23.981  12.279  13.643  0.00  0.00    -0.645 OA
BRANCH   9  11
HETATM   11  O   UNK N   1      22.173  11.049  13.254  0.00  0.00    -0.772 OA
HETATM   12  H   UNK N   1      22.368  10.337  13.831  0.00  0.00     0.167 HD
ENDBRANCH   9  11
ENDBRANCH   1   9
BRANCH   3  13
HETATM   13  O   UNK N   1      21.094  12.541   8.561  0.00  0.00    -0.283 OA
ATOM     14  HO  UNK N   1      20.362  12.005   8.842  1.00  0.00     0.245 HD
ENDBRANCH   3  13
TORSDOF 3
ENDMDL
MODEL 7
REMARK VINA RESULT:      -4.6      3.043      4.453
REMARK  3 active torsions:
REMARK  status: ('A' for Active; 'I' for Inactive)
REMARK    1  A    between atoms: C_1  and  C_9 
REMARK    2  A    between atoms: N_3  and  O_12 
REMARK    3  A    between atoms: C_9  and  O_10 
ROOT
HETATM    1  C   UNK N   1      33.489  17.771   8.125  0.00  0.00     0.124 A 
HETATM    2  C   UNK N   1      33.452  17.660   6.734  0.00  0.00     0.159 A 
HETATM    3  N   UNK N   1      32.295  17.317   6.111  0.00  0.00    -0.237 N 
HETATM    4  C   UNK N   1      31.163  17.078   6.835  0.00  0.00     0.051 A 
HETATM    5  C   UNK N   1      31.198  17.188   8.226  0.00  0.00     0.115 A 
HETATM    6  N   UNK N   1      32.359  17.532   8.844  0.00  0.00    -0.357 N 
ATOM      7  HN  UNK N   1      32.382  17.612   9.861  1.00  0.00     0.165 HD
HETATM    8  C   UNK N   1      29.889  16.701   6.161  0.00  0.00     0.072 C 
ENDROOT
BRANCH   1   9
HETATM    9  C   UNK N   1      34.740  18.142   8.802  0.00  0.00     0.195 C 
HETATM   10  O   UNK N   1      35.216  17.413   9.656  0.00  0.00    -0.645 OA
BRANCH   9  11
HETATM   11  O   UNK N   1      35.366  19.291   8.481  0.00  0.00    -0.772 OA
HETATM   12  H   UNK N   1      34.984  19.873   7.852  0.00  0.00     0.167 HD
ENDBRANCH   9  11
ENDBRANCH   1   9
BRANCH   3  13
HETATM   13  O   UNK N   1      32.281  17.217   4.785  0.00  0.00    -0.283 OA
ATOM     14  HO  UNK N   1      32.887  17.742   4.276  1.00  0.00     0.245 HD
ENDBRANCH   3  13
TORSDOF 3
ENDMDL
MODEL 8
REMARK VINA RESULT:      -4.5      3.701      5.203
REMARK  3 active torsions:
REMARK  status: ('A' for Active; 'I' for Inactive)
REMARK    1  A    between atoms: C_1  and  C_9 
REMARK    2  A    between atoms: N_3  and  O_12 
REMARK    3  A    between atoms: C_9  and  O_10 
ROOT
HETATM    1  C   UNK N   1      35.197  13.929  12.516  0.00  0.00     0.124 A 
HETATM    2  C   UNK N   1      36.176  14.378  13.404  0.00  0.00     0.159 A 
HETATM    3  N   UNK N   1      36.594  13.575  14.417  0.00  0.00    -0.237 N 
HETATM    4  C   UNK N   1      36.063  12.328  14.576  0.00  0.00     0.051 A 
HETATM    5  C   UNK N   1      35.084  11.877  13.689  0.00  0.00     0.115 A 
HETATM    6  N   UNK N   1      34.670  12.685  12.678  0.00  0.00    -0.357 N 
ATOM      7  HN  UNK N   1      33.953  12.354  12.031  1.00  0.00     0.165 HD
HETATM    8  C   UNK N   1      36.515  11.440  15.683  0.00  0.00     0.072 C 
ENDROOT
BRANCH   1   9
HETATM    9  C   UNK N   1      34.743  14.796  11.420  0.00  0.00     0.195 C 
HETATM   10  O   UNK N   1      35.555  15.378  10.719  0.00  0.00    -0.645 OA
BRANCH   9  11
HETATM   11  O   UNK N   1      33.425  14.952  11.183  0.00  0.00    -0.772 OA
HETATM   12  H   UNK N   1      32.991  15.738  11.451  0.00  0.00     0.167 HD
ENDBRANCH   9  11
ENDBRANCH   1   9
BRANCH   3  13
HETATM   13  O   UNK N   1      37.528  14.022  15.251  0.00  0.00    -0.283 OA
ATOM     14  HO  UNK N   1      38.441  13.842  15.061  1.00  0.00     0.245 HD
ENDBRANCH   3  13
TORSDOF 3
ENDMDL
MODEL 9
REMARK VINA RESULT:      -4.5      3.523      4.449
REMARK  3 active torsions:
REMARK  status: ('A' for Active; 'I' for Inactive)
REMARK    1  A    between atoms: C_1  and  C_9 
REMARK    2  A    between atoms: N_3  and  O_12 
REMARK    3  A    between atoms: C_9  and  O_10 
ROOT
HETATM    1  C   UNK N   1      36.052  14.345  12.310  0.00  0.00     0.124 A 
HETATM    2  C   UNK N   1      35.104  13.332  12.462  0.00  0.00     0.159 A 
HETATM    3  N   UNK N   1      34.883  12.787  13.686  0.00  0.00    -0.237 N 
HETATM    4  C   UNK N   1      35.581  13.223  14.775  0.00  0.00     0.051 A 
HETATM    5  C   UNK N   1      36.529  14.236  14.625  0.00  0.00     0.115 A 
HETATM    6  N   UNK N   1      36.747  14.777  13.398  0.00  0.00    -0.357 N 
ATOM      7  HN  UNK N   1      37.440  15.519  13.290  1.00  0.00     0.165 HD
HETATM    8  C   UNK N   1      35.346  12.632  16.122  0.00  0.00     0.072 C 
ENDROOT
BRANCH   1   9
HETATM    9  C   UNK N   1      36.294  14.937  10.986  0.00  0.00     0.195 C 
HETATM   10  O   UNK N   1      35.878  14.385   9.981  0.00  0.00    -0.645 OA
BRANCH   9  11
HETATM   11  O   UNK N   1      36.977  16.093  10.878  0.00  0.00    -0.772 OA
HETATM   12  H   UNK N   1      37.910  16.097  10.975  0.00  0.00     0.167 HD
ENDBRANCH   9  11
ENDBRANCH   1   9
BRANCH   3  13
HETATM   13  O   UNK N   1      33.976  11.823  13.808  0.00  0.00    -0.283 OA
ATOM     14  HO  UNK N   1      34.198  11.039  14.297  1.00  0.00     0.245 HD
ENDBRANCH   3  13
TORSDOF 3
ENDMDL
