REMARK  8 active torsions:
REMARK  status: ('A' for Active; 'I' for Inactive)
REMARK    1  A    between atoms: C_13  and  O_2 
REMARK    2  A    between atoms: O_2  and  C_19 
REMARK    3  A    between atoms: C_14  and  O_3 
REMARK    4  A    between atoms: O_3  and  C_22 
REMARK    5  A    between atoms: O_4  and  C_18 
REMARK    6  A    between atoms: O_4  and  C_23 
REMARK    7  A    between atoms: C_12  and  N_10 
REMARK    8  A    between atoms: C_15  and  C_18 
ROOT
HETATM    1  O   UNK N   1      -0.192   1.653  -0.007  0.00  0.00    -0.353 OA
HETATM    2  C   UNK N   1       0.927   0.866   0.295  0.00  0.00     0.264 C 
HETATM    3  C   UNK N   1       0.621  -0.544  -0.181  0.00  0.00     0.213 C 
HETATM    4  C   UNK N   1      -0.807  -0.617   0.314  0.00  0.00     0.197 C 
HETATM    5  C   UNK N   1      -1.243   0.852   0.457  0.00  0.00     0.180 C 
ENDROOT
BRANCH   2   6
HETATM    6  N   UNK N   1       2.213   1.548   0.011  0.00  0.00    -0.280 N 
HETATM    7  C   UNK N   1       3.428   0.899  -0.174  0.00  0.00     0.331 A 
HETATM    8  O   UNK N   1       3.493  -0.313  -0.236  0.00  0.00    -0.246 OA
HETATM    9  N   UNK N   1       4.588   1.623  -0.264  0.00  0.00    -0.275 N 
HETATM   10  C   UNK N   1       4.578   2.986  -0.172  0.00  0.00     0.250 A 
HETATM   11  H   UNK N   1       5.443   1.153  -0.398  0.00  0.00     0.173 HD
HETATM   12  O   UNK N   1       5.622   3.608  -0.222  0.00  0.00    -0.268 OA
HETATM   13  C   UNK N   1       3.377   3.654  -0.007  0.00  0.00     0.092 A 
HETATM   14  C   UNK N   1       2.205   2.912   0.091  0.00  0.00     0.104 A 
ENDBRANCH   2   6
BRANCH   3  15
HETATM   15  O   UNK N   1       1.380  -1.453   0.524  0.00  0.00    -0.309 OA
BRANCH  15  16
HETATM   16  C   UNK N   1       1.682  -2.694   0.072  0.00  0.00     0.255 C 
HETATM   17  O   UNK N   1       1.145  -3.150  -0.926  0.00  0.00    -0.266 OA
HETATM   18  C   UNK N   1       2.707  -3.501   0.793  0.00  0.00     0.126 C 
ENDBRANCH  15  16
ENDBRANCH   3  15
BRANCH   5  19
HETATM   19  C   UNK N   1      -2.555   1.250  -0.211  0.00  0.00     0.213 C 
BRANCH  19  20
HETATM   20  O   UNK N   1      -3.595   0.480   0.259  0.00  0.00    -0.319 OA
BRANCH  20  21
HETATM   21  C   UNK N   1      -4.891   0.821   0.070  0.00  0.00     0.254 C 
HETATM   22  O   UNK N   1      -5.194   1.922  -0.369  0.00  0.00    -0.266 OA
HETATM   23  C   UNK N   1      -5.963  -0.158   0.399  0.00  0.00     0.126 C 
ENDBRANCH  20  21
ENDBRANCH  19  20
ENDBRANCH   5  19
BRANCH   4  24
HETATM   24  O   UNK N   1      -1.621  -1.364  -0.511  0.00  0.00    -0.311 OA
BRANCH  24  25
HETATM   25  C   UNK N   1      -2.198  -2.514  -0.082  0.00  0.00     0.255 C 
HETATM   26  O   UNK N   1      -1.841  -3.043   0.961  0.00  0.00    -0.266 OA
HETATM   27  C   UNK N   1      -3.288  -3.137  -0.883  0.00  0.00     0.126 C 
ENDBRANCH  24  25
ENDBRANCH   4  24
TORSDOF 8
