MODEL 1
REMARK VINA RESULT:      -7.4      0.000      0.000
REMARK  7 active torsions:
REMARK  status: ('A' for Active; 'I' for Inactive)
REMARK    1  A    between atoms: O_27  and  C_15 
REMARK    2  A    between atoms: O_28  and  C_16 
REMARK    3  A    between atoms: C_22  and  C_17 
REMARK    4  A    between atoms: C_22  and  C_18 
REMARK    5  A    between atoms: O_27  and  C_19 
REMARK    6  A    between atoms: O_28  and  C_20 
REMARK    7  A    between atoms: C_22  and  C_21 
ROOT
HETATM    1  C   UNK N   1      29.380  16.433   4.239  0.00  0.00     0.101 C 
ENDROOT
BRANCH   1   2
HETATM    2  C   UNK N   1      28.194  17.420   4.202  0.00  0.00    -0.044 A 
HETATM    3  C   UNK N   1      26.855  16.990   4.144  0.00  0.00     0.011 A 
HETATM    4  C   UNK N   1      25.800  17.916   4.111  0.00  0.00     0.038 A 
HETATM    5  C   UNK N   1      26.065  19.290   4.135  0.00  0.00     0.079 A 
HETATM    6  C   UNK N   1      27.395  19.719   4.193  0.00  0.00     0.038 A 
HETATM    7  C   UNK N   1      28.430  18.799   4.225  0.00  0.00     0.011 A 
BRANCH   5   8
HETATM    8  O   UNK N   1      25.033  20.176   4.103  0.00  0.00    -0.279 OA
BRANCH   8   9
HETATM    9  C   UNK N   1      24.296  20.532   3.012  0.00  0.00     0.260 C 
HETATM   10  C   UNK N   1      22.815  20.429   3.063  0.00  0.00     0.126 C 
HETATM   11  O   UNK N   1      24.827  20.939   1.984  0.00  0.00    -0.265 OA
ENDBRANCH   8   9
ENDBRANCH   5   8
ENDBRANCH   1   2
BRANCH   1  12
HETATM   12  C   UNK N   1      30.725  16.836   4.877  0.00  0.00    -0.044 A 
HETATM   13  C   UNK N   1      30.857  16.869   6.269  0.00  0.00     0.011 A 
HETATM   14  C   UNK N   1      32.049  17.226   6.881  0.00  0.00     0.038 A 
HETATM   15  C   UNK N   1      33.168  17.567   6.113  0.00  0.00     0.079 A 
HETATM   16  C   UNK N   1      33.061  17.542   4.718  0.00  0.00     0.038 A 
HETATM   17  C   UNK N   1      31.852  17.180   4.106  0.00  0.00     0.011 A 
BRANCH  15  18
HETATM   18  O   UNK N   1      34.349  17.920   6.690  0.00  0.00    -0.279 OA
BRANCH  18  19
HETATM   19  C   UNK N   1      34.564  18.204   8.006  0.00  0.00     0.260 C 
HETATM   20  C   UNK N   1      34.397  17.134   9.022  0.00  0.00     0.126 C 
HETATM   21  O   UNK N   1      34.894  19.326   8.375  0.00  0.00    -0.265 OA
ENDBRANCH  18  19
ENDBRANCH  15  18
ENDBRANCH   1  12
BRANCH   1  22
HETATM   22  C   UNK N   1      29.233  15.011   3.631  0.00  0.00     0.022 A 
HETATM   23  C   UNK N   1      28.852  14.816   2.294  0.00  0.00     0.026 A 
HETATM   24  C   UNK N   1      28.727  13.530   1.772  0.00  0.00     0.003 A 
HETATM   25  C   UNK N   1      28.983  12.429   2.582  0.00  0.00     0.017 A 
HETATM   26  C   UNK N   1      29.361  12.638   3.906  0.00  0.00     0.088 A 
HETATM   27  N   UNK N   1      29.475  13.904   4.391  0.00  0.00    -0.368 N 
ATOM     28  HN  UNK N   1      29.753  14.031   5.365  1.00  0.00     0.165 HD
ENDBRANCH   1  22
TORSDOF 7
ENDMDL
MODEL 2
REMARK VINA RESULT:      -7.4      2.395      3.598
REMARK  7 active torsions:
REMARK  status: ('A' for Active; 'I' for Inactive)
REMARK    1  A    between atoms: O_27  and  C_15 
REMARK    2  A    between atoms: O_28  and  C_16 
REMARK    3  A    between atoms: C_22  and  C_17 
REMARK    4  A    between atoms: C_22  and  C_18 
REMARK    5  A    between atoms: O_27  and  C_19 
REMARK    6  A    between atoms: O_28  and  C_20 
REMARK    7  A    between atoms: C_22  and  C_21 
ROOT
HETATM    1  C   UNK N   1      31.779  16.570   5.949  0.00  0.00     0.101 C 
ENDROOT
BRANCH   1   2
HETATM    2  C   UNK N   1      30.392  17.247   5.927  0.00  0.00    -0.044 A 
HETATM    3  C   UNK N   1      29.664  17.514   7.101  0.00  0.00     0.011 A 
HETATM    4  C   UNK N   1      28.405  18.132   7.044  0.00  0.00     0.038 A 
HETATM    5  C   UNK N   1      27.850  18.494   5.811  0.00  0.00     0.079 A 
HETATM    6  C   UNK N   1      28.573  18.229   4.644  0.00  0.00     0.038 A 
HETATM    7  C   UNK N   1      29.815  17.619   4.708  0.00  0.00     0.011 A 
BRANCH   5   8
HETATM    8  O   UNK N   1      26.629  19.092   5.771  0.00  0.00    -0.279 OA
BRANCH   8   9
HETATM    9  C   UNK N   1      26.359  20.376   5.396  0.00  0.00     0.260 C 
HETATM   10  C   UNK N   1      27.041  21.499   6.090  0.00  0.00     0.126 C 
HETATM   11  O   UNK N   1      25.565  20.628   4.497  0.00  0.00    -0.265 OA
ENDBRANCH   8   9
ENDBRANCH   5   8
ENDBRANCH   1   2
BRANCH   1  12
HETATM   12  C   UNK N   1      32.716  16.723   7.164  0.00  0.00    -0.044 A 
HETATM   13  C   UNK N   1      32.741  15.737   8.157  0.00  0.00     0.011 A 
HETATM   14  C   UNK N   1      33.568  15.839   9.265  0.00  0.00     0.038 A 
HETATM   15  C   UNK N   1      34.413  16.943   9.423  0.00  0.00     0.079 A 
HETATM   16  C   UNK N   1      34.407  17.942   8.443  0.00  0.00     0.038 A 
HETATM   17  C   UNK N   1      33.566  17.834   7.325  0.00  0.00     0.011 A 
BRANCH  15  18
HETATM   18  O   UNK N   1      35.234  17.064  10.501  0.00  0.00    -0.279 OA
BRANCH  18  19
HETATM   19  C   UNK N   1      36.066  16.111  11.008  0.00  0.00     0.260 C 
HETATM   20  C   UNK N   1      35.645  15.333  12.202  0.00  0.00     0.126 C 
HETATM   21  O   UNK N   1      37.158  15.876  10.503  0.00  0.00    -0.265 OA
ENDBRANCH  18  19
ENDBRANCH  15  18
ENDBRANCH   1  12
BRANCH   1  22
HETATM   22  C   UNK N   1      32.253  15.719   4.738  0.00  0.00     0.022 A 
HETATM   23  C   UNK N   1      33.234  16.184   3.848  0.00  0.00     0.026 A 
HETATM   24  C   UNK N   1      33.642  15.401   2.770  0.00  0.00     0.003 A 
HETATM   25  C   UNK N   1      33.073  14.147   2.573  0.00  0.00     0.017 A 
HETATM   26  C   UNK N   1      32.101  13.699   3.464  0.00  0.00     0.088 A 
HETATM   27  N   UNK N   1      31.720  14.483   4.509  0.00  0.00    -0.368 N 
ATOM     28  HN  UNK N   1      31.006  14.132   5.148  1.00  0.00     0.165 HD
ENDBRANCH   1  22
TORSDOF 7
ENDMDL
MODEL 3
REMARK VINA RESULT:      -7.4      2.796      4.551
REMARK  7 active torsions:
REMARK  status: ('A' for Active; 'I' for Inactive)
REMARK    1  A    between atoms: O_27  and  C_15 
REMARK    2  A    between atoms: O_28  and  C_16 
REMARK    3  A    between atoms: C_22  and  C_17 
REMARK    4  A    between atoms: C_22  and  C_18 
REMARK    5  A    between atoms: O_27  and  C_19 
REMARK    6  A    between atoms: O_28  and  C_20 
REMARK    7  A    between atoms: C_22  and  C_21 
ROOT
HETATM    1  C   UNK N   1      29.268  17.746   5.327  0.00  0.00     0.101 C 
ENDROOT
BRANCH   1   2
HETATM    2  C   UNK N   1      28.089  18.411   4.587  0.00  0.00    -0.044 A 
HETATM    3  C   UNK N   1      27.950  19.808   4.490  0.00  0.00     0.011 A 
HETATM    4  C   UNK N   1      26.864  20.380   3.808  0.00  0.00     0.038 A 
HETATM    5  C   UNK N   1      25.897  19.565   3.210  0.00  0.00     0.079 A 
HETATM    6  C   UNK N   1      26.034  18.176   3.305  0.00  0.00     0.038 A 
HETATM    7  C   UNK N   1      27.108  17.620   3.980  0.00  0.00     0.011 A 
BRANCH   5   8
HETATM    8  O   UNK N   1      24.850  20.133   2.552  0.00  0.00    -0.279 OA
BRANCH   8   9
HETATM    9  C   UNK N   1      23.605  20.377   3.054  0.00  0.00     0.260 C 
HETATM   10  C   UNK N   1      22.845  19.273   3.696  0.00  0.00     0.126 C 
HETATM   11  O   UNK N   1      23.094  21.489   2.989  0.00  0.00    -0.265 OA
ENDBRANCH   8   9
ENDBRANCH   5   8
ENDBRANCH   1   2
BRANCH   1  12
HETATM   12  C   UNK N   1      30.448  17.131   4.547  0.00  0.00    -0.044 A 
HETATM   13  C   UNK N   1      30.353  15.828   4.047  0.00  0.00     0.011 A 
HETATM   14  C   UNK N   1      31.391  15.240   3.340  0.00  0.00     0.038 A 
HETATM   15  C   UNK N   1      32.578  15.942   3.105  0.00  0.00     0.079 A 
HETATM   16  C   UNK N   1      32.698  17.248   3.596  0.00  0.00     0.038 A 
HETATM   17  C   UNK N   1      31.643  17.836   4.309  0.00  0.00     0.011 A 
BRANCH  15  18
HETATM   18  O   UNK N   1      33.611  15.387   2.415  0.00  0.00    -0.279 OA
BRANCH  18  19
HETATM   19  C   UNK N   1      33.907  14.061   2.311  0.00  0.00     0.260 C 
HETATM   20  C   UNK N   1      34.520  13.355   3.466  0.00  0.00     0.126 C 
HETATM   21  O   UNK N   1      33.680  13.431   1.284  0.00  0.00    -0.265 OA
ENDBRANCH  18  19
ENDBRANCH  15  18
ENDBRANCH   1  12
BRANCH   1  22
HETATM   22  C   UNK N   1      29.282  17.685   6.880  0.00  0.00     0.022 A 
HETATM   23  C   UNK N   1      28.173  18.082   7.644  0.00  0.00     0.026 A 
HETATM   24  C   UNK N   1      28.211  18.019   9.036  0.00  0.00     0.003 A 
HETATM   25  C   UNK N   1      29.357  17.557   9.674  0.00  0.00     0.017 A 
HETATM   26  C   UNK N   1      30.449  17.167   8.903  0.00  0.00     0.088 A 
HETATM   27  N   UNK N   1      30.386  17.239   7.546  0.00  0.00    -0.368 N 
ATOM     28  HN  UNK N   1      31.200  16.947   7.003  1.00  0.00     0.165 HD
ENDBRANCH   1  22
TORSDOF 7
ENDMDL
MODEL 4
REMARK VINA RESULT:      -7.4      2.394      8.238
REMARK  7 active torsions:
REMARK  status: ('A' for Active; 'I' for Inactive)
REMARK    1  A    between atoms: O_27  and  C_15 
REMARK    2  A    between atoms: O_28  and  C_16 
REMARK    3  A    between atoms: C_22  and  C_17 
REMARK    4  A    between atoms: C_22  and  C_18 
REMARK    5  A    between atoms: O_27  and  C_19 
REMARK    6  A    between atoms: O_28  and  C_20 
REMARK    7  A    between atoms: C_22  and  C_21 
ROOT
HETATM    1  C   UNK N   1      31.804  16.558   5.968  0.00  0.00     0.101 C 
ENDROOT
BRANCH   1   2
HETATM    2  C   UNK N   1      32.745  16.714   7.181  0.00  0.00    -0.044 A 
HETATM    3  C   UNK N   1      33.572  17.840   7.355  0.00  0.00     0.011 A 
HETATM    4  C   UNK N   1      34.416  17.950   8.471  0.00  0.00     0.038 A 
HETATM    5  C   UNK N   1      34.450  16.935   9.434  0.00  0.00     0.079 A 
HETATM    6  C   UNK N   1      33.629  15.815   9.262  0.00  0.00     0.038 A 
HETATM    7  C   UNK N   1      32.799  15.715   8.158  0.00  0.00     0.011 A 
BRANCH   5   8
HETATM    8  O   UNK N   1      35.274  17.054  10.511  0.00  0.00    -0.279 OA
BRANCH   8   9
HETATM    9  C   UNK N   1      36.091  16.091  11.025  0.00  0.00     0.260 C 
HETATM   10  C   UNK N   1      35.667  15.340  12.235  0.00  0.00     0.126 C 
HETATM   11  O   UNK N   1      37.173  15.826  10.512  0.00  0.00    -0.265 OA
ENDBRANCH   8   9
ENDBRANCH   5   8
ENDBRANCH   1   2
BRANCH   1  12
HETATM   12  C   UNK N   1      30.424  17.247   5.943  0.00  0.00    -0.044 A 
HETATM   13  C   UNK N   1      29.872  17.662   4.726  0.00  0.00     0.011 A 
HETATM   14  C   UNK N   1      28.635  18.284   4.662  0.00  0.00     0.038 A 
HETATM   15  C   UNK N   1      27.894  18.517   5.825  0.00  0.00     0.079 A 
HETATM   16  C   UNK N   1      28.425  18.111   7.055  0.00  0.00     0.038 A 
HETATM   17  C   UNK N   1      29.678  17.482   7.113  0.00  0.00     0.011 A 
BRANCH  15  18
HETATM   18  O   UNK N   1      26.678  19.126   5.788  0.00  0.00    -0.279 OA
BRANCH  18  19
HETATM   19  C   UNK N   1      26.412  20.398   5.377  0.00  0.00     0.260 C 
HETATM   20  C   UNK N   1      26.887  21.546   6.193  0.00  0.00     0.126 C 
HETATM   21  O   UNK N   1      25.787  20.623   4.346  0.00  0.00    -0.265 OA
ENDBRANCH  18  19
ENDBRANCH  15  18
ENDBRANCH   1  12
BRANCH   1  22
HETATM   22  C   UNK N   1      32.237  15.699   4.748  0.00  0.00     0.022 A 
HETATM   23  C   UNK N   1      33.210  16.144   3.839  0.00  0.00     0.026 A 
HETATM   24  C   UNK N   1      33.581  15.355   2.753  0.00  0.00     0.003 A 
HETATM   25  C   UNK N   1      32.981  14.113   2.566  0.00  0.00     0.017 A 
HETATM   26  C   UNK N   1      32.018  13.685   3.475  0.00  0.00     0.088 A 
HETATM   27  N   UNK N   1      31.674  14.475   4.527  0.00  0.00    -0.368 N 
ATOM     28  HN  UNK N   1      30.965  14.138   5.180  1.00  0.00     0.165 HD
ENDBRANCH   1  22
TORSDOF 7
ENDMDL
MODEL 5
REMARK VINA RESULT:      -7.3      3.948      8.714
REMARK  7 active torsions:
REMARK  status: ('A' for Active; 'I' for Inactive)
REMARK    1  A    between atoms: O_27  and  C_15 
REMARK    2  A    between atoms: O_28  and  C_16 
REMARK    3  A    between atoms: C_22  and  C_17 
REMARK    4  A    between atoms: C_22  and  C_18 
REMARK    5  A    between atoms: O_27  and  C_19 
REMARK    6  A    between atoms: O_28  and  C_20 
REMARK    7  A    between atoms: C_22  and  C_21 
ROOT
HETATM    1  C   UNK N   1      26.745  17.812   4.486  0.00  0.00     0.101 C 
ENDROOT
BRANCH   1   2
HETATM    2  C   UNK N   1      27.387  16.740   3.580  0.00  0.00    -0.044 A 
HETATM    3  C   UNK N   1      28.780  16.564   3.489  0.00  0.00     0.011 A 
HETATM    4  C   UNK N   1      29.330  15.579   2.654  0.00  0.00     0.038 A 
HETATM    5  C   UNK N   1      28.495  14.750   1.895  0.00  0.00     0.079 A 
HETATM    6  C   UNK N   1      27.111  14.924   1.985  0.00  0.00     0.038 A 
HETATM    7  C   UNK N   1      26.576  15.899   2.811  0.00  0.00     0.011 A 
BRANCH   5   8
HETATM    8  O   UNK N   1      29.042  13.799   1.090  0.00  0.00    -0.279 OA
BRANCH   8   9
HETATM    9  C   UNK N   1      29.266  12.491   1.406  0.00  0.00     0.260 C 
HETATM   10  C   UNK N   1      28.243  11.470   1.065  0.00  0.00     0.126 C 
HETATM   11  O   UNK N   1      30.296  12.135   1.968  0.00  0.00    -0.265 OA
ENDBRANCH   8   9
ENDBRANCH   5   8
ENDBRANCH   1   2
BRANCH   1  12
HETATM   12  C   UNK N   1      25.563  18.667   3.986  0.00  0.00    -0.044 A 
HETATM   13  C   UNK N   1      24.251  18.307   4.314  0.00  0.00     0.011 A 
HETATM   14  C   UNK N   1      23.162  19.049   3.884  0.00  0.00     0.038 A 
HETATM   15  C   UNK N   1      23.345  20.193   3.101  0.00  0.00     0.079 A 
HETATM   16  C   UNK N   1      24.648  20.574   2.759  0.00  0.00     0.038 A 
HETATM   17  C   UNK N   1      25.746  19.819   3.198  0.00  0.00     0.011 A 
BRANCH  15  18
HETATM   18  O   UNK N   1      22.293  20.938   2.666  0.00  0.00    -0.279 OA
BRANCH  18  19
HETATM   19  C   UNK N   1      21.306  20.541   1.814  0.00  0.00     0.260 C 
HETATM   20  C   UNK N   1      20.084  19.894   2.358  0.00  0.00     0.126 C 
HETATM   21  O   UNK N   1      21.400  20.705   0.602  0.00  0.00    -0.265 OA
ENDBRANCH  18  19
ENDBRANCH  15  18
ENDBRANCH   1  12
BRANCH   1  22
HETATM   22  C   UNK N   1      27.285  18.046   5.925  0.00  0.00     0.022 A 
HETATM   23  C   UNK N   1      27.708  19.313   6.357  0.00  0.00     0.026 A 
HETATM   24  C   UNK N   1      28.189  19.496   7.652  0.00  0.00     0.003 A 
HETATM   25  C   UNK N   1      28.251  18.415   8.525  0.00  0.00     0.017 A 
HETATM   26  C   UNK N   1      27.828  17.164   8.082  0.00  0.00     0.088 A 
HETATM   27  N   UNK N   1      27.363  17.012   6.812  0.00  0.00    -0.368 N 
ATOM     28  HN  UNK N   1      27.059  16.085   6.511  1.00  0.00     0.165 HD
ENDBRANCH   1  22
TORSDOF 7
ENDMDL
MODEL 6
REMARK VINA RESULT:      -7.3      3.918      6.049
REMARK  7 active torsions:
REMARK  status: ('A' for Active; 'I' for Inactive)
REMARK    1  A    between atoms: O_27  and  C_15 
REMARK    2  A    between atoms: O_28  and  C_16 
REMARK    3  A    between atoms: C_22  and  C_17 
REMARK    4  A    between atoms: C_22  and  C_18 
REMARK    5  A    between atoms: O_27  and  C_19 
REMARK    6  A    between atoms: O_28  and  C_20 
REMARK    7  A    between atoms: C_22  and  C_21 
ROOT
HETATM    1  C   UNK N   1      26.699  17.805   4.457  0.00  0.00     0.101 C 
ENDROOT
BRANCH   1   2
HETATM    2  C   UNK N   1      25.522  18.668   3.955  0.00  0.00    -0.044 A 
HETATM    3  C   UNK N   1      25.712  19.822   3.172  0.00  0.00     0.011 A 
HETATM    4  C   UNK N   1      24.618  20.583   2.733  0.00  0.00     0.038 A 
HETATM    5  C   UNK N   1      23.313  20.205   3.068  0.00  0.00     0.079 A 
HETATM    6  C   UNK N   1      23.123  19.058   3.846  0.00  0.00     0.038 A 
HETATM    7  C   UNK N   1      24.208  18.312   4.276  0.00  0.00     0.011 A 
BRANCH   5   8
HETATM    8  O   UNK N   1      22.262  20.953   2.635  0.00  0.00    -0.279 OA
BRANCH   8   9
HETATM    9  C   UNK N   1      21.278  20.559   1.776  0.00  0.00     0.260 C 
HETATM   10  C   UNK N   1      20.068  19.882   2.310  0.00  0.00     0.126 C 
HETATM   11  O   UNK N   1      21.366  20.750   0.569  0.00  0.00    -0.265 OA
ENDBRANCH   8   9
ENDBRANCH   5   8
ENDBRANCH   1   2
BRANCH   1  12
HETATM   12  C   UNK N   1      27.320  16.714   3.561  0.00  0.00    -0.044 A 
HETATM   13  C   UNK N   1      28.711  16.606   3.452  0.00  0.00     0.011 A 
HETATM   14  C   UNK N   1      29.307  15.639   2.657  0.00  0.00     0.038 A 
HETATM   15  C   UNK N   1      28.525  14.733   1.932  0.00  0.00     0.079 A 
HETATM   16  C   UNK N   1      27.131  14.820   2.025  0.00  0.00     0.038 A 
HETATM   17  C   UNK N   1      26.534  15.801   2.831  0.00  0.00     0.011 A 
BRANCH  15  18
HETATM   18  O   UNK N   1      29.087  13.775   1.145  0.00  0.00    -0.279 OA
BRANCH  18  19
HETATM   19  C   UNK N   1      29.330  12.477   1.484  0.00  0.00     0.260 C 
HETATM   20  C   UNK N   1      28.860  11.387   0.589  0.00  0.00     0.126 C 
HETATM   21  O   UNK N   1      29.929  12.183   2.512  0.00  0.00    -0.265 OA
ENDBRANCH  18  19
ENDBRANCH  15  18
ENDBRANCH   1  12
BRANCH   1  22
HETATM   22  C   UNK N   1      27.279  18.026   5.882  0.00  0.00     0.022 A 
HETATM   23  C   UNK N   1      27.743  19.282   6.304  0.00  0.00     0.026 A 
HETATM   24  C   UNK N   1      28.258  19.454   7.587  0.00  0.00     0.003 A 
HETATM   25  C   UNK N   1      28.314  18.371   8.459  0.00  0.00     0.017 A 
HETATM   26  C   UNK N   1      27.850  17.131   8.026  0.00  0.00     0.088 A 
HETATM   27  N   UNK N   1      27.352  16.990   6.768  0.00  0.00    -0.368 N 
ATOM     28  HN  UNK N   1      27.018  16.071   6.475  1.00  0.00     0.165 HD
ENDBRANCH   1  22
TORSDOF 7
ENDMDL
MODEL 7
REMARK VINA RESULT:      -7.3      2.806      8.324
REMARK  7 active torsions:
REMARK  status: ('A' for Active; 'I' for Inactive)
REMARK    1  A    between atoms: O_27  and  C_15 
REMARK    2  A    between atoms: O_28  and  C_16 
REMARK    3  A    between atoms: C_22  and  C_17 
REMARK    4  A    between atoms: C_22  and  C_18 
REMARK    5  A    between atoms: O_27  and  C_19 
REMARK    6  A    between atoms: O_28  and  C_20 
REMARK    7  A    between atoms: C_22  and  C_21 
ROOT
HETATM    1  C   UNK N   1      29.103  17.798   5.353  0.00  0.00     0.101 C 
ENDROOT
BRANCH   1   2
HETATM    2  C   UNK N   1      30.266  17.138   4.581  0.00  0.00    -0.044 A 
HETATM    3  C   UNK N   1      31.472  17.811   4.314  0.00  0.00     0.011 A 
HETATM    4  C   UNK N   1      32.510  17.181   3.609  0.00  0.00     0.038 A 
HETATM    5  C   UNK N   1      32.359  15.864   3.158  0.00  0.00     0.079 A 
HETATM    6  C   UNK N   1      31.161  15.194   3.423  0.00  0.00     0.038 A 
HETATM    7  C   UNK N   1      30.142  15.824   4.119  0.00  0.00     0.011 A 
BRANCH   5   8
HETATM    8  O   UNK N   1      33.373  15.266   2.476  0.00  0.00    -0.279 OA
BRANCH   8   9
HETATM    9  C   UNK N   1      34.061  14.148   2.849  0.00  0.00     0.260 C 
HETATM   10  C   UNK N   1      34.879  14.172   4.089  0.00  0.00     0.126 C 
HETATM   11  O   UNK N   1      34.021  13.119   2.185  0.00  0.00    -0.265 OA
ENDBRANCH   8   9
ENDBRANCH   5   8
ENDBRANCH   1   2
BRANCH   1  12
HETATM   12  C   UNK N   1      27.939  18.476   4.602  0.00  0.00    -0.044 A 
HETATM   13  C   UNK N   1      26.974  17.696   3.956  0.00  0.00     0.011 A 
HETATM   14  C   UNK N   1      25.913  18.268   3.271  0.00  0.00     0.038 A 
HETATM   15  C   UNK N   1      25.775  19.658   3.206  0.00  0.00     0.079 A 
HETATM   16  C   UNK N   1      26.728  20.461   3.844  0.00  0.00     0.038 A 
HETATM   17  C   UNK N   1      27.799  19.876   4.535  0.00  0.00     0.011 A 
BRANCH  15  18
HETATM   18  O   UNK N   1      24.742  20.243   2.540  0.00  0.00    -0.279 OA
BRANCH  18  19
HETATM   19  C   UNK N   1      23.487  20.475   3.018  0.00  0.00     0.260 C 
HETATM   20  C   UNK N   1      22.682  19.342   3.542  0.00  0.00     0.126 C 
HETATM   21  O   UNK N   1      23.002  21.601   3.027  0.00  0.00    -0.265 OA
ENDBRANCH  18  19
ENDBRANCH  15  18
ENDBRANCH   1  12
BRANCH   1  22
HETATM   22  C   UNK N   1      29.090  17.787   6.907  0.00  0.00     0.022 A 
HETATM   23  C   UNK N   1      30.269  17.641   7.654  0.00  0.00     0.026 A 
HETATM   24  C   UNK N   1      30.230  17.634   9.047  0.00  0.00     0.003 A 
HETATM   25  C   UNK N   1      29.012  17.773   9.703  0.00  0.00     0.017 A 
HETATM   26  C   UNK N   1      27.850  17.917   8.949  0.00  0.00     0.088 A 
HETATM   27  N   UNK N   1      27.916  17.920   7.590  0.00  0.00    -0.368 N 
ATOM     28  HN  UNK N   1      27.050  18.027   7.060  1.00  0.00     0.165 HD
ENDBRANCH   1  22
TORSDOF 7
ENDMDL
MODEL 8
REMARK VINA RESULT:      -7.3      2.737      5.212
REMARK  7 active torsions:
REMARK  status: ('A' for Active; 'I' for Inactive)
REMARK    1  A    between atoms: O_27  and  C_15 
REMARK    2  A    between atoms: O_28  and  C_16 
REMARK    3  A    between atoms: C_22  and  C_17 
REMARK    4  A    between atoms: C_22  and  C_18 
REMARK    5  A    between atoms: O_27  and  C_19 
REMARK    6  A    between atoms: O_28  and  C_20 
REMARK    7  A    between atoms: C_22  and  C_21 
ROOT
HETATM    1  C   UNK N   1      29.258  17.328   4.846  0.00  0.00     0.101 C 
ENDROOT
BRANCH   1   2
HETATM    2  C   UNK N   1      28.758  16.075   4.095  0.00  0.00    -0.044 A 
HETATM    3  C   UNK N   1      28.947  15.898   2.712  0.00  0.00     0.011 A 
HETATM    4  C   UNK N   1      28.479  14.746   2.061  0.00  0.00     0.038 A 
HETATM    5  C   UNK N   1      27.812  13.749   2.782  0.00  0.00     0.079 A 
HETATM    6  C   UNK N   1      27.623  13.923   4.156  0.00  0.00     0.038 A 
HETATM    7  C   UNK N   1      28.088  15.064   4.792  0.00  0.00     0.011 A 
BRANCH   5   8
HETATM    8  O   UNK N   1      27.363  12.637   2.138  0.00  0.00    -0.279 OA
BRANCH   8   9
HETATM    9  C   UNK N   1      26.094  12.405   1.697  0.00  0.00     0.260 C 
HETATM   10  C   UNK N   1      25.697  11.030   1.299  0.00  0.00     0.126 C 
HETATM   11  O   UNK N   1      25.266  13.307   1.621  0.00  0.00    -0.265 OA
ENDBRANCH   8   9
ENDBRANCH   5   8
ENDBRANCH   1   2
BRANCH   1  12
HETATM   12  C   UNK N   1      30.662  17.361   5.482  0.00  0.00    -0.044 A 
HETATM   13  C   UNK N   1      31.792  17.539   4.676  0.00  0.00     0.011 A 
HETATM   14  C   UNK N   1      33.071  17.575   5.210  0.00  0.00     0.038 A 
HETATM   15  C   UNK N   1      33.271  17.432   6.587  0.00  0.00     0.079 A 
HETATM   16  C   UNK N   1      32.157  17.252   7.415  0.00  0.00     0.038 A 
HETATM   17  C   UNK N   1      30.865  17.217   6.868  0.00  0.00     0.011 A 
BRANCH  15  18
HETATM   18  O   UNK N   1      34.516  17.463   7.135  0.00  0.00    -0.279 OA
BRANCH  18  19
HETATM   19  C   UNK N   1      34.865  17.984   8.345  0.00  0.00     0.260 C 
HETATM   20  C   UNK N   1      34.864  17.110   9.547  0.00  0.00     0.126 C 
HETATM   21  O   UNK N   1      35.181  19.162   8.469  0.00  0.00    -0.265 OA
ENDBRANCH  18  19
ENDBRANCH  15  18
ENDBRANCH   1  12
BRANCH   1  22
HETATM   22  C   UNK N   1      28.347  18.580   4.972  0.00  0.00     0.022 A 
HETATM   23  C   UNK N   1      27.993  19.114   6.221  0.00  0.00     0.026 A 
HETATM   24  C   UNK N   1      27.175  20.238   6.307  0.00  0.00     0.003 A 
HETATM   25  C   UNK N   1      26.703  20.838   5.144  0.00  0.00     0.017 A 
HETATM   26  C   UNK N   1      27.062  20.298   3.912  0.00  0.00     0.088 A 
HETATM   27  N   UNK N   1      27.862  19.199   3.856  0.00  0.00    -0.368 N 
ATOM     28  HN  UNK N   1      28.111  18.822   2.941  1.00  0.00     0.165 HD
ENDBRANCH   1  22
TORSDOF 7
ENDMDL
MODEL 9
REMARK VINA RESULT:      -7.2      0.919      7.625
REMARK  7 active torsions:
REMARK  status: ('A' for Active; 'I' for Inactive)
REMARK    1  A    between atoms: O_27  and  C_15 
REMARK    2  A    between atoms: O_28  and  C_16 
REMARK    3  A    between atoms: C_22  and  C_17 
REMARK    4  A    between atoms: C_22  and  C_18 
REMARK    5  A    between atoms: O_27  and  C_19 
REMARK    6  A    between atoms: O_28  and  C_20 
REMARK    7  A    between atoms: C_22  and  C_21 
ROOT
HETATM    1  C   UNK N   1      29.543  16.665   5.031  0.00  0.00     0.101 C 
ENDROOT
BRANCH   1   2
HETATM    2  C   UNK N   1      30.740  17.048   5.927  0.00  0.00    -0.044 A 
HETATM    3  C   UNK N   1      30.604  17.284   7.308  0.00  0.00     0.011 A 
HETATM    4  C   UNK N   1      31.715  17.630   8.093  0.00  0.00     0.038 A 
HETATM    5  C   UNK N   1      32.983  17.747   7.512  0.00  0.00     0.079 A 
HETATM    6  C   UNK N   1      33.119  17.513   6.141  0.00  0.00     0.038 A 
HETATM    7  C   UNK N   1      32.018  17.172   5.372  0.00  0.00     0.011 A 
BRANCH   5   8
HETATM    8  O   UNK N   1      34.051  18.084   8.286  0.00  0.00    -0.279 OA
BRANCH   8   9
HETATM    9  C   UNK N   1      34.744  17.260   9.123  0.00  0.00     0.260 C 
HETATM   10  C   UNK N   1      34.720  15.793   8.893  0.00  0.00     0.126 C 
HETATM   11  O   UNK N   1      35.391  17.702  10.067  0.00  0.00    -0.265 OA
ENDBRANCH   8   9
ENDBRANCH   5   8
ENDBRANCH   1   2
BRANCH   1  12
HETATM   12  C   UNK N   1      28.372  17.644   4.814  0.00  0.00    -0.044 A 
HETATM   13  C   UNK N   1      27.055  17.173   4.826  0.00  0.00     0.011 A 
HETATM   14  C   UNK N   1      25.975  18.021   4.635  0.00  0.00     0.038 A 
HETATM   15  C   UNK N   1      26.173  19.389   4.422  0.00  0.00     0.079 A 
HETATM   16  C   UNK N   1      27.482  19.886   4.406  0.00  0.00     0.038 A 
HETATM   17  C   UNK N   1      28.570  19.022   4.600  0.00  0.00     0.011 A 
BRANCH  15  18
HETATM   18  O   UNK N   1      25.130  20.241   4.232  0.00  0.00    -0.279 OA
BRANCH  18  19
HETATM   19  C   UNK N   1      24.447  20.453   3.072  0.00  0.00     0.260 C 
HETATM   20  C   UNK N   1      22.987  20.183   3.021  0.00  0.00     0.126 C 
HETATM   21  O   UNK N   1      25.009  20.863   2.062  0.00  0.00    -0.265 OA
ENDBRANCH  18  19
ENDBRANCH  15  18
ENDBRANCH   1  12
BRANCH   1  22
HETATM   22  C   UNK N   1      29.503  15.279   4.330  0.00  0.00     0.022 A 
HETATM   23  C   UNK N   1      29.476  15.159   2.932  0.00  0.00     0.026 A 
HETATM   24  C   UNK N   1      29.440  13.904   2.327  0.00  0.00     0.003 A 
HETATM   25  C   UNK N   1      29.430  12.759   3.117  0.00  0.00     0.017 A 
HETATM   26  C   UNK N   1      29.457  12.893   4.503  0.00  0.00     0.088 A 
HETATM   27  N   UNK N   1      29.492  14.130   5.067  0.00  0.00    -0.368 N 
ATOM     28  HN  UNK N   1      29.511  14.202   6.085  1.00  0.00     0.165 HD
ENDBRANCH   1  22
TORSDOF 7
ENDMDL
