MODEL 1
REMARK VINA RESULT:     -14.1      0.000      0.000
REMARK  4 active torsions:
REMARK  status: ('A' for Active; 'I' for Inactive)
REMARK    1  A    between atoms: C_24  and  C_37 
REMARK    2  A    between atoms: C_28  and  N_41 
REMARK    3  A    between atoms: C_30  and  C_35 
REMARK    4  A    between atoms: C_34  and  O_38 
ROOT
HETATM    1  C   UNK N   1      38.319  13.590   9.797  0.00  0.00     0.201 A 
HETATM    2  O   UNK N   1      37.497  13.612   9.732  0.00  0.00    -0.394 OA
HETATM    3  C   UNK N   1      37.138  14.151   9.221  0.00  0.00     0.193 A 
HETATM    4  C   UNK N   1      36.316  14.173   9.156  0.00  0.00     0.193 A 
HETATM    5  O   UNK N   1      35.957  14.713   8.644  0.00  0.00    -0.387 OA
HETATM    6  C   UNK N   1      35.135  14.735   8.580  0.00  0.00     0.193 A 
HETATM    7  C   UNK N   1      34.776  15.274   8.068  0.00  0.00     0.193 A 
HETATM    8  O   UNK N   1      33.954  15.296   8.003  0.00  0.00    -0.387 OA
HETATM    9  C   UNK N   1      33.595  15.836   7.492  0.00  0.00     0.193 A 
HETATM   10  C   UNK N   1      32.773  15.858   7.427  0.00  0.00     0.193 A 
HETATM   11  O   UNK N   1      32.414  16.397   6.916  0.00  0.00    -0.387 OA
HETATM   12  C   UNK N   1      31.592  16.419   6.851  0.00  0.00     0.193 A 
HETATM   13  C   UNK N   1      31.233  16.959   6.340  0.00  0.00     0.193 A 
HETATM   14  O   UNK N   1      30.411  16.981   6.275  0.00  0.00    -0.387 OA
HETATM   15  C   UNK N   1      30.052  17.520   5.764  0.00  0.00     0.193 A 
HETATM   16  C   UNK N   1      29.230  17.542   5.699  0.00  0.00     0.193 A 
HETATM   17  O   UNK N   1      28.871  18.082   5.188  0.00  0.00    -0.387 OA
HETATM   18  C   UNK N   1      28.049  18.104   5.123  0.00  0.00     0.193 A 
HETATM   19  C   UNK N   1      27.690  18.643   4.611  0.00  0.00     0.193 A 
HETATM   20  O   UNK N   1      26.868  18.665   4.547  0.00  0.00    -0.387 OA
HETATM   21  C   UNK N   1      26.509  19.205   4.036  0.00  0.00     0.193 A 
HETATM   22  C   UNK N   1      25.687  19.227   3.971  0.00  0.00     0.194 A 
HETATM   23  O   UNK N   1      25.328  19.766   3.460  0.00  0.00    -0.381 OA
HETATM   24  C   UNK N   1      24.506  19.788   3.394  0.00  0.00     0.152 A 
HETATM   25  C   UNK N   1      24.161  20.329   2.883  0.00  0.00     0.037 A 
HETATM   26  C   UNK N   1      23.358  20.301   2.865  0.00  0.00     0.044 A 
HETATM   27  C   UNK N   1      22.854  19.661   3.420  0.00  0.00     0.093 A 
HETATM   28  C   UNK N   1      21.904  19.451   3.559  0.00  0.00     0.119 A 
HETATM   29  C   UNK N   1      21.605  18.880   4.063  0.00  0.00     0.067 A 
HETATM   30  C   UNK N   1      22.185  18.482   4.457  0.00  0.00    -0.046 A 
HETATM   31  C   UNK N   1      21.953  17.887   4.986  0.00  0.00     0.011 A 
HETATM   32  C   UNK N   1      22.543  17.476   5.393  0.00  0.00     0.040 A 
HETATM   33  C   UNK N   1      23.346  17.670   5.260  0.00  0.00     0.099 A 
HETATM   34  C   UNK N   1      23.579  18.284   4.714  0.00  0.00     0.110 A 
HETATM   35  C   UNK N   1      22.979  18.681   4.320  0.00  0.00    -0.001 A 
HETATM   36  C   UNK N   1      23.194  19.318   3.751  0.00  0.00     0.054 A 
HETATM   37  C   UNK N   1      24.046  19.255   3.855  0.00  0.00     0.174 A 
HETATM   38  O   UNK N   1      24.258  18.665   4.404  0.00  0.00    -0.339 OA
HETATM   39  C   UNK N   1      22.960  20.057   3.065  0.00  0.00     0.040 A 
HETATM   40  C   UNK N   1      22.193  20.382   2.727  0.00  0.00     0.119 A 
HETATM   41  N   UNK N   1      21.566  19.978   3.060  0.00  0.00    -0.402 N 
HETATM   42  C   UNK N   1      20.761  20.089   2.915  0.00  0.00     0.144 A 
HETATM   43  C   UNK N   1      20.515  20.665   2.377  0.00  0.00    -0.018 A 
HETATM   44  C   UNK N   1      21.073  21.129   1.985  0.00  0.00     0.008 A 
HETATM   45  O   UNK N   1      23.930  17.256   5.670  0.00  0.00    -0.358 OA
HETATM   46  O   UNK N   1      22.358  20.135   2.961  0.00  0.00    -0.386 OA
HETATM   47  H   UNK N   1      24.834  17.461   5.532  0.00  0.00     0.217 HD
HETATM   48  H   UNK N   1      21.397  20.022   3.011  0.00  0.00     0.210 HD
ENDROOT
TORSDOF 4
ENDMDL
MODEL 2
REMARK VINA RESULT:     -13.9      1.060      2.223
REMARK  4 active torsions:
REMARK  status: ('A' for Active; 'I' for Inactive)
REMARK    1  A    between atoms: C_24  and  C_37 
REMARK    2  A    between atoms: C_28  and  N_41 
REMARK    3  A    between atoms: C_30  and  C_35 
REMARK    4  A    between atoms: C_34  and  O_38 
ROOT
HETATM    1  C   UNK N   1      39.090  13.222  10.188  0.00  0.00     0.201 A 
HETATM    2  O   UNK N   1      38.619  13.731   9.742  0.00  0.00    -0.394 OA
HETATM    3  C   UNK N   1      37.800  13.627   9.725  0.00  0.00     0.193 A 
HETATM    4  C   UNK N   1      37.329  14.137   9.279  0.00  0.00     0.193 A 
HETATM    5  O   UNK N   1      36.510  14.032   9.262  0.00  0.00    -0.387 OA
HETATM    6  C   UNK N   1      36.039  14.542   8.817  0.00  0.00     0.193 A 
HETATM    7  C   UNK N   1      35.220  14.437   8.800  0.00  0.00     0.193 A 
HETATM    8  O   UNK N   1      34.749  14.947   8.354  0.00  0.00    -0.387 OA
HETATM    9  C   UNK N   1      33.931  14.843   8.337  0.00  0.00     0.193 A 
HETATM   10  C   UNK N   1      33.460  15.352   7.891  0.00  0.00     0.193 A 
HETATM   11  O   UNK N   1      32.641  15.248   7.874  0.00  0.00    -0.387 OA
HETATM   12  C   UNK N   1      32.170  15.758   7.428  0.00  0.00     0.193 A 
HETATM   13  C   UNK N   1      31.351  15.653   7.411  0.00  0.00     0.193 A 
HETATM   14  O   UNK N   1      30.880  16.163   6.965  0.00  0.00    -0.387 OA
HETATM   15  C   UNK N   1      30.061  16.059   6.948  0.00  0.00     0.193 A 
HETATM   16  C   UNK N   1      29.590  16.568   6.502  0.00  0.00     0.193 A 
HETATM   17  O   UNK N   1      28.771  16.464   6.485  0.00  0.00    -0.387 OA
HETATM   18  C   UNK N   1      28.301  16.974   6.039  0.00  0.00     0.193 A 
HETATM   19  C   UNK N   1      27.482  16.869   6.022  0.00  0.00     0.193 A 
HETATM   20  O   UNK N   1      27.011  17.379   5.576  0.00  0.00    -0.387 OA
HETATM   21  C   UNK N   1      26.193  17.274   5.560  0.00  0.00     0.193 A 
HETATM   22  C   UNK N   1      25.721  17.784   5.113  0.00  0.00     0.194 A 
HETATM   23  O   UNK N   1      24.903  17.680   5.097  0.00  0.00    -0.381 OA
HETATM   24  C   UNK N   1      24.431  18.190   4.651  0.00  0.00     0.152 A 
HETATM   25  C   UNK N   1      23.619  18.075   4.642  0.00  0.00     0.037 A 
HETATM   26  C   UNK N   1      23.217  18.604   4.190  0.00  0.00     0.044 A 
HETATM   27  C   UNK N   1      23.682  19.319   3.697  0.00  0.00     0.093 A 
HETATM   28  C   UNK N   1      23.410  20.053   3.103  0.00  0.00     0.119 A 
HETATM   29  C   UNK N   1      23.908  20.595   2.747  0.00  0.00     0.067 A 
HETATM   30  C   UNK N   1      24.683  20.472   2.933  0.00  0.00    -0.046 A 
HETATM   31  C   UNK N   1      25.245  20.986   2.606  0.00  0.00     0.011 A 
HETATM   32  C   UNK N   1      26.040  20.864   2.793  0.00  0.00     0.040 A 
HETATM   33  C   UNK N   1      26.252  20.234   3.301  0.00  0.00     0.099 A 
HETATM   34  C   UNK N   1      25.669  19.706   3.635  0.00  0.00     0.110 A 
HETATM   35  C   UNK N   1      24.884  19.844   3.438  0.00  0.00    -0.001 A 
HETATM   36  C   UNK N   1      24.264  19.314   3.770  0.00  0.00     0.054 A 
HETATM   37  C   UNK N   1      24.798  18.811   4.218  0.00  0.00     0.174 A 
HETATM   38  O   UNK N   1      25.596  19.039   4.138  0.00  0.00    -0.339 OA
HETATM   39  C   UNK N   1      23.282  19.007   3.889  0.00  0.00     0.040 A 
HETATM   40  C   UNK N   1      22.491  19.295   3.575  0.00  0.00     0.119 A 
HETATM   41  N   UNK N   1      22.617  19.943   3.093  0.00  0.00    -0.402 N 
HETATM   42  C   UNK N   1      22.053  20.387   2.687  0.00  0.00     0.144 A 
HETATM   43  C   UNK N   1      21.253  20.188   2.744  0.00  0.00    -0.018 A 
HETATM   44  C   UNK N   1      21.019  19.547   3.207  0.00  0.00     0.008 A 
HETATM   45  O   UNK N   1      27.047  20.117   3.484  0.00  0.00    -0.358 OA
HETATM   46  O   UNK N   1      22.865  19.342   3.583  0.00  0.00    -0.386 OA
HETATM   47  H   UNK N   1      27.301  19.415   4.051  0.00  0.00     0.217 HD
HETATM   48  H   UNK N   1      22.475  20.024   3.015  0.00  0.00     0.210 HD
ENDROOT
TORSDOF 4
ENDMDL
MODEL 3
REMARK VINA RESULT:     -13.7      7.285     10.829
REMARK  4 active torsions:
REMARK  status: ('A' for Active; 'I' for Inactive)
REMARK    1  A    between atoms: C_24  and  C_37 
REMARK    2  A    between atoms: C_28  and  N_41 
REMARK    3  A    between atoms: C_30  and  C_35 
REMARK    4  A    between atoms: C_34  and  O_38 
ROOT
HETATM    1  C   UNK N   1      36.329   9.437  22.378  0.00  0.00     0.201 A 
HETATM    2  O   UNK N   1      35.867   9.831  21.820  0.00  0.00    -0.394 OA
HETATM    3  C   UNK N   1      36.169   9.981  21.067  0.00  0.00     0.193 A 
HETATM    4  C   UNK N   1      35.706  10.375  20.509  0.00  0.00     0.193 A 
HETATM    5  O   UNK N   1      36.008  10.525  19.755  0.00  0.00    -0.387 OA
HETATM    6  C   UNK N   1      35.546  10.919  19.197  0.00  0.00     0.193 A 
HETATM    7  C   UNK N   1      35.848  11.069  18.443  0.00  0.00     0.193 A 
HETATM    8  O   UNK N   1      35.386  11.463  17.885  0.00  0.00    -0.387 OA
HETATM    9  C   UNK N   1      35.688  11.613  17.132  0.00  0.00     0.193 A 
HETATM   10  C   UNK N   1      35.226  12.007  16.574  0.00  0.00     0.193 A 
HETATM   11  O   UNK N   1      35.528  12.157  15.820  0.00  0.00    -0.387 OA
HETATM   12  C   UNK N   1      35.066  12.551  15.262  0.00  0.00     0.193 A 
HETATM   13  C   UNK N   1      35.368  12.701  14.508  0.00  0.00     0.193 A 
HETATM   14  O   UNK N   1      34.905  13.095  13.950  0.00  0.00    -0.387 OA
HETATM   15  C   UNK N   1      35.207  13.245  13.197  0.00  0.00     0.193 A 
HETATM   16  C   UNK N   1      34.745  13.639  12.639  0.00  0.00     0.193 A 
HETATM   17  O   UNK N   1      35.047  13.789  11.885  0.00  0.00    -0.387 OA
HETATM   18  C   UNK N   1      34.585  14.183  11.327  0.00  0.00     0.193 A 
HETATM   19  C   UNK N   1      34.887  14.332  10.573  0.00  0.00     0.193 A 
HETATM   20  O   UNK N   1      34.425  14.726  10.015  0.00  0.00    -0.387 OA
HETATM   21  C   UNK N   1      34.727  14.876   9.262  0.00  0.00     0.193 A 
HETATM   22  C   UNK N   1      34.265  15.270   8.703  0.00  0.00     0.194 A 
HETATM   23  O   UNK N   1      34.567  15.420   7.951  0.00  0.00    -0.381 OA
HETATM   24  C   UNK N   1      34.104  15.814   7.392  0.00  0.00     0.152 A 
HETATM   25  C   UNK N   1      34.416  15.957   6.647  0.00  0.00     0.037 A 
HETATM   26  C   UNK N   1      33.917  16.344   6.149  0.00  0.00     0.044 A 
HETATM   27  C   UNK N   1      33.013  16.613   6.435  0.00  0.00     0.093 A 
HETATM   28  C   UNK N   1      32.256  17.078   6.016  0.00  0.00     0.119 A 
HETATM   29  C   UNK N   1      31.537  17.246   6.370  0.00  0.00     0.067 A 
HETATM   30  C   UNK N   1      31.499  16.984   7.132  0.00  0.00    -0.046 A 
HETATM   31  C   UNK N   1      30.798  17.120   7.552  0.00  0.00     0.011 A 
HETATM   32  C   UNK N   1      30.754  16.854   8.332  0.00  0.00     0.040 A 
HETATM   33  C   UNK N   1      31.410  16.460   8.671  0.00  0.00     0.099 A 
HETATM   34  C   UNK N   1      32.130  16.322   8.233  0.00  0.00     0.110 A 
HETATM   35  C   UNK N   1      32.155  16.594   7.460  0.00  0.00    -0.001 A 
HETATM   36  C   UNK N   1      32.887  16.464   6.987  0.00  0.00     0.054 A 
HETATM   37  C   UNK N   1      33.328  16.058   7.604  0.00  0.00     0.174 A 
HETATM   38  O   UNK N   1      32.892  15.980   8.310  0.00  0.00    -0.339 OA
HETATM   39  C   UNK N   1      33.452  16.546   6.123  0.00  0.00     0.040 A 
HETATM   40  C   UNK N   1      33.310  16.900   5.310  0.00  0.00     0.119 A 
HETATM   41  N   UNK N   1      32.558  17.219   5.288  0.00  0.00    -0.402 N 
HETATM   42  C   UNK N   1      32.191  17.601   4.656  0.00  0.00     0.144 A 
HETATM   43  C   UNK N   1      32.593  17.695   3.941  0.00  0.00    -0.018 A 
HETATM   44  C   UNK N   1      33.362  17.407   3.859  0.00  0.00     0.008 A 
HETATM   45  O   UNK N   1      31.360  16.196   9.451  0.00  0.00    -0.358 OA
HETATM   46  O   UNK N   1      33.173  16.832   5.655  0.00  0.00    -0.386 OA
HETATM   47  H   UNK N   1      32.086  15.754   9.844  0.00  0.00     0.217 HD
HETATM   48  H   UNK N   1      32.500  17.298   5.135  0.00  0.00     0.210 HD
ENDROOT
TORSDOF 4
ENDMDL
MODEL 4
REMARK VINA RESULT:     -13.3     11.099     15.680
REMARK  4 active torsions:
REMARK  status: ('A' for Active; 'I' for Inactive)
REMARK    1  A    between atoms: C_24  and  C_37 
REMARK    2  A    between atoms: C_28  and  N_41 
REMARK    3  A    between atoms: C_30  and  C_35 
REMARK    4  A    between atoms: C_34  and  O_38 
ROOT
HETATM    1  C   UNK N   1      35.374  13.886  -0.434  0.00  0.00     0.201 A 
HETATM    2  O   UNK N   1      35.369  13.451   0.267  0.00  0.00    -0.394 OA
HETATM    3  C   UNK N   1      35.364  13.842   0.994  0.00  0.00     0.193 A 
HETATM    4  C   UNK N   1      35.359  13.408   1.695  0.00  0.00     0.193 A 
HETATM    5  O   UNK N   1      35.354  13.799   2.422  0.00  0.00    -0.387 OA
HETATM    6  C   UNK N   1      35.349  13.365   3.123  0.00  0.00     0.193 A 
HETATM    7  C   UNK N   1      35.344  13.756   3.850  0.00  0.00     0.193 A 
HETATM    8  O   UNK N   1      35.339  13.321   4.552  0.00  0.00    -0.387 OA
HETATM    9  C   UNK N   1      35.334  13.712   5.279  0.00  0.00     0.193 A 
HETATM   10  C   UNK N   1      35.329  13.278   5.980  0.00  0.00     0.193 A 
HETATM   11  O   UNK N   1      35.323  13.669   6.707  0.00  0.00    -0.387 OA
HETATM   12  C   UNK N   1      35.319  13.234   7.408  0.00  0.00     0.193 A 
HETATM   13  C   UNK N   1      35.313  13.625   8.135  0.00  0.00     0.193 A 
HETATM   14  O   UNK N   1      35.308  13.191   8.836  0.00  0.00    -0.387 OA
HETATM   15  C   UNK N   1      35.303  13.582   9.564  0.00  0.00     0.193 A 
HETATM   16  C   UNK N   1      35.298  13.147  10.265  0.00  0.00     0.193 A 
HETATM   17  O   UNK N   1      35.293  13.539  10.992  0.00  0.00    -0.387 OA
HETATM   18  C   UNK N   1      35.288  13.104  11.693  0.00  0.00     0.193 A 
HETATM   19  C   UNK N   1      35.283  13.495  12.420  0.00  0.00     0.193 A 
HETATM   20  O   UNK N   1      35.278  13.061  13.121  0.00  0.00    -0.387 OA
HETATM   21  C   UNK N   1      35.273  13.452  13.848  0.00  0.00     0.193 A 
HETATM   22  C   UNK N   1      35.268  13.017  14.550  0.00  0.00     0.194 A 
HETATM   23  O   UNK N   1      35.263  13.408  15.276  0.00  0.00    -0.381 OA
HETATM   24  C   UNK N   1      35.258  12.974  15.978  0.00  0.00     0.152 A 
HETATM   25  C   UNK N   1      35.253  13.374  16.693  0.00  0.00     0.037 A 
HETATM   26  C   UNK N   1      35.248  12.895  17.339  0.00  0.00     0.044 A 
HETATM   27  C   UNK N   1      35.249  11.914  17.251  0.00  0.00     0.093 A 
HETATM   28  C   UNK N   1      35.245  11.154  17.875  0.00  0.00     0.119 A 
HETATM   29  C   UNK N   1      35.246  10.362  17.670  0.00  0.00     0.067 A 
HETATM   30  C   UNK N   1      35.252  10.249  16.872  0.00  0.00    -0.046 A 
HETATM   31  C   UNK N   1      35.254   9.469  16.593  0.00  0.00     0.011 A 
HETATM   32  C   UNK N   1      35.260   9.347  15.776  0.00  0.00     0.040 A 
HETATM   33  C   UNK N   1      35.263  10.007  15.262  0.00  0.00     0.099 A 
HETATM   34  C   UNK N   1      35.261  10.810  15.554  0.00  0.00     0.110 A 
HETATM   35  C   UNK N   1      35.255  10.910  16.368  0.00  0.00    -0.001 A 
HETATM   36  C   UNK N   1      35.253  11.727  16.695  0.00  0.00     0.054 A 
HETATM   37  C   UNK N   1      35.258  12.134  15.937  0.00  0.00     0.174 A 
HETATM   38  O   UNK N   1      35.263  11.606  15.292  0.00  0.00    -0.339 OA
HETATM   39  C   UNK N   1      35.247  12.407  17.477  0.00  0.00     0.040 A 
HETATM   40  C   UNK N   1      35.241  12.335  18.373  0.00  0.00     0.119 A 
HETATM   41  N   UNK N   1      35.240  11.543  18.575  0.00  0.00    -0.402 N 
HETATM   42  C   UNK N   1      35.234  11.216  19.332  0.00  0.00     0.144 A 
HETATM   43  C   UNK N   1      35.230  11.709  19.994  0.00  0.00    -0.018 A 
HETATM   44  C   UNK N   1      35.230  12.529  19.898  0.00  0.00     0.008 A 
HETATM   45  O   UNK N   1      35.269   9.880  14.446  0.00  0.00    -0.358 OA
HETATM   46  O   UNK N   1      35.243  12.157  18.040  0.00  0.00    -0.386 OA
HETATM   47  H   UNK N   1      35.273  10.608  13.857  0.00  0.00     0.217 HD
HETATM   48  H   UNK N   1      35.238  11.497  18.750  0.00  0.00     0.210 HD
ENDROOT
TORSDOF 4
ENDMDL
MODEL 5
REMARK VINA RESULT:     -13.2     12.031     14.744
REMARK  4 active torsions:
REMARK  status: ('A' for Active; 'I' for Inactive)
REMARK    1  A    between atoms: C_24  and  C_37 
REMARK    2  A    between atoms: C_28  and  N_41 
REMARK    3  A    between atoms: C_30  and  C_35 
REMARK    4  A    between atoms: C_34  and  O_38 
ROOT
HETATM    1  C   UNK N   1      36.968  13.099  -2.279  0.00  0.00     0.201 A 
HETATM    2  O   UNK N   1      36.683  12.820  -1.557  0.00  0.00    -0.394 OA
HETATM    3  C   UNK N   1      36.915  13.184  -0.854  0.00  0.00     0.193 A 
HETATM    4  C   UNK N   1      36.630  12.905  -0.132  0.00  0.00     0.193 A 
HETATM    5  O   UNK N   1      36.862  13.269   0.572  0.00  0.00    -0.387 OA
HETATM    6  C   UNK N   1      36.577  12.990   1.294  0.00  0.00     0.193 A 
HETATM    7  C   UNK N   1      36.809  13.355   1.997  0.00  0.00     0.193 A 
HETATM    8  O   UNK N   1      36.524  13.075   2.719  0.00  0.00    -0.387 OA
HETATM    9  C   UNK N   1      36.756  13.440   3.423  0.00  0.00     0.193 A 
HETATM   10  C   UNK N   1      36.471  13.160   4.145  0.00  0.00     0.193 A 
HETATM   11  O   UNK N   1      36.703  13.525   4.848  0.00  0.00    -0.387 OA
HETATM   12  C   UNK N   1      36.418  13.245   5.570  0.00  0.00     0.193 A 
HETATM   13  C   UNK N   1      36.650  13.610   6.274  0.00  0.00     0.193 A 
HETATM   14  O   UNK N   1      36.365  13.330   6.996  0.00  0.00    -0.387 OA
HETATM   15  C   UNK N   1      36.597  13.695   7.699  0.00  0.00     0.193 A 
HETATM   16  C   UNK N   1      36.312  13.415   8.421  0.00  0.00     0.193 A 
HETATM   17  O   UNK N   1      36.544  13.780   9.125  0.00  0.00    -0.387 OA
HETATM   18  C   UNK N   1      36.259  13.500   9.847  0.00  0.00     0.193 A 
HETATM   19  C   UNK N   1      36.491  13.865  10.550  0.00  0.00     0.193 A 
HETATM   20  O   UNK N   1      36.206  13.585  11.272  0.00  0.00    -0.387 OA
HETATM   21  C   UNK N   1      36.438  13.950  11.975  0.00  0.00     0.193 A 
HETATM   22  C   UNK N   1      36.153  13.670  12.698  0.00  0.00     0.194 A 
HETATM   23  O   UNK N   1      36.385  14.035  13.400  0.00  0.00    -0.381 OA
HETATM   24  C   UNK N   1      36.100  13.755  14.123  0.00  0.00     0.152 A 
HETATM   25  C   UNK N   1      36.338  14.126  14.815  0.00  0.00     0.037 A 
HETATM   26  C   UNK N   1      36.026  13.807  15.484  0.00  0.00     0.044 A 
HETATM   27  C   UNK N   1      35.412  13.037  15.449  0.00  0.00     0.093 A 
HETATM   28  C   UNK N   1      34.925  12.499  16.110  0.00  0.00     0.119 A 
HETATM   29  C   UNK N   1      34.432  11.866  15.949  0.00  0.00     0.067 A 
HETATM   30  C   UNK N   1      34.376  11.712  15.159  0.00  0.00    -0.046 A 
HETATM   31  C   UNK N   1      33.892  11.082  14.923  0.00  0.00     0.011 A 
HETATM   32  C   UNK N   1      33.830  10.919  14.115  0.00  0.00     0.040 A 
HETATM   33  C   UNK N   1      34.253  11.390  13.568  0.00  0.00     0.099 A 
HETATM   34  C   UNK N   1      34.751  12.038  13.816  0.00  0.00     0.110 A 
HETATM   35  C   UNK N   1      34.799  12.183  14.623  0.00  0.00    -0.001 A 
HETATM   36  C   UNK N   1      35.306  12.846  14.905  0.00  0.00     0.054 A 
HETATM   37  C   UNK N   1      35.574  13.099  14.128  0.00  0.00     0.174 A 
HETATM   38  O   UNK N   1      35.255  12.635  13.513  0.00  0.00    -0.339 OA
HETATM   39  C   UNK N   1      35.718  13.439  15.647  0.00  0.00     0.040 A 
HETATM   40  C   UNK N   1      35.656  13.458  16.543  0.00  0.00     0.119 A 
HETATM   41  N   UNK N   1      35.156  12.859  16.787  0.00  0.00    -0.402 N 
HETATM   42  C   UNK N   1      34.938  12.668  17.559  0.00  0.00     0.144 A 
HETATM   43  C   UNK N   1      35.235  13.106  18.193  0.00  0.00    -0.018 A 
HETATM   44  C   UNK N   1      35.750  13.735  18.053  0.00  0.00     0.008 A 
HETATM   45  O   UNK N   1      34.188  11.223  12.762  0.00  0.00    -0.358 OA
HETATM   46  O   UNK N   1      35.551  13.292  16.221  0.00  0.00    -0.386 OA
HETATM   47  H   UNK N   1      34.655  11.740  12.136  0.00  0.00     0.217 HD
HETATM   48  H   UNK N   1      35.124  12.838  16.964  0.00  0.00     0.210 HD
ENDROOT
TORSDOF 4
ENDMDL
MODEL 6
REMARK VINA RESULT:     -12.6      7.099     10.280
REMARK  4 active torsions:
REMARK  status: ('A' for Active; 'I' for Inactive)
REMARK    1  A    between atoms: C_24  and  C_37 
REMARK    2  A    between atoms: C_28  and  N_41 
REMARK    3  A    between atoms: C_30  and  C_35 
REMARK    4  A    between atoms: C_34  and  O_38 
ROOT
HETATM    1  C   UNK N   1      40.610  10.759  -6.008  0.00  0.00     0.201 A 
HETATM    2  O   UNK N   1      40.508  11.184  -5.308  0.00  0.00    -0.394 OA
HETATM    3  C   UNK N   1      39.759  11.243  -4.967  0.00  0.00     0.193 A 
HETATM    4  C   UNK N   1      39.657  11.668  -4.267  0.00  0.00     0.193 A 
HETATM    5  O   UNK N   1      38.907  11.727  -3.926  0.00  0.00    -0.387 OA
HETATM    6  C   UNK N   1      38.806  12.151  -3.226  0.00  0.00     0.193 A 
HETATM    7  C   UNK N   1      38.056  12.210  -2.885  0.00  0.00     0.193 A 
HETATM    8  O   UNK N   1      37.954  12.635  -2.185  0.00  0.00    -0.387 OA
HETATM    9  C   UNK N   1      37.205  12.694  -1.844  0.00  0.00     0.193 A 
HETATM   10  C   UNK N   1      37.103  13.119  -1.144  0.00  0.00     0.193 A 
HETATM   11  O   UNK N   1      36.354  13.178  -0.803  0.00  0.00    -0.387 OA
HETATM   12  C   UNK N   1      36.252  13.602  -0.104  0.00  0.00     0.193 A 
HETATM   13  C   UNK N   1      35.502  13.661   0.238  0.00  0.00     0.193 A 
HETATM   14  O   UNK N   1      35.401  14.086   0.937  0.00  0.00    -0.387 OA
HETATM   15  C   UNK N   1      34.651  14.145   1.278  0.00  0.00     0.193 A 
HETATM   16  C   UNK N   1      34.549  14.570   1.978  0.00  0.00     0.193 A 
HETATM   17  O   UNK N   1      33.800  14.629   2.319  0.00  0.00    -0.387 OA
HETATM   18  C   UNK N   1      33.698  15.053   3.019  0.00  0.00     0.193 A 
HETATM   19  C   UNK N   1      32.949  15.112   3.360  0.00  0.00     0.193 A 
HETATM   20  O   UNK N   1      32.847  15.537   4.060  0.00  0.00    -0.387 OA
HETATM   21  C   UNK N   1      32.098  15.596   4.400  0.00  0.00     0.193 A 
HETATM   22  C   UNK N   1      31.996  16.021   5.101  0.00  0.00     0.194 A 
HETATM   23  O   UNK N   1      31.247  16.079   5.441  0.00  0.00    -0.381 OA
HETATM   24  C   UNK N   1      31.144  16.504   6.142  0.00  0.00     0.152 A 
HETATM   25  C   UNK N   1      30.395  16.555   6.470  0.00  0.00     0.037 A 
HETATM   26  C   UNK N   1      30.362  16.982   7.151  0.00  0.00     0.044 A 
HETATM   27  C   UNK N   1      31.167  17.399   7.537  0.00  0.00     0.093 A 
HETATM   28  C   UNK N   1      31.363  17.945   8.329  0.00  0.00     0.119 A 
HETATM   29  C   UNK N   1      32.095  18.238   8.545  0.00  0.00     0.067 A 
HETATM   30  C   UNK N   1      32.676  18.030   8.026  0.00  0.00    -0.046 A 
HETATM   31  C   UNK N   1      33.447  18.293   8.183  0.00  0.00     0.011 A 
HETATM   32  C   UNK N   1      34.045  18.082   7.655  0.00  0.00     0.040 A 
HETATM   33  C   UNK N   1      33.859  17.616   6.985  0.00  0.00     0.099 A 
HETATM   34  C   UNK N   1      33.063  17.348   6.828  0.00  0.00     0.110 A 
HETATM   35  C   UNK N   1      32.482  17.567   7.364  0.00  0.00    -0.001 A 
HETATM   36  C   UNK N   1      31.654  17.302   7.224  0.00  0.00     0.054 A 
HETATM   37  C   UNK N   1      31.813  16.872   6.497  0.00  0.00     0.174 A 
HETATM   38  O   UNK N   1      32.616  16.902   6.277  0.00  0.00    -0.339 OA
HETATM   39  C   UNK N   1      30.650  17.249   7.473  0.00  0.00     0.040 A 
HETATM   40  C   UNK N   1      30.151  17.572   8.146  0.00  0.00     0.119 A 
HETATM   41  N   UNK N   1      30.631  17.996   8.652  0.00  0.00    -0.402 N 
HETATM   42  C   UNK N   1      30.413  18.391   9.343  0.00  0.00     0.144 A 
HETATM   43  C   UNK N   1      29.625  18.382   9.591  0.00  0.00    -0.018 A 
HETATM   44  C   UNK N   1      29.058  17.980   9.148  0.00  0.00     0.008 A 
HETATM   45  O   UNK N   1      34.461  17.409   6.461  0.00  0.00    -0.358 OA
HETATM   46  O   UNK N   1      30.493  17.545   7.989  0.00  0.00    -0.386 OA
HETATM   47  H   UNK N   1      34.268  16.888   5.707  0.00  0.00     0.217 HD
HETATM   48  H   UNK N   1      30.558  18.075   8.799  0.00  0.00     0.210 HD
ENDROOT
TORSDOF 4
ENDMDL
MODEL 7
REMARK VINA RESULT:     -12.4      4.129      7.692
REMARK  4 active torsions:
REMARK  status: ('A' for Active; 'I' for Inactive)
REMARK    1  A    between atoms: C_24  and  C_37 
REMARK    2  A    between atoms: C_28  and  N_41 
REMARK    3  A    between atoms: C_30  and  C_35 
REMARK    4  A    between atoms: C_34  and  O_38 
ROOT
HETATM    1  C   UNK N   1      45.704  10.289   8.244  0.00  0.00     0.201 A 
HETATM    2  O   UNK N   1      44.982  10.603   8.490  0.00  0.00    -0.394 OA
HETATM    3  C   UNK N   1      44.438  10.875   7.931  0.00  0.00     0.193 A 
HETATM    4  C   UNK N   1      43.717  11.189   8.177  0.00  0.00     0.193 A 
HETATM    5  O   UNK N   1      43.173  11.460   7.618  0.00  0.00    -0.387 OA
HETATM    6  C   UNK N   1      42.451  11.774   7.865  0.00  0.00     0.193 A 
HETATM    7  C   UNK N   1      41.907  12.045   7.306  0.00  0.00     0.193 A 
HETATM    8  O   UNK N   1      41.186  12.360   7.552  0.00  0.00    -0.387 OA
HETATM    9  C   UNK N   1      40.642  12.631   6.993  0.00  0.00     0.193 A 
HETATM   10  C   UNK N   1      39.920  12.945   7.239  0.00  0.00     0.193 A 
HETATM   11  O   UNK N   1      39.376  13.216   6.680  0.00  0.00    -0.387 OA
HETATM   12  C   UNK N   1      38.655  13.531   6.926  0.00  0.00     0.193 A 
HETATM   13  C   UNK N   1      38.111  13.802   6.367  0.00  0.00     0.193 A 
HETATM   14  O   UNK N   1      37.389  14.116   6.614  0.00  0.00    -0.387 OA
HETATM   15  C   UNK N   1      36.845  14.387   6.055  0.00  0.00     0.193 A 
HETATM   16  C   UNK N   1      36.124  14.702   6.301  0.00  0.00     0.193 A 
HETATM   17  O   UNK N   1      35.580  14.973   5.742  0.00  0.00    -0.387 OA
HETATM   18  C   UNK N   1      34.858  15.287   5.988  0.00  0.00     0.193 A 
HETATM   19  C   UNK N   1      34.314  15.558   5.429  0.00  0.00     0.193 A 
HETATM   20  O   UNK N   1      33.593  15.873   5.675  0.00  0.00    -0.387 OA
HETATM   21  C   UNK N   1      33.050  16.144   5.117  0.00  0.00     0.193 A 
HETATM   22  C   UNK N   1      32.327  16.458   5.363  0.00  0.00     0.194 A 
HETATM   23  O   UNK N   1      31.784  16.729   4.804  0.00  0.00    -0.381 OA
HETATM   24  C   UNK N   1      31.062  17.044   5.050  0.00  0.00     0.152 A 
HETATM   25  C   UNK N   1      30.531  17.310   4.485  0.00  0.00     0.037 A 
HETATM   26  C   UNK N   1      29.847  17.604   4.788  0.00  0.00     0.044 A 
HETATM   27  C   UNK N   1      29.685  17.632   5.760  0.00  0.00     0.093 A 
HETATM   28  C   UNK N   1      28.953  17.936   6.340  0.00  0.00     0.119 A 
HETATM   29  C   UNK N   1      28.940  17.905   7.157  0.00  0.00     0.067 A 
HETATM   30  C   UNK N   1      29.614  17.586   7.465  0.00  0.00    -0.046 A 
HETATM   31  C   UNK N   1      29.669  17.524   8.289  0.00  0.00     0.011 A 
HETATM   32  C   UNK N   1      30.357  17.198   8.610  0.00  0.00     0.040 A 
HETATM   33  C   UNK N   1      30.970  16.945   8.099  0.00  0.00     0.099 A 
HETATM   34  C   UNK N   1      30.908  17.012   7.250  0.00  0.00     0.110 A 
HETATM   35  C   UNK N   1      30.217  17.338   6.950  0.00  0.00    -0.001 A 
HETATM   36  C   UNK N   1      30.128  17.418   6.078  0.00  0.00     0.054 A 
HETATM   37  C   UNK N   1      30.893  17.082   5.873  0.00  0.00     0.174 A 
HETATM   38  O   UNK N   1      31.332  16.853   6.544  0.00  0.00    -0.339 OA
HETATM   39  C   UNK N   1      29.606  17.692   5.226  0.00  0.00     0.040 A 
HETATM   40  C   UNK N   1      28.802  18.062   5.074  0.00  0.00     0.119 A 
HETATM   41  N   UNK N   1      28.432  18.197   5.789  0.00  0.00    -0.402 N 
HETATM   42  C   UNK N   1      27.687  18.527   5.918  0.00  0.00     0.144 A 
HETATM   43  C   UNK N   1      27.225  18.765   5.276  0.00  0.00    -0.018 A 
HETATM   44  C   UNK N   1      27.509  18.672   4.507  0.00  0.00     0.008 A 
HETATM   45  O   UNK N   1      31.655  16.621   8.424  0.00  0.00    -0.358 OA
HETATM   46  O   UNK N   1      29.051  17.938   5.328  0.00  0.00    -0.386 OA
HETATM   47  H   UNK N   1      32.350  16.333   7.866  0.00  0.00     0.217 HD
HETATM   48  H   UNK N   1      28.267  18.271   5.791  0.00  0.00     0.210 HD
ENDROOT
TORSDOF 4
ENDMDL
MODEL 8
REMARK VINA RESULT:     -12.4      3.712      6.292
REMARK  4 active torsions:
REMARK  status: ('A' for Active; 'I' for Inactive)
REMARK    1  A    between atoms: C_24  and  C_37 
REMARK    2  A    between atoms: C_28  and  N_41 
REMARK    3  A    between atoms: C_30  and  C_35 
REMARK    4  A    between atoms: C_34  and  O_38 
ROOT
HETATM    1  C   UNK N   1      40.210   7.403  12.453  0.00  0.00     0.201 A 
HETATM    2  O   UNK N   1      39.731   7.745  11.876  0.00  0.00    -0.394 OA
HETATM    3  C   UNK N   1      39.235   8.376  12.072  0.00  0.00     0.193 A 
HETATM    4  C   UNK N   1      38.756   8.718  11.495  0.00  0.00     0.193 A 
HETATM    5  O   UNK N   1      38.260   9.349  11.692  0.00  0.00    -0.387 OA
HETATM    6  C   UNK N   1      37.781   9.691  11.114  0.00  0.00     0.193 A 
HETATM    7  C   UNK N   1      37.285  10.321  11.311  0.00  0.00     0.193 A 
HETATM    8  O   UNK N   1      36.806  10.664  10.733  0.00  0.00    -0.387 OA
HETATM    9  C   UNK N   1      36.310  11.294  10.930  0.00  0.00     0.193 A 
HETATM   10  C   UNK N   1      35.831  11.637  10.353  0.00  0.00     0.193 A 
HETATM   11  O   UNK N   1      35.335  12.267  10.549  0.00  0.00    -0.387 OA
HETATM   12  C   UNK N   1      34.856  12.610   9.972  0.00  0.00     0.193 A 
HETATM   13  C   UNK N   1      34.360  13.240  10.168  0.00  0.00     0.193 A 
HETATM   14  O   UNK N   1      33.881  13.583   9.591  0.00  0.00    -0.387 OA
HETATM   15  C   UNK N   1      33.385  14.213   9.788  0.00  0.00     0.193 A 
HETATM   16  C   UNK N   1      32.906  14.556   9.210  0.00  0.00     0.193 A 
HETATM   17  O   UNK N   1      32.410  15.186   9.407  0.00  0.00    -0.387 OA
HETATM   18  C   UNK N   1      31.931  15.528   8.829  0.00  0.00     0.193 A 
HETATM   19  C   UNK N   1      31.435  16.159   9.026  0.00  0.00     0.193 A 
HETATM   20  O   UNK N   1      30.956  16.501   8.449  0.00  0.00    -0.387 OA
HETATM   21  C   UNK N   1      30.461  17.131   8.645  0.00  0.00     0.193 A 
HETATM   22  C   UNK N   1      29.981  17.474   8.068  0.00  0.00     0.194 A 
HETATM   23  O   UNK N   1      29.486  18.104   8.265  0.00  0.00    -0.381 OA
HETATM   24  C   UNK N   1      29.006  18.447   7.687  0.00  0.00     0.152 A 
HETATM   25  C   UNK N   1      28.518  19.072   7.895  0.00  0.00     0.037 A 
HETATM   26  C   UNK N   1      28.077  19.362   7.289  0.00  0.00     0.044 A 
HETATM   27  C   UNK N   1      28.136  18.981   6.382  0.00  0.00     0.093 A 
HETATM   28  C   UNK N   1      27.709  19.164   5.516  0.00  0.00     0.119 A 
HETATM   29  C   UNK N   1      27.848  18.764   4.816  0.00  0.00     0.067 A 
HETATM   30  C   UNK N   1      28.393  18.175   4.899  0.00  0.00    -0.046 A 
HETATM   31  C   UNK N   1      28.582  17.727   4.228  0.00  0.00     0.011 A 
HETATM   32  C   UNK N   1      29.140  17.123   4.307  0.00  0.00     0.040 A 
HETATM   33  C   UNK N   1      29.492  16.983   5.053  0.00  0.00     0.099 A 
HETATM   34  C   UNK N   1      29.293  17.447   5.742  0.00  0.00     0.110 A 
HETATM   35  C   UNK N   1      28.737  18.043   5.643  0.00  0.00    -0.001 A 
HETATM   36  C   UNK N   1      28.515  18.536   6.338  0.00  0.00     0.054 A 
HETATM   37  C   UNK N   1      29.033  18.145   6.902  0.00  0.00     0.174 A 
HETATM   38  O   UNK N   1      29.473  17.526   6.557  0.00  0.00    -0.339 OA
HETATM   39  C   UNK N   1      27.982  19.298   6.794  0.00  0.00     0.040 A 
HETATM   40  C   UNK N   1      27.371  19.893   6.513  0.00  0.00     0.119 A 
HETATM   41  N   UNK N   1      27.232  19.774   5.717  0.00  0.00    -0.402 N 
HETATM   42  C   UNK N   1      26.715  20.191   5.228  0.00  0.00     0.144 A 
HETATM   43  C   UNK N   1      26.263  20.810   5.536  0.00  0.00    -0.018 A 
HETATM   44  C   UNK N   1      26.330  21.011   6.333  0.00  0.00     0.008 A 
HETATM   45  O   UNK N   1      30.048  16.378   5.127  0.00  0.00    -0.358 OA
HETATM   46  O   UNK N   1      27.598  19.605   6.424  0.00  0.00    -0.386 OA
HETATM   47  H   UNK N   1      30.451  16.209   5.955  0.00  0.00     0.217 HD
HETATM   48  H   UNK N   1      27.112  19.881   5.631  0.00  0.00     0.210 HD
ENDROOT
TORSDOF 4
ENDMDL
MODEL 9
REMARK VINA RESULT:     -12.4      2.099      3.103
REMARK  4 active torsions:
REMARK  status: ('A' for Active; 'I' for Inactive)
REMARK    1  A    between atoms: C_24  and  C_37 
REMARK    2  A    between atoms: C_28  and  N_41 
REMARK    3  A    between atoms: C_30  and  C_35 
REMARK    4  A    between atoms: C_34  and  O_38 
ROOT
HETATM    1  C   UNK N   1      41.083  13.337   6.290  0.00  0.00     0.201 A 
HETATM    2  O   UNK N   1      40.497  13.879   6.079  0.00  0.00    -0.394 OA
HETATM    3  C   UNK N   1      39.701  13.665   6.130  0.00  0.00     0.193 A 
HETATM    4  C   UNK N   1      39.116  14.207   5.919  0.00  0.00     0.193 A 
HETATM    5  O   UNK N   1      38.320  13.994   5.970  0.00  0.00    -0.387 OA
HETATM    6  C   UNK N   1      37.734  14.535   5.759  0.00  0.00     0.193 A 
HETATM    7  C   UNK N   1      36.938  14.322   5.810  0.00  0.00     0.193 A 
HETATM    8  O   UNK N   1      36.353  14.863   5.599  0.00  0.00    -0.387 OA
HETATM    9  C   UNK N   1      35.556  14.650   5.650  0.00  0.00     0.193 A 
HETATM   10  C   UNK N   1      34.971  15.191   5.439  0.00  0.00     0.193 A 
HETATM   11  O   UNK N   1      34.175  14.978   5.490  0.00  0.00    -0.387 OA
HETATM   12  C   UNK N   1      33.589  15.519   5.279  0.00  0.00     0.193 A 
HETATM   13  C   UNK N   1      32.793  15.306   5.330  0.00  0.00     0.193 A 
HETATM   14  O   UNK N   1      32.208  15.848   5.119  0.00  0.00    -0.387 OA
HETATM   15  C   UNK N   1      31.412  15.634   5.170  0.00  0.00     0.193 A 
HETATM   16  C   UNK N   1      30.826  16.176   4.959  0.00  0.00     0.193 A 
HETATM   17  O   UNK N   1      30.030  15.963   5.011  0.00  0.00    -0.387 OA
HETATM   18  C   UNK N   1      29.445  16.504   4.799  0.00  0.00     0.193 A 
HETATM   19  C   UNK N   1      28.649  16.291   4.851  0.00  0.00     0.193 A 
HETATM   20  O   UNK N   1      28.063  16.832   4.639  0.00  0.00    -0.387 OA
HETATM   21  C   UNK N   1      27.268  16.619   4.691  0.00  0.00     0.193 A 
HETATM   22  C   UNK N   1      26.681  17.160   4.479  0.00  0.00     0.194 A 
HETATM   23  O   UNK N   1      25.886  16.947   4.531  0.00  0.00    -0.381 OA
HETATM   24  C   UNK N   1      25.300  17.488   4.320  0.00  0.00     0.152 A 
HETATM   25  C   UNK N   1      24.513  17.264   4.375  0.00  0.00     0.037 A 
HETATM   26  C   UNK N   1      23.992  17.835   4.155  0.00  0.00     0.044 A 
HETATM   27  C   UNK N   1      24.297  18.721   3.849  0.00  0.00     0.093 A 
HETATM   28  C   UNK N   1      23.861  19.545   3.542  0.00  0.00     0.119 A 
HETATM   29  C   UNK N   1      24.237  20.233   3.308  0.00  0.00     0.067 A 
HETATM   30  C   UNK N   1      25.041  20.175   3.354  0.00  0.00    -0.046 A 
HETATM   31  C   UNK N   1      25.487  20.838   3.131  0.00  0.00     0.011 A 
HETATM   32  C   UNK N   1      26.310  20.784   3.176  0.00  0.00     0.040 A 
HETATM   33  C   UNK N   1      26.663  20.073   3.440  0.00  0.00     0.099 A 
HETATM   34  C   UNK N   1      26.198  19.394   3.668  0.00  0.00     0.110 A 
HETATM   35  C   UNK N   1      25.382  19.466   3.617  0.00  0.00    -0.001 A 
HETATM   36  C   UNK N   1      24.881  18.780   3.846  0.00  0.00     0.054 A 
HETATM   37  C   UNK N   1      25.528  18.253   4.054  0.00  0.00     0.174 A 
HETATM   38  O   UNK N   1      26.275  18.609   3.951  0.00  0.00    -0.339 OA
HETATM   39  C   UNK N   1      23.966  18.313   3.984  0.00  0.00     0.040 A 
HETATM   40  C   UNK N   1      23.111  18.560   3.870  0.00  0.00     0.119 A 
HETATM   41  N   UNK N   1      23.091  19.329   3.595  0.00  0.00    -0.402 N 
HETATM   42  C   UNK N   1      22.427  19.783   3.412  0.00  0.00     0.144 A 
HETATM   43  C   UNK N   1      21.671  19.462   3.503  0.00  0.00    -0.018 A 
HETATM   44  C   UNK N   1      21.581  18.689   3.776  0.00  0.00     0.008 A 
HETATM   45  O   UNK N   1      27.486  20.026   3.483  0.00  0.00    -0.358 OA
HETATM   46  O   UNK N   1      23.474  18.656   3.846  0.00  0.00    -0.386 OA
HETATM   47  H   UNK N   1      27.896  19.237   3.777  0.00  0.00     0.217 HD
HETATM   48  H   UNK N   1      22.931  19.407   3.562  0.00  0.00     0.210 HD
ENDROOT
TORSDOF 4
ENDMDL
