MODEL 1
REMARK VINA RESULT:      -7.5      0.000      0.000
REMARK  1 active torsions:
REMARK  status: ('A' for Active; 'I' for Inactive)
REMARK    1  A    between atoms: C_14  and  C_9 
ROOT
HETATM    1  C   UNK N   1      27.835  19.345   4.886  0.00  0.00     0.091 C 
HETATM    2  C   UNK N   1      31.433  15.738   6.068  0.00  0.00     0.043 A 
HETATM    3  C   UNK N   1      28.902  17.368   9.296  0.00  0.00     0.198 C 
HETATM    4  C   UNK N   1      27.938  19.091   6.352  0.00  0.00     0.100 A 
HETATM    5  C   UNK N   1      30.689  16.529   7.004  0.00  0.00     0.027 A 
HETATM    6  C   UNK N   1      30.961  15.806   4.759  0.00  0.00     0.054 A 
HETATM    7  C   UNK N   1      28.453  18.306   8.246  0.00  0.00     0.122 A 
HETATM    8  C   UNK N   1      31.119  16.669   8.463  0.00  0.00     0.053 C 
HETATM    9  C   UNK N   1      29.624  17.216   6.363  0.00  0.00     0.097 A 
HETATM   10 Br   UNK N   1      31.703  14.929   3.240  0.00  0.00    -0.043 Br
HETATM   11  N   UNK N   1      30.320  17.119   9.378  0.00  0.00    -0.381 N 
ATOM     12  HN  UNK N   1      30.753  17.326  10.278  1.00  0.00     0.160 HD
HETATM   13  N   UNK N   1      27.233  19.780   7.268  0.00  0.00    -0.287 N 
ATOM     14  HN  UNK N   1      26.580  20.542   7.084  1.00  0.00     0.188 HD
HETATM   15  N   UNK N   1      27.548  19.282   8.454  0.00  0.00    -0.286 N 
ATOM     16  HN  UNK N   1      27.176  19.580   9.356  1.00  0.00     0.188 HD
HETATM   17  N   UNK N   1      28.723  18.164   6.947  0.00  0.00    -0.280 N 
HETATM   18  S   UNK N   1      29.675  16.830   4.750  0.00  0.00    -0.063 SA
ENDROOT
BRANCH   8  19
HETATM   19  C   UNK N   1      32.505  16.221   8.921  0.00  0.00     0.013 A 
HETATM   20  C   UNK N   1      32.661  14.972   9.549  0.00  0.00     0.015 A 
HETATM   21  C   UNK N   1      33.893  14.530  10.028  0.00  0.00     0.001 A 
HETATM   22  C   UNK N   1      35.018  15.332   9.887  0.00  0.00     0.002 A 
HETATM   23  C   UNK N   1      34.911  16.569   9.261  0.00  0.00     0.025 A 
HETATM   24  C   UNK N   1      33.680  17.029   8.775  0.00  0.00     0.046 A 
HETATM   25 Cl   UNK N   1      33.710  18.617   8.013  0.00  0.00    -0.083 Cl
ENDBRANCH   8  19
TORSDOF 1
ENDMDL
MODEL 2
REMARK VINA RESULT:      -7.2      4.105      7.380
REMARK  1 active torsions:
REMARK  status: ('A' for Active; 'I' for Inactive)
REMARK    1  A    between atoms: C_14  and  C_9 
ROOT
HETATM    1  C   UNK N   1      33.875  16.933   5.874  0.00  0.00     0.091 C 
HETATM    2  C   UNK N   1      28.792  17.827   6.719  0.00  0.00     0.043 A 
HETATM    3  C   UNK N   1      30.022  15.893   2.947  0.00  0.00     0.198 C 
HETATM    4  C   UNK N   1      33.025  16.586   4.699  0.00  0.00     0.100 A 
HETATM    5  C   UNK N   1      29.386  17.421   5.479  0.00  0.00     0.027 A 
HETATM    6  C   UNK N   1      29.646  17.738   7.817  0.00  0.00     0.054 A 
HETATM    7  C   UNK N   1      31.385  16.220   3.415  0.00  0.00     0.122 A 
HETATM    8  C   UNK N   1      28.642  17.550   4.150  0.00  0.00     0.053 C 
HETATM    9  C   UNK N   1      30.735  17.020   5.661  0.00  0.00     0.097 A 
HETATM   10 Br   UNK N   1      29.235  18.217   9.614  0.00  0.00    -0.043 Br
HETATM   11  N   UNK N   1      29.028  16.929   3.081  0.00  0.00    -0.381 N 
ATOM     12  HN  UNK N   1      28.564  17.210   2.217  1.00  0.00     0.160 HD
HETATM   13  N   UNK N   1      33.531  16.165   3.525  0.00  0.00    -0.287 N 
ATOM     14  HN  UNK N   1      34.518  16.051   3.295  1.00  0.00     0.188 HD
HETATM   15  N   UNK N   1      32.503  15.926   2.724  0.00  0.00    -0.286 N 
ATOM     16  HN  UNK N   1      32.549  15.584   1.764  1.00  0.00     0.188 HD
HETATM   17  N   UNK N   1      31.675  16.639   4.649  0.00  0.00    -0.280 N 
HETATM   18  S   UNK N   1      31.099  17.197   7.270  0.00  0.00    -0.063 SA
ENDROOT
BRANCH   8  19
HETATM   19  C   UNK N   1      27.365  18.379   4.040  0.00  0.00     0.013 A 
HETATM   20  C   UNK N   1      27.451  19.775   3.885  0.00  0.00     0.015 A 
HETATM   21  C   UNK N   1      26.319  20.586   3.824  0.00  0.00     0.001 A 
HETATM   22  C   UNK N   1      25.054  20.019   3.913  0.00  0.00     0.002 A 
HETATM   23  C   UNK N   1      24.924  18.641   4.054  0.00  0.00     0.025 A 
HETATM   24  C   UNK N   1      26.050  17.811   4.119  0.00  0.00     0.046 A 
HETATM   25 Cl   UNK N   1      25.717  16.091   4.304  0.00  0.00    -0.083 Cl
ENDBRANCH   8  19
TORSDOF 1
ENDMDL
MODEL 3
REMARK VINA RESULT:      -6.9      6.932      9.142
REMARK  1 active torsions:
REMARK  status: ('A' for Active; 'I' for Inactive)
REMARK    1  A    between atoms: C_14  and  C_9 
ROOT
HETATM    1  C   UNK N   1      19.757  15.309   2.512  0.00  0.00     0.091 C 
HETATM    2  C   UNK N   1      23.765  16.738   5.552  0.00  0.00     0.043 A 
HETATM    3  C   UNK N   1      21.683  19.820   3.174  0.00  0.00     0.198 C 
HETATM    4  C   UNK N   1      20.119  16.747   2.352  0.00  0.00     0.100 A 
HETATM    5  C   UNK N   1      23.127  17.549   4.557  0.00  0.00     0.027 A 
HETATM    6  C   UNK N   1      23.079  15.565   5.859  0.00  0.00     0.054 A 
HETATM    7  C   UNK N   1      20.998  18.658   2.573  0.00  0.00     0.122 A 
HETATM    8  C   UNK N   1      23.779  18.818   4.011  0.00  0.00     0.053 C 
HETATM    9  C   UNK N   1      21.921  16.951   4.103  0.00  0.00     0.097 A 
HETATM   10 Br   UNK N   1      23.626  14.225   7.097  0.00  0.00    -0.043 Br
HETATM   11  N   UNK N   1      23.110  19.709   3.350  0.00  0.00    -0.381 N 
ATOM     12  HN  UNK N   1      23.668  20.430   2.892  1.00  0.00     0.160 HD
HETATM   13  N   UNK N   1      19.524  17.559   1.458  0.00  0.00    -0.287 N 
ATOM     14  HN  UNK N   1      18.793  17.300   0.796  1.00  0.00     0.188 HD
HETATM   15  N   UNK N   1      20.067  18.759   1.604  0.00  0.00    -0.286 N 
ATOM     16  HN  UNK N   1      19.827  19.601   1.081  1.00  0.00     0.188 HD
HETATM   17  N   UNK N   1      21.059  17.415   3.057  0.00  0.00    -0.280 N 
HETATM   18  S   UNK N   1      21.735  15.516   4.914  0.00  0.00    -0.063 SA
ENDROOT
BRANCH   8  19
HETATM   19  C   UNK N   1      25.252  19.122   4.275  0.00  0.00     0.013 A 
HETATM   20  C   UNK N   1      25.605  20.265   5.017  0.00  0.00     0.015 A 
HETATM   21  C   UNK N   1      26.933  20.616   5.252  0.00  0.00     0.001 A 
HETATM   22  C   UNK N   1      27.958  19.825   4.750  0.00  0.00     0.002 A 
HETATM   23  C   UNK N   1      27.653  18.679   4.023  0.00  0.00     0.025 A 
HETATM   24  C   UNK N   1      26.324  18.312   3.776  0.00  0.00     0.046 A 
HETATM   25 Cl   UNK N   1      26.106  16.838   2.836  0.00  0.00    -0.083 Cl
ENDBRANCH   8  19
TORSDOF 1
ENDMDL
MODEL 4
REMARK VINA RESULT:      -6.8      3.041      6.158
REMARK  1 active torsions:
REMARK  status: ('A' for Active; 'I' for Inactive)
REMARK    1  A    between atoms: C_14  and  C_9 
ROOT
HETATM    1  C   UNK N   1      35.345  13.681  10.563  0.00  0.00     0.091 C 
HETATM    2  C   UNK N   1      32.418  14.408   6.291  0.00  0.00     0.043 A 
HETATM    3  C   UNK N   1      34.091  17.931   8.358  0.00  0.00     0.198 C 
HETATM    4  C   UNK N   1      35.091  15.122  10.276  0.00  0.00     0.100 A 
HETATM    5  C   UNK N   1      32.849  15.425   7.205  0.00  0.00     0.027 A 
HETATM    6  C   UNK N   1      33.046  13.177   6.468  0.00  0.00     0.054 A 
HETATM    7  C   UNK N   1      34.484  16.939   9.381  0.00  0.00     0.122 A 
HETATM    8  C   UNK N   1      32.200  16.808   7.237  0.00  0.00     0.053 C 
HETATM    9  C   UNK N   1      33.833  14.928   8.099  0.00  0.00     0.097 A 
HETATM   10 Br   UNK N   1      32.716  11.584   5.478  0.00  0.00    -0.043 Br
HETATM   11  N   UNK N   1      32.755  17.818   7.828  0.00  0.00    -0.381 N 
ATOM     12  HN  UNK N   1      32.168  18.645   7.932  1.00  0.00     0.160 HD
HETATM   13  N   UNK N   1      35.507  16.116  11.083  0.00  0.00    -0.287 N 
ATOM     14  HN  UNK N   1      36.013  16.013  11.962  1.00  0.00     0.188 HD
HETATM   15  N   UNK N   1      35.136  17.255  10.516  0.00  0.00    -0.286 N 
ATOM     16  HN  UNK N   1      35.310  18.195  10.873  1.00  0.00     0.188 HD
HETATM   17  N   UNK N   1      34.434  15.617   9.203  0.00  0.00    -0.280 N 
HETATM   18  S   UNK N   1      34.087  13.331   7.731  0.00  0.00    -0.063 SA
ENDROOT
BRANCH   8  19
HETATM   19  C   UNK N   1      30.882  17.075   6.513  0.00  0.00     0.013 A 
HETATM   20  C   UNK N   1      29.666  16.936   7.207  0.00  0.00     0.015 A 
HETATM   21  C   UNK N   1      28.432  17.124   6.586  0.00  0.00     0.001 A 
HETATM   22  C   UNK N   1      28.377  17.464   5.241  0.00  0.00     0.002 A 
HETATM   23  C   UNK N   1      29.556  17.624   4.521  0.00  0.00     0.025 A 
HETATM   24  C   UNK N   1      30.805  17.438   5.128  0.00  0.00     0.046 A 
HETATM   25 Cl   UNK N   1      32.202  17.673   4.080  0.00  0.00    -0.083 Cl
ENDBRANCH   8  19
TORSDOF 1
ENDMDL
MODEL 5
REMARK VINA RESULT:      -6.7     12.874     14.875
REMARK  1 active torsions:
REMARK  status: ('A' for Active; 'I' for Inactive)
REMARK    1  A    between atoms: C_14  and  C_9 
ROOT
HETATM    1  C   UNK N   1      25.556  27.987  -4.046  0.00  0.00     0.091 C 
HETATM    2  C   UNK N   1      30.508  26.326  -3.780  0.00  0.00     0.043 A 
HETATM    3  C   UNK N   1      27.739  24.349  -6.594  0.00  0.00     0.198 C 
HETATM    4  C   UNK N   1      25.806  26.783  -4.888  0.00  0.00     0.100 A 
HETATM    5  C   UNK N   1      29.429  25.669  -4.460  0.00  0.00     0.027 A 
HETATM    6  C   UNK N   1      30.216  27.625  -3.369  0.00  0.00     0.054 A 
HETATM    7  C   UNK N   1      26.720  25.175  -5.913  0.00  0.00     0.122 A 
HETATM    8  C   UNK N   1      29.521  24.206  -4.890  0.00  0.00     0.053 C 
HETATM    9  C   UNK N   1      28.291  26.511  -4.551  0.00  0.00     0.097 A 
HETATM   10 Br   UNK N   1      31.374  28.797  -2.412  0.00  0.00    -0.043 Br
HETATM   11  N   UNK N   1      28.703  23.687  -5.749  0.00  0.00    -0.381 N 
ATOM     12  HN  UNK N   1      28.746  22.672  -5.842  1.00  0.00     0.160 HD
HETATM   13  N   UNK N   1      24.835  26.152  -5.574  0.00  0.00    -0.287 N 
ATOM     14  HN  UNK N   1      23.846  26.398  -5.591  1.00  0.00     0.188 HD
HETATM   15  N   UNK N   1      25.410  25.150  -6.225  0.00  0.00    -0.286 N 
ATOM     16  HN  UNK N   1      24.947  24.486  -6.845  1.00  0.00     0.188 HD
HETATM   17  N   UNK N   1      27.000  26.177  -5.077  0.00  0.00    -0.280 N 
HETATM   18  S   UNK N   1      28.665  27.947  -3.809  0.00  0.00    -0.063 SA
ENDROOT
BRANCH   8  19
HETATM   19  C   UNK N   1      30.631  23.299  -4.364  0.00  0.00     0.013 A 
HETATM   20  C   UNK N   1      31.731  22.995  -5.187  0.00  0.00     0.015 A 
HETATM   21  C   UNK N   1      32.751  22.138  -4.777  0.00  0.00     0.001 A 
HETATM   22  C   UNK N   1      32.702  21.557  -3.517  0.00  0.00     0.002 A 
HETATM   23  C   UNK N   1      31.639  21.840  -2.666  0.00  0.00     0.025 A 
HETATM   24  C   UNK N   1      30.605  22.698  -3.062  0.00  0.00     0.046 A 
HETATM   25 Cl   UNK N   1      29.330  22.950  -1.873  0.00  0.00    -0.083 Cl
ENDBRANCH   8  19
TORSDOF 1
ENDMDL
MODEL 6
REMARK VINA RESULT:      -6.6     13.134     15.270
REMARK  1 active torsions:
REMARK  status: ('A' for Active; 'I' for Inactive)
REMARK    1  A    between atoms: C_14  and  C_9 
ROOT
HETATM    1  C   UNK N   1      27.702  30.110  -4.752  0.00  0.00     0.091 C 
HETATM    2  C   UNK N   1      30.072  25.665  -6.161  0.00  0.00     0.043 A 
HETATM    3  C   UNK N   1      26.284  25.444  -3.905  0.00  0.00     0.198 C 
HETATM    4  C   UNK N   1      27.026  28.898  -4.206  0.00  0.00     0.100 A 
HETATM    5  C   UNK N   1      28.973  25.786  -5.247  0.00  0.00     0.027 A 
HETATM    6  C   UNK N   1      30.344  26.825  -6.883  0.00  0.00     0.054 A 
HETATM    7  C   UNK N   1      26.468  26.904  -3.774  0.00  0.00     0.122 A 
HETATM    8  C   UNK N   1      28.592  24.657  -4.291  0.00  0.00     0.053 C 
HETATM    9  C   UNK N   1      28.411  27.089  -5.289  0.00  0.00     0.097 A 
HETATM   10 Br   UNK N   1      31.739  27.064  -8.157  0.00  0.00    -0.043 Br
HETATM   11  N   UNK N   1      27.449  24.624  -3.683  0.00  0.00    -0.381 N 
ATOM     12  HN  UNK N   1      27.360  23.921  -2.949  1.00  0.00     0.160 HD
HETATM   13  N   UNK N   1      25.969  28.957  -3.375  0.00  0.00    -0.287 N 
ATOM     14  HN  UNK N   1      25.526  29.803  -3.017  1.00  0.00     0.188 HD
HETATM   15  N   UNK N   1      25.613  27.708  -3.113  0.00  0.00    -0.286 N 
ATOM     16  HN  UNK N   1      24.837  27.411  -2.521  1.00  0.00     0.188 HD
HETATM   17  N   UNK N   1      27.365  27.614  -4.462  0.00  0.00    -0.280 N 
HETATM   18  S   UNK N   1      29.277  27.976  -6.392  0.00  0.00    -0.063 SA
ENDROOT
BRANCH   8  19
HETATM   19  C   UNK N   1      29.529  23.475  -4.056  0.00  0.00     0.013 A 
HETATM   20  C   UNK N   1      30.365  23.463  -2.924  0.00  0.00     0.015 A 
HETATM   21  C   UNK N   1      31.272  22.433  -2.681  0.00  0.00     0.001 A 
HETATM   22  C   UNK N   1      31.368  21.371  -3.571  0.00  0.00     0.002 A 
HETATM   23  C   UNK N   1      30.551  21.337  -4.696  0.00  0.00     0.025 A 
HETATM   24  C   UNK N   1      29.635  22.364  -4.956  0.00  0.00     0.046 A 
HETATM   25 Cl   UNK N   1      28.679  22.176  -6.424  0.00  0.00    -0.083 Cl
ENDBRANCH   8  19
TORSDOF 1
ENDMDL
MODEL 7
REMARK VINA RESULT:      -6.6      4.437      7.583
REMARK  1 active torsions:
REMARK  status: ('A' for Active; 'I' for Inactive)
REMARK    1  A    between atoms: C_14  and  C_9 
ROOT
HETATM    1  C   UNK N   1      37.717  11.870  11.760  0.00  0.00     0.091 C 
HETATM    2  C   UNK N   1      35.770  14.138   7.469  0.00  0.00     0.043 A 
HETATM    3  C   UNK N   1      35.567  16.305  11.310  0.00  0.00     0.198 C 
HETATM    4  C   UNK N   1      37.039  13.166  12.050  0.00  0.00     0.100 A 
HETATM    5  C   UNK N   1      35.592  14.588   8.819  0.00  0.00     0.027 A 
HETATM    6  C   UNK N   1      36.737  13.147   7.320  0.00  0.00     0.054 A 
HETATM    7  C   UNK N   1      36.045  15.023  11.869  0.00  0.00     0.122 A 
HETATM    8  C   UNK N   1      34.504  15.591   9.198  0.00  0.00     0.053 C 
HETATM    9  C   UNK N   1      36.459  13.900   9.708  0.00  0.00     0.097 A 
HETATM   10 Br   UNK N   1      37.229  12.280   5.697  0.00  0.00    -0.043 Br
HETATM   11  N   UNK N   1      34.515  16.228  10.326  0.00  0.00    -0.381 N 
ATOM     12  HN  UNK N   1      33.664  16.745  10.548  1.00  0.00     0.160 HD
HETATM   13  N   UNK N   1      36.880  13.650  13.296  0.00  0.00    -0.287 N 
ATOM     14  HN  UNK N   1      37.177  13.202  14.163  1.00  0.00     0.188 HD
HETATM   15  N   UNK N   1      36.266  14.818  13.182  0.00  0.00    -0.286 N 
ATOM     16  HN  UNK N   1      36.010  15.445  13.945  1.00  0.00     0.188 HD
HETATM   17  N   UNK N   1      36.509  14.010  11.136  0.00  0.00    -0.280 N 
HETATM   18  S   UNK N   1      37.341  12.817   8.813  0.00  0.00    -0.063 SA
ENDROOT
BRANCH   8  19
HETATM   19  C   UNK N   1      33.378  15.935   8.226  0.00  0.00     0.013 A 
HETATM   20  C   UNK N   1      32.425  14.956   7.890  0.00  0.00     0.015 A 
HETATM   21  C   UNK N   1      31.401  15.199   6.976  0.00  0.00     0.001 A 
HETATM   22  C   UNK N   1      31.298  16.443   6.367  0.00  0.00     0.002 A 
HETATM   23  C   UNK N   1      32.212  17.443   6.680  0.00  0.00     0.025 A 
HETATM   24  C   UNK N   1      33.247  17.216   7.595  0.00  0.00     0.046 A 
HETATM   25 Cl   UNK N   1      34.324  18.582   7.880  0.00  0.00    -0.083 Cl
ENDBRANCH   8  19
TORSDOF 1
ENDMDL
MODEL 8
REMARK VINA RESULT:      -6.5     13.463     15.149
REMARK  1 active torsions:
REMARK  status: ('A' for Active; 'I' for Inactive)
REMARK    1  A    between atoms: C_14  and  C_9 
ROOT
HETATM    1  C   UNK N   1      40.714  21.604   1.543  0.00  0.00     0.091 C 
HETATM    2  C   UNK N   1      44.070  17.808   2.839  0.00  0.00     0.043 A 
HETATM    3  C   UNK N   1      44.837  21.915   4.262  0.00  0.00     0.198 C 
HETATM    4  C   UNK N   1      41.907  22.114   2.277  0.00  0.00     0.100 A 
HETATM    5  C   UNK N   1      44.274  19.216   3.019  0.00  0.00     0.027 A 
HETATM    6  C   UNK N   1      42.764  17.458   2.502  0.00  0.00     0.054 A 
HETATM    7  C   UNK N   1      43.713  22.259   3.367  0.00  0.00     0.122 A 
HETATM    8  C   UNK N   1      45.659  19.802   3.285  0.00  0.00     0.053 C 
HETATM    9  C   UNK N   1      43.072  19.940   2.802  0.00  0.00     0.097 A 
HETATM   10 Br   UNK N   1      42.117  15.701   2.150  0.00  0.00    -0.043 Br
HETATM   11  N   UNK N   1      45.825  21.004   3.739  0.00  0.00    -0.381 N 
ATOM     12  HN  UNK N   1      46.783  21.352   3.725  1.00  0.00     0.160 HD
HETATM   13  N   UNK N   1      42.125  23.423   2.504  0.00  0.00    -0.287 N 
ATOM     14  HN  UNK N   1      41.535  24.198   2.201  1.00  0.00     0.188 HD
HETATM   15  N   UNK N   1      43.252  23.513   3.196  0.00  0.00    -0.286 N 
ATOM     16  HN  UNK N   1      43.688  24.370   3.535  1.00  0.00     0.188 HD
HETATM   17  N   UNK N   1      42.901  21.363   2.802  0.00  0.00    -0.280 N 
HETATM   18  S   UNK N   1      41.889  18.847   2.405  0.00  0.00    -0.063 SA
ENDROOT
BRANCH   8  19
HETATM   19  C   UNK N   1      46.920  18.965   3.081  0.00  0.00     0.013 A 
HETATM   20  C   UNK N   1      47.638  18.504   4.200  0.00  0.00     0.015 A 
HETATM   21  C   UNK N   1      48.819  17.774   4.074  0.00  0.00     0.001 A 
HETATM   22  C   UNK N   1      49.320  17.479   2.813  0.00  0.00     0.002 A 
HETATM   23  C   UNK N   1      48.635  17.905   1.681  0.00  0.00     0.025 A 
HETATM   24  C   UNK N   1      47.448  18.640   1.788  0.00  0.00     0.046 A 
HETATM   25 Cl   UNK N   1      46.704  19.110   0.261  0.00  0.00    -0.083 Cl
ENDBRANCH   8  19
TORSDOF 1
ENDMDL
MODEL 9
REMARK VINA RESULT:      -6.3      4.329      6.808
REMARK  1 active torsions:
REMARK  status: ('A' for Active; 'I' for Inactive)
REMARK    1  A    between atoms: C_14  and  C_9 
ROOT
HETATM    1  C   UNK N   1      36.345  13.901  10.637  0.00  0.00     0.091 C 
HETATM    2  C   UNK N   1      35.232  14.491   5.561  0.00  0.00     0.043 A 
HETATM    3  C   UNK N   1      34.550  17.881   8.305  0.00  0.00     0.198 C 
HETATM    4  C   UNK N   1      35.705  15.214  10.335  0.00  0.00     0.100 A 
HETATM    5  C   UNK N   1      34.870  15.391   6.617  0.00  0.00     0.027 A 
HETATM    6  C   UNK N   1      36.153  13.514   5.934  0.00  0.00     0.054 A 
HETATM    7  C   UNK N   1      34.860  16.883   9.351  0.00  0.00     0.122 A 
HETATM    8  C   UNK N   1      33.795  16.460   6.432  0.00  0.00     0.053 C 
HETATM    9  C   UNK N   1      35.545  15.065   7.823  0.00  0.00     0.097 A 
HETATM   10 Br   UNK N   1      36.844  12.128   4.825  0.00  0.00    -0.043 Br
HETATM   11  N   UNK N   1      33.664  17.456   7.249  0.00  0.00    -0.381 N 
ATOM     12  HN  UNK N   1      32.821  18.017   7.130  1.00  0.00     0.160 HD
HETATM   13  N   UNK N   1      35.380  16.108  11.287  0.00  0.00    -0.287 N 
ATOM     14  HN  UNK N   1      35.510  15.999  12.293  1.00  0.00     0.188 HD
HETATM   15  N   UNK N   1      34.860  17.159  10.669  0.00  0.00    -0.286 N 
ATOM     16  HN  UNK N   1      34.523  18.015  11.109  1.00  0.00     0.188 HD
HETATM   17  N   UNK N   1      35.376  15.676   9.108  0.00  0.00    -0.280 N 
HETATM   18  S   UNK N   1      36.494  13.737   7.526  0.00  0.00    -0.063 SA
ENDROOT
BRANCH   8  19
HETATM   19  C   UNK N   1      32.858  16.434   5.227  0.00  0.00     0.013 A 
HETATM   20  C   UNK N   1      33.051  17.346   4.173  0.00  0.00     0.015 A 
HETATM   21  C   UNK N   1      32.200  17.397   3.070  0.00  0.00     0.001 A 
HETATM   22  C   UNK N   1      31.123  16.525   2.985  0.00  0.00     0.002 A 
HETATM   23  C   UNK N   1      30.903  15.598   3.998  0.00  0.00     0.025 A 
HETATM   24  C   UNK N   1      31.747  15.534   5.115  0.00  0.00     0.046 A 
HETATM   25 Cl   UNK N   1      31.331  14.310   6.312  0.00  0.00    -0.083 Cl
ENDBRANCH   8  19
TORSDOF 1
ENDMDL
