MODEL 1
REMARK VINA RESULT:      -8.3      0.000      0.000
REMARK  3 active torsions:
REMARK  status: ('A' for Active; 'I' for Inactive)
REMARK    1  A    between atoms: C_22  and  C_18 
REMARK    2  A    between atoms: N_33  and  C_20 
REMARK       I    between atoms: N_32  and  C_22 
REMARK    3  A    between atoms: N_31  and  C_23 
ROOT
HETATM    1  C   UNK N   1      33.163  12.707   9.248  0.00  0.00     0.032 C 
HETATM    2  C   UNK N   1      34.982  12.108  10.771  0.00  0.00     0.045 C 
HETATM    3  C   UNK N   1      36.410  12.376  11.226  0.00  0.00     0.128 C 
HETATM    4  C   UNK N   1      36.123  14.733  11.969  0.00  0.00     0.146 C 
HETATM    5  C   UNK N   1      34.673  14.790  11.581  0.00  0.00     0.146 C 
HETATM    6  C   UNK N   1      34.556  13.115   9.702  0.00  0.00     0.085 C 
HETATM    7  C   UNK N   1      34.528  15.633   9.346  0.00  0.00     0.256 C 
HETATM    8  N   UNK N   1      36.394  13.366  12.274  0.00  0.00    -0.345 N 
HETATM    9  N   UNK N   1      34.566  14.516  10.161  0.00  0.00    -0.342 N 
HETATM   10  O   UNK N   1      34.638  16.705   9.902  0.00  0.00    -0.267 OA
ENDROOT
BRANCH   7  11
HETATM   11  C   UNK N   1      34.397  15.622   7.832  0.00  0.00     0.063 A 
HETATM   12  C   UNK N   1      35.422  15.008   7.100  0.00  0.00     0.026 A 
HETATM   13  C   UNK N   1      35.430  14.920   5.720  0.00  0.00    -0.061 A 
HETATM   14  C   UNK N   1      36.558  14.238   5.031  0.00  0.00     0.048 C 
HETATM   15  C   UNK N   1      34.389  15.465   4.995  0.00  0.00     0.009 A 
HETATM   16  C   UNK N   1      33.343  16.091   5.662  0.00  0.00     0.035 A 
HETATM   17  C   UNK N   1      33.293  16.193   7.068  0.00  0.00     0.090 A 
BRANCH  17  18
HETATM   18  N   UNK N   1      32.108  16.861   7.603  0.00  0.00    -0.197 N 
HETATM   19  N   UNK N   1      32.057  17.779   8.550  0.00  0.00    -0.289 N 
HETATM   20  C   UNK N   1      30.768  18.106   8.743  0.00  0.00     0.127 A 
ATOM     21  HN  UNK N   1      32.855  18.173   9.048  1.00  0.00     0.188 HD
HETATM   22  C   UNK N   1      30.025  17.337   7.872  0.00  0.00     0.127 A 
HETATM   23  N   UNK N   1      30.890  16.571   7.180  0.00  0.00    -0.289 N 
ATOM     24  HN  UNK N   1      30.648  15.891   6.460  1.00  0.00     0.188 HD
ENDBRANCH  17  18
ENDBRANCH   7  11
BRANCH   8  25
HETATM   25  C   UNK N   1      36.287  12.956  13.609  0.00  0.00     0.227 A 
HETATM   26  N   UNK N   1      36.034  13.808  14.626  0.00  0.00    -0.320 N 
HETATM   27  C   UNK N   1      35.941  12.993  15.678  0.00  0.00     0.071 A 
ATOM     28  HN  UNK N   1      35.937  14.823  14.598  1.00  0.00     0.169 HD
HETATM   29  C   UNK N   1      35.602  13.330  16.973  0.00  0.00     0.056 A 
HETATM   30  C   UNK N   1      36.145  11.705  15.284  0.00  0.00     0.106 A 
HETATM   31  C   UNK N   1      35.455  12.279  17.891  0.00  0.00     0.036 A 
HETATM   32  C   UNK N   1      35.670  10.935  17.489  0.00  0.00     0.026 A 
HETATM   33 Cl   UNK N   1      34.921  12.640  19.512  0.00  0.00    -0.084 Cl
HETATM   34  C   UNK N   1      36.032  10.635  16.161  0.00  0.00     0.041 A 
HETATM   35  O   UNK N   1      36.371  11.696  14.003  0.00  0.00    -0.277 OA
ENDBRANCH   8  25
TORSDOF 3
ENDMDL
MODEL 2
REMARK VINA RESULT:      -8.1      8.717     13.494
REMARK  3 active torsions:
REMARK  status: ('A' for Active; 'I' for Inactive)
REMARK    1  A    between atoms: C_22  and  C_18 
REMARK    2  A    between atoms: N_33  and  C_20 
REMARK       I    between atoms: N_32  and  C_22 
REMARK    3  A    between atoms: N_31  and  C_23 
ROOT
HETATM    1  C   UNK N   1      28.107  14.602   5.380  0.00  0.00     0.032 C 
HETATM    2  C   UNK N   1      25.689  14.935   5.551  0.00  0.00     0.045 C 
HETATM    3  C   UNK N   1      24.551  15.843   5.998  0.00  0.00     0.128 C 
HETATM    4  C   UNK N   1      25.049  17.801   4.546  0.00  0.00     0.146 C 
HETATM    5  C   UNK N   1      26.269  17.171   3.935  0.00  0.00     0.146 C 
HETATM    6  C   UNK N   1      27.041  15.617   5.763  0.00  0.00     0.085 C 
HETATM    7  C   UNK N   1      28.176  17.828   5.223  0.00  0.00     0.256 C 
HETATM    8  N   UNK N   1      24.192  16.721   4.913  0.00  0.00    -0.345 N 
HETATM    9  N   UNK N   1      27.209  16.866   4.996  0.00  0.00    -0.342 N 
HETATM   10  O   UNK N   1      28.099  18.833   4.548  0.00  0.00    -0.267 OA
ENDROOT
BRANCH   7  11
HETATM   11  C   UNK N   1      29.288  17.743   6.256  0.00  0.00     0.063 A 
HETATM   12  C   UNK N   1      28.979  18.123   7.568  0.00  0.00     0.026 A 
HETATM   13  C   UNK N   1      29.888  18.091   8.609  0.00  0.00    -0.061 A 
HETATM   14  C   UNK N   1      29.464  18.503   9.973  0.00  0.00     0.048 C 
HETATM   15  C   UNK N   1      31.183  17.673   8.371  0.00  0.00     0.009 A 
HETATM   16  C   UNK N   1      31.554  17.286   7.089  0.00  0.00     0.035 A 
HETATM   17  C   UNK N   1      30.653  17.295   6.003  0.00  0.00     0.090 A 
BRANCH  17  18
HETATM   18  N   UNK N   1      31.204  16.833   4.731  0.00  0.00    -0.197 N 
HETATM   19  N   UNK N   1      31.324  15.590   4.306  0.00  0.00    -0.289 N 
HETATM   20  C   UNK N   1      31.898  15.618   3.092  0.00  0.00     0.127 A 
ATOM     21  HN  UNK N   1      31.029  14.753   4.810  1.00  0.00     0.188 HD
HETATM   22  C   UNK N   1      32.135  16.943   2.792  0.00  0.00     0.127 A 
HETATM   23  N   UNK N   1      31.695  17.672   3.835  0.00  0.00    -0.289 N 
ATOM     24  HN  UNK N   1      31.732  18.689   3.917  1.00  0.00     0.188 HD
ENDBRANCH  17  18
ENDBRANCH   7  11
BRANCH   8  25
HETATM   25  C   UNK N   1      23.210  16.321   3.998  0.00  0.00     0.227 A 
HETATM   26  N   UNK N   1      22.197  17.123   3.602  0.00  0.00    -0.320 N 
HETATM   27  C   UNK N   1      21.569  16.378   2.691  0.00  0.00     0.071 A 
ATOM     28  HN  UNK N   1      21.969  18.064   3.921  1.00  0.00     0.169 HD
HETATM   29  C   UNK N   1      20.504  16.748   1.895  0.00  0.00     0.056 A 
HETATM   30  C   UNK N   1      22.194  15.174   2.568  0.00  0.00     0.106 A 
HETATM   31  C   UNK N   1      20.082  15.829   0.923  0.00  0.00     0.036 A 
HETATM   32  C   UNK N   1      20.725  14.571   0.791  0.00  0.00     0.026 A 
HETATM   33 Cl   UNK N   1      18.811  16.290  -0.181  0.00  0.00    -0.084 Cl
HETATM   34  C   UNK N   1      21.800  14.226   1.635  0.00  0.00     0.041 A 
HETATM   35  O   UNK N   1      23.201  15.146   3.392  0.00  0.00    -0.277 OA
ENDBRANCH   8  25
TORSDOF 3
ENDMDL
MODEL 3
REMARK VINA RESULT:      -8.0      3.677      6.974
REMARK  3 active torsions:
REMARK  status: ('A' for Active; 'I' for Inactive)
REMARK    1  A    between atoms: C_22  and  C_18 
REMARK    2  A    between atoms: N_33  and  C_20 
REMARK       I    between atoms: N_32  and  C_22 
REMARK    3  A    between atoms: N_31  and  C_23 
ROOT
HETATM    1  C   UNK N   1      31.696  17.097   4.342  0.00  0.00     0.032 C 
HETATM    2  C   UNK N   1      33.142  17.488   6.277  0.00  0.00     0.045 C 
HETATM    3  C   UNK N   1      33.263  18.032   7.694  0.00  0.00     0.128 C 
HETATM    4  C   UNK N   1      31.623  16.530   8.808  0.00  0.00     0.146 C 
HETATM    5  C   UNK N   1      31.258  15.813   7.539  0.00  0.00     0.146 C 
HETATM    6  C   UNK N   1      31.695  17.571   5.787  0.00  0.00     0.085 C 
HETATM    7  C   UNK N   1      29.367  16.916   6.573  0.00  0.00     0.256 C 
HETATM    8  N   UNK N   1      32.965  16.980   8.633  0.00  0.00    -0.345 N 
HETATM    9  N   UNK N   1      30.744  16.785   6.594  0.00  0.00    -0.342 N 
HETATM   10  O   UNK N   1      28.753  16.245   7.376  0.00  0.00    -0.267 OA
ENDROOT
BRANCH   7  11
HETATM   11  C   UNK N   1      28.578  17.843   5.663  0.00  0.00     0.063 A 
HETATM   12  C   UNK N   1      28.324  19.140   6.128  0.00  0.00     0.026 A 
HETATM   13  C   UNK N   1      27.626  20.089   5.405  0.00  0.00    -0.061 A 
HETATM   14  C   UNK N   1      27.416  21.446   5.977  0.00  0.00     0.048 C 
HETATM   15  C   UNK N   1      27.130  19.768   4.156  0.00  0.00     0.009 A 
HETATM   16  C   UNK N   1      27.346  18.496   3.640  0.00  0.00     0.035 A 
HETATM   17  C   UNK N   1      28.061  17.503   4.342  0.00  0.00     0.090 A 
BRANCH  17  18
HETATM   18  N   UNK N   1      28.214  16.231   3.640  0.00  0.00    -0.197 N 
HETATM   19  N   UNK N   1      28.907  15.991   2.543  0.00  0.00    -0.289 N 
HETATM   20  C   UNK N   1      28.760  14.692   2.233  0.00  0.00     0.127 A 
ATOM     21  HN  UNK N   1      29.459  16.672   2.021  1.00  0.00     0.188 HD
HETATM   22  C   UNK N   1      27.935  14.143   3.191  0.00  0.00     0.127 A 
HETATM   23  N   UNK N   1      27.610  15.128   4.049  0.00  0.00    -0.289 N 
ATOM     24  HN  UNK N   1      27.008  15.039   4.868  1.00  0.00     0.188 HD
ENDBRANCH  17  18
ENDBRANCH   7  11
BRANCH   8  25
HETATM   25  C   UNK N   1      34.000  16.161   9.102  0.00  0.00     0.227 A 
HETATM   26  N   UNK N   1      34.128  15.800  10.398  0.00  0.00    -0.320 N 
HETATM   27  C   UNK N   1      35.177  14.976  10.373  0.00  0.00     0.071 A 
ATOM     28  HN  UNK N   1      33.562  16.085  11.197  1.00  0.00     0.169 HD
HETATM   29  C   UNK N   1      35.692  14.243  11.423  0.00  0.00     0.056 A 
HETATM   30  C   UNK N   1      35.652  14.871   9.101  0.00  0.00     0.106 A 
HETATM   31  C   UNK N   1      36.736  13.353  11.130  0.00  0.00     0.036 A 
HETATM   32  C   UNK N   1      37.240  13.239   9.808  0.00  0.00     0.026 A 
HETATM   33 Cl   UNK N   1      37.350  12.322  12.398  0.00  0.00    -0.084 Cl
HETATM   34  C   UNK N   1      36.696  14.019   8.767  0.00  0.00     0.041 A 
HETATM   35  O   UNK N   1      34.923  15.619   8.325  0.00  0.00    -0.277 OA
ENDBRANCH   8  25
TORSDOF 3
ENDMDL
MODEL 4
REMARK VINA RESULT:      -7.8      3.754      8.974
REMARK  3 active torsions:
REMARK  status: ('A' for Active; 'I' for Inactive)
REMARK    1  A    between atoms: C_22  and  C_18 
REMARK    2  A    between atoms: N_33  and  C_20 
REMARK       I    between atoms: N_32  and  C_22 
REMARK    3  A    between atoms: N_31  and  C_23 
ROOT
HETATM    1  C   UNK N   1      35.284  16.779  10.337  0.00  0.00     0.032 C 
HETATM    2  C   UNK N   1      34.070  17.278   8.272  0.00  0.00     0.045 C 
HETATM    3  C   UNK N   1      33.674  16.813   6.876  0.00  0.00     0.128 C 
HETATM    4  C   UNK N   1      32.413  14.766   7.512  0.00  0.00     0.146 C 
HETATM    5  C   UNK N   1      32.670  14.936   8.982  0.00  0.00     0.146 C 
HETATM    6  C   UNK N   1      34.856  16.188   9.002  0.00  0.00     0.085 C 
HETATM    7  C   UNK N   1      34.648  13.713   9.545  0.00  0.00     0.256 C 
HETATM    8  N   UNK N   1      32.437  16.078   6.955  0.00  0.00    -0.345 N 
HETATM    9  N   UNK N   1      34.103  14.937   9.202  0.00  0.00    -0.342 N 
HETATM   10  O   UNK N   1      33.880  12.774   9.573  0.00  0.00    -0.267 OA
ENDROOT
BRANCH   7  11
HETATM   11  C   UNK N   1      36.113  13.448   9.849  0.00  0.00     0.063 A 
HETATM   12  C   UNK N   1      37.034  13.651   8.812  0.00  0.00     0.026 A 
HETATM   13  C   UNK N   1      38.395  13.455   8.948  0.00  0.00    -0.061 A 
HETATM   14  C   UNK N   1      39.297  13.710   7.793  0.00  0.00     0.048 C 
HETATM   15  C   UNK N   1      38.905  13.027  10.158  0.00  0.00     0.009 A 
HETATM   16  C   UNK N   1      38.044  12.804  11.225  0.00  0.00     0.035 A 
HETATM   17  C   UNK N   1      36.650  13.001  11.129  0.00  0.00     0.090 A 
BRANCH  17  18
HETATM   18  N   UNK N   1      35.898  12.743  12.355  0.00  0.00    -0.197 N 
HETATM   19  N   UNK N   1      34.954  11.841  12.549  0.00  0.00    -0.289 N 
HETATM   20  C   UNK N   1      34.519  11.959  13.814  0.00  0.00     0.127 A 
ATOM     21  HN  UNK N   1      34.615  11.170  11.859  1.00  0.00     0.188 HD
HETATM   22  C   UNK N   1      35.237  12.985  14.391  0.00  0.00     0.127 A 
HETATM   23  N   UNK N   1      36.084  13.454  13.454  0.00  0.00    -0.289 N 
ATOM     24  HN  UNK N   1      36.749  14.218  13.572  1.00  0.00     0.188 HD
ENDBRANCH  17  18
ENDBRANCH   7  11
BRANCH   8  25
HETATM   25  C   UNK N   1      31.220  16.760   6.825  0.00  0.00     0.227 A 
HETATM   26  N   UNK N   1      30.667  17.483   7.824  0.00  0.00    -0.320 N 
HETATM   27  C   UNK N   1      29.585  18.007   7.246  0.00  0.00     0.071 A 
ATOM     28  HN  UNK N   1      30.995  17.599   8.783  1.00  0.00     0.169 HD
HETATM   29  C   UNK N   1      28.696  18.909   7.793  0.00  0.00     0.056 A 
HETATM   30  C   UNK N   1      29.507  17.593   5.950  0.00  0.00     0.106 A 
HETATM   31  C   UNK N   1      27.692  19.410   6.951  0.00  0.00     0.036 A 
HETATM   32  C   UNK N   1      27.601  18.980   5.601  0.00  0.00     0.026 A 
HETATM   33 Cl   UNK N   1      26.609  20.635   7.561  0.00  0.00    -0.084 Cl
HETATM   34  C   UNK N   1      28.520  18.044   5.086  0.00  0.00     0.041 A 
HETATM   35  O   UNK N   1      30.518  16.811   5.706  0.00  0.00    -0.277 OA
ENDBRANCH   8  25
TORSDOF 3
ENDMDL
MODEL 5
REMARK VINA RESULT:      -7.8      4.020      7.607
REMARK  3 active torsions:
REMARK  status: ('A' for Active; 'I' for Inactive)
REMARK    1  A    between atoms: C_22  and  C_18 
REMARK    2  A    between atoms: N_33  and  C_20 
REMARK       I    between atoms: N_32  and  C_22 
REMARK    3  A    between atoms: N_31  and  C_23 
ROOT
HETATM    1  C   UNK N   1      29.248  15.095   5.129  0.00  0.00     0.032 C 
HETATM    2  C   UNK N   1      31.468  15.969   5.674  0.00  0.00     0.045 C 
HETATM    3  C   UNK N   1      32.312  17.187   6.025  0.00  0.00     0.128 C 
HETATM    4  C   UNK N   1      31.181  17.821   8.147  0.00  0.00     0.146 C 
HETATM    5  C   UNK N   1      30.168  16.715   8.061  0.00  0.00     0.146 C 
HETATM    6  C   UNK N   1      29.989  16.346   5.574  0.00  0.00     0.085 C 
HETATM    7  C   UNK N   1      28.227  17.563   6.946  0.00  0.00     0.256 C 
HETATM    8  N   UNK N   1      32.336  17.349   7.457  0.00  0.00    -0.345 N 
HETATM    9  N   UNK N   1      29.420  16.873   6.829  0.00  0.00    -0.342 N 
HETATM   10  O   UNK N   1      27.967  18.000   8.048  0.00  0.00    -0.267 OA
ENDROOT
BRANCH   7  11
HETATM   11  C   UNK N   1      27.249  17.844   5.817  0.00  0.00     0.063 A 
HETATM   12  C   UNK N   1      27.428  19.028   5.089  0.00  0.00     0.026 A 
HETATM   13  C   UNK N   1      26.619  19.408   4.034  0.00  0.00    -0.061 A 
HETATM   14  C   UNK N   1      26.894  20.678   3.313  0.00  0.00     0.048 C 
HETATM   15  C   UNK N   1      25.563  18.600   3.660  0.00  0.00     0.009 A 
HETATM   16  C   UNK N   1      25.331  17.414   4.344  0.00  0.00     0.035 A 
HETATM   17  C   UNK N   1      26.138  16.987   5.419  0.00  0.00     0.090 A 
BRANCH  17  18
HETATM   18  N   UNK N   1      25.766  15.703   6.008  0.00  0.00    -0.197 N 
HETATM   19  N   UNK N   1      25.305  14.633   5.389  0.00  0.00    -0.289 N 
HETATM   20  C   UNK N   1      25.076  13.684   6.311  0.00  0.00     0.127 A 
ATOM     21  HN  UNK N   1      25.150  14.541   4.384  1.00  0.00     0.188 HD
HETATM   22  C   UNK N   1      25.412  14.225   7.535  0.00  0.00     0.127 A 
HETATM   23  N   UNK N   1      25.834  15.483   7.310  0.00  0.00    -0.289 N 
ATOM     24  HN  UNK N   1      26.150  16.147   8.017  1.00  0.00     0.188 HD
ENDBRANCH  17  18
ENDBRANCH   7  11
BRANCH   8  25
HETATM   25  C   UNK N   1      33.339  16.720   8.206  0.00  0.00     0.227 A 
HETATM   26  N   UNK N   1      33.429  16.817   9.551  0.00  0.00    -0.320 N 
HETATM   27  C   UNK N   1      34.457  16.016   9.836  0.00  0.00     0.071 A 
ATOM     28  HN  UNK N   1      32.853  17.365  10.189  1.00  0.00     0.169 HD
HETATM   29  C   UNK N   1      34.930  15.673  11.087  0.00  0.00     0.056 A 
HETATM   30  C   UNK N   1      34.957  15.479   8.689  0.00  0.00     0.106 A 
HETATM   31  C   UNK N   1      35.957  14.719  11.143  0.00  0.00     0.036 A 
HETATM   32  C   UNK N   1      36.487  14.157   9.952  0.00  0.00     0.026 A 
HETATM   33 Cl   UNK N   1      36.515  14.168  12.702  0.00  0.00    -0.084 Cl
HETATM   34  C   UNK N   1      35.986  14.548   8.694  0.00  0.00     0.041 A 
HETATM   35  O   UNK N   1      34.265  15.933   7.685  0.00  0.00    -0.277 OA
ENDBRANCH   8  25
TORSDOF 3
ENDMDL
MODEL 6
REMARK VINA RESULT:      -7.6     16.734     19.838
REMARK  3 active torsions:
REMARK  status: ('A' for Active; 'I' for Inactive)
REMARK    1  A    between atoms: C_22  and  C_18 
REMARK    2  A    between atoms: N_33  and  C_20 
REMARK       I    between atoms: N_32  and  C_22 
REMARK    3  A    between atoms: N_31  and  C_23 
ROOT
HETATM    1  C   UNK N   1      28.845  24.334  -7.275  0.00  0.00     0.032 C 
HETATM    2  C   UNK N   1      31.071  24.241  -6.263  0.00  0.00     0.045 C 
HETATM    3  C   UNK N   1      31.947  24.582  -5.064  0.00  0.00     0.128 C 
HETATM    4  C   UNK N   1      30.748  23.248  -3.340  0.00  0.00     0.146 C 
HETATM    5  C   UNK N   1      29.696  22.761  -4.297  0.00  0.00     0.146 C 
HETATM    6  C   UNK N   1      29.614  24.622  -5.995  0.00  0.00     0.085 C 
HETATM    7  C   UNK N   1      27.842  24.272  -4.205  0.00  0.00     0.256 C 
HETATM    8  N   UNK N   1      31.913  23.487  -4.127  0.00  0.00    -0.345 N 
HETATM    9  N   UNK N   1      29.011  23.912  -4.851  0.00  0.00    -0.342 N 
HETATM   10  O   UNK N   1      27.551  23.620  -3.224  0.00  0.00    -0.267 OA
ENDROOT
BRANCH   7  11
HETATM   11  C   UNK N   1      26.928  25.421  -4.598  0.00  0.00     0.063 A 
HETATM   12  C   UNK N   1      27.065  26.624  -3.893  0.00  0.00     0.026 A 
HETATM   13  C   UNK N   1      26.306  27.751  -4.147  0.00  0.00    -0.061 A 
HETATM   14  C   UNK N   1      26.532  28.988  -3.355  0.00  0.00     0.048 C 
HETATM   15  C   UNK N   1      25.344  27.716  -5.139  0.00  0.00     0.009 A 
HETATM   16  C   UNK N   1      25.157  26.551  -5.871  0.00  0.00     0.035 A 
HETATM   17  C   UNK N   1      25.917  25.384  -5.649  0.00  0.00     0.090 A 
BRANCH  17  18
HETATM   18  N   UNK N   1      25.604  24.259  -6.527  0.00  0.00    -0.197 N 
HETATM   19  N   UNK N   1      25.487  22.986  -6.198  0.00  0.00    -0.289 N 
HETATM   20  C   UNK N   1      25.210  22.292  -7.314  0.00  0.00     0.127 A 
ATOM     21  HN  UNK N   1      25.587  22.597  -5.261  1.00  0.00     0.188 HD
HETATM   22  C   UNK N   1      25.170  23.200  -8.352  0.00  0.00     0.127 A 
HETATM   23  N   UNK N   1      25.423  24.414  -7.827  0.00  0.00    -0.289 N 
ATOM     24  HN  UNK N   1      25.466  25.295  -8.341  1.00  0.00     0.188 HD
ENDBRANCH  17  18
ENDBRANCH   7  11
BRANCH   8  25
HETATM   25  C   UNK N   1      32.856  22.457  -4.236  0.00  0.00     0.227 A 
HETATM   26  N   UNK N   1      32.630  21.198  -3.799  0.00  0.00    -0.320 N 
HETATM   27  C   UNK N   1      33.738  20.554  -4.169  0.00  0.00     0.071 A 
ATOM     28  HN  UNK N   1      31.815  20.832  -3.307  1.00  0.00     0.169 HD
HETATM   29  C   UNK N   1      34.003  19.205  -4.049  0.00  0.00     0.056 A 
HETATM   30  C   UNK N   1      34.587  21.416  -4.795  0.00  0.00     0.106 A 
HETATM   31  C   UNK N   1      35.196  18.733  -4.617  0.00  0.00     0.036 A 
HETATM   32  C   UNK N   1      36.088  19.626  -5.267  0.00  0.00     0.026 A 
HETATM   33 Cl   UNK N   1      35.526  17.020  -4.590  0.00  0.00    -0.084 Cl
HETATM   34  C   UNK N   1      35.787  21.000  -5.354  0.00  0.00     0.041 A 
HETATM   35  O   UNK N   1      34.035  22.594  -4.818  0.00  0.00    -0.277 OA
ENDBRANCH   8  25
TORSDOF 3
ENDMDL
MODEL 7
REMARK VINA RESULT:      -7.4      7.481     11.874
REMARK  3 active torsions:
REMARK  status: ('A' for Active; 'I' for Inactive)
REMARK    1  A    between atoms: C_22  and  C_18 
REMARK    2  A    between atoms: N_33  and  C_20 
REMARK       I    between atoms: N_32  and  C_22 
REMARK    3  A    between atoms: N_31  and  C_23 
ROOT
HETATM    1  C   UNK N   1      29.801  14.839   5.810  0.00  0.00     0.032 C 
HETATM    2  C   UNK N   1      28.115  16.543   6.300  0.00  0.00     0.045 C 
HETATM    3  C   UNK N   1      27.831  17.993   6.666  0.00  0.00     0.128 C 
HETATM    4  C   UNK N   1      28.822  19.081   4.660  0.00  0.00     0.146 C 
HETATM    5  C   UNK N   1      29.269  17.784   4.047  0.00  0.00     0.146 C 
HETATM    6  C   UNK N   1      29.611  16.325   6.073  0.00  0.00     0.085 C 
HETATM    7  C   UNK N   1      31.518  17.360   4.747  0.00  0.00     0.256 C 
HETATM    8  N   UNK N   1      27.683  18.766   5.458  0.00  0.00    -0.345 N 
HETATM    9  N   UNK N   1      30.173  17.127   4.970  0.00  0.00    -0.342 N 
HETATM   10  O   UNK N   1      31.786  18.123   3.842  0.00  0.00    -0.267 OA
ENDROOT
BRANCH   7  11
HETATM   11  C   UNK N   1      32.666  16.775   5.553  0.00  0.00     0.063 A 
HETATM   12  C   UNK N   1      33.140  17.524   6.637  0.00  0.00     0.026 A 
HETATM   13  C   UNK N   1      34.173  17.113   7.459  0.00  0.00    -0.061 A 
HETATM   14  C   UNK N   1      34.599  17.972   8.595  0.00  0.00     0.048 C 
HETATM   15  C   UNK N   1      34.798  15.905   7.216  0.00  0.00     0.009 A 
HETATM   16  C   UNK N   1      34.377  15.117   6.153  0.00  0.00     0.035 A 
HETATM   17  C   UNK N   1      33.321  15.496   5.298  0.00  0.00     0.090 A 
BRANCH  17  18
HETATM   18  N   UNK N   1      32.993  14.536   4.247  0.00  0.00    -0.197 N 
HETATM   19  N   UNK N   1      32.754  14.784   2.973  0.00  0.00    -0.289 N 
HETATM   20  C   UNK N   1      32.478  13.617   2.367  0.00  0.00     0.127 A 
ATOM     21  HN  UNK N   1      32.776  15.700   2.525  1.00  0.00     0.188 HD
HETATM   22  C   UNK N   1      32.551  12.636   3.334  0.00  0.00     0.127 A 
HETATM   23  N   UNK N   1      32.870  13.243   4.493  0.00  0.00    -0.289 N 
ATOM     24  HN  UNK N   1      32.996  12.787   5.397  1.00  0.00     0.188 HD
ENDBRANCH  17  18
ENDBRANCH   7  11
BRANCH   8  25
HETATM   25  C   UNK N   1      26.415  18.902   4.877  0.00  0.00     0.227 A 
HETATM   26  N   UNK N   1      25.372  18.098   5.180  0.00  0.00    -0.320 N 
HETATM   27  C   UNK N   1      24.375  18.629   4.471  0.00  0.00     0.071 A 
ATOM     28  HN  UNK N   1      25.352  17.287   5.799  1.00  0.00     0.169 HD
HETATM   29  C   UNK N   1      23.047  18.250   4.477  0.00  0.00     0.056 A 
HETATM   30  C   UNK N   1      24.828  19.704   3.767  0.00  0.00     0.106 A 
HETATM   31  C   UNK N   1      22.154  19.033   3.731  0.00  0.00     0.036 A 
HETATM   32  C   UNK N   1      22.619  20.152   2.992  0.00  0.00     0.026 A 
HETATM   33 Cl   UNK N   1      20.450  18.664   3.793  0.00  0.00    -0.084 Cl
HETATM   34  C   UNK N   1      23.986  20.495   2.999  0.00  0.00     0.041 A 
HETATM   35  O   UNK N   1      26.096  19.855   4.017  0.00  0.00    -0.277 OA
ENDBRANCH   8  25
TORSDOF 3
ENDMDL
MODEL 8
REMARK VINA RESULT:      -7.4      7.661     12.306
REMARK  3 active torsions:
REMARK  status: ('A' for Active; 'I' for Inactive)
REMARK    1  A    between atoms: C_22  and  C_18 
REMARK    2  A    between atoms: N_33  and  C_20 
REMARK       I    between atoms: N_32  and  C_22 
REMARK    3  A    between atoms: N_31  and  C_23 
ROOT
HETATM    1  C   UNK N   1      29.083  13.993   4.685  0.00  0.00     0.032 C 
HETATM    2  C   UNK N   1      26.835  14.665   5.381  0.00  0.00     0.045 C 
HETATM    3  C   UNK N   1      25.981  15.637   6.184  0.00  0.00     0.128 C 
HETATM    4  C   UNK N   1      26.599  17.736   5.001  0.00  0.00     0.146 C 
HETATM    5  C   UNK N   1      27.558  17.053   4.068  0.00  0.00     0.146 C 
HETATM    6  C   UNK N   1      28.309  15.070   5.430  0.00  0.00     0.085 C 
HETATM    7  C   UNK N   1      29.741  17.136   5.044  0.00  0.00     0.256 C 
HETATM    8  N   UNK N   1      25.624  16.755   5.348  0.00  0.00    -0.345 N 
HETATM    9  N   UNK N   1      28.584  16.402   4.859  0.00  0.00    -0.342 N 
HETATM   10  O   UNK N   1      29.748  18.253   4.571  0.00  0.00    -0.267 OA
ENDROOT
BRANCH   7  11
HETATM   11  C   UNK N   1      30.970  16.676   5.811  0.00  0.00     0.063 A 
HETATM   12  C   UNK N   1      32.004  16.082   5.075  0.00  0.00     0.026 A 
HETATM   13  C   UNK N   1      33.180  15.623   5.640  0.00  0.00    -0.061 A 
HETATM   14  C   UNK N   1      34.227  15.018   4.775  0.00  0.00     0.048 C 
HETATM   15  C   UNK N   1      33.371  15.735   7.003  0.00  0.00     0.009 A 
HETATM   16  C   UNK N   1      32.382  16.312   7.789  0.00  0.00     0.035 A 
HETATM   17  C   UNK N   1      31.173  16.800   7.250  0.00  0.00     0.090 A 
BRANCH  17  18
HETATM   18  N   UNK N   1      30.254  17.398   8.217  0.00  0.00    -0.197 N 
HETATM   19  N   UNK N   1      28.945  17.254   8.283  0.00  0.00    -0.289 N 
HETATM   20  C   UNK N   1      28.496  17.991   9.313  0.00  0.00     0.127 A 
ATOM     21  HN  UNK N   1      28.372  16.682   7.662  1.00  0.00     0.188 HD
HETATM   22  C   UNK N   1      29.596  18.605   9.876  0.00  0.00     0.127 A 
HETATM   23  N   UNK N   1      30.673  18.216   9.167  0.00  0.00    -0.289 N 
ATOM     24  HN  UNK N   1      31.639  18.502   9.335  1.00  0.00     0.188 HD
ENDBRANCH  17  18
ENDBRANCH   7  11
BRANCH   8  25
HETATM   25  C   UNK N   1      24.446  16.702   4.591  0.00  0.00     0.227 A 
HETATM   26  N   UNK N   1      24.134  15.666   3.782  0.00  0.00    -0.320 N 
HETATM   27  C   UNK N   1      22.920  15.995   3.336  0.00  0.00     0.071 A 
ATOM     28  HN  UNK N   1      24.688  14.838   3.565  1.00  0.00     0.169 HD
HETATM   29  C   UNK N   1      22.087  15.239   2.536  0.00  0.00     0.056 A 
HETATM   30  C   UNK N   1      22.543  17.193   3.864  0.00  0.00     0.106 A 
HETATM   31  C   UNK N   1      20.803  15.746   2.289  0.00  0.00     0.036 A 
HETATM   32  C   UNK N   1      20.403  16.996   2.832  0.00  0.00     0.026 A 
HETATM   33 Cl   UNK N   1      19.672  14.780   1.376  0.00  0.00    -0.084 Cl
HETATM   34  C   UNK N   1      21.291  17.744   3.630  0.00  0.00     0.041 A 
HETATM   35  O   UNK N   1      23.502  17.626   4.629  0.00  0.00    -0.277 OA
ENDBRANCH   8  25
TORSDOF 3
ENDMDL
MODEL 9
REMARK VINA RESULT:      -7.4      5.274     10.306
REMARK  3 active torsions:
REMARK  status: ('A' for Active; 'I' for Inactive)
REMARK    1  A    between atoms: C_22  and  C_18 
REMARK    2  A    between atoms: N_33  and  C_20 
REMARK       I    between atoms: N_32  and  C_22 
REMARK    3  A    between atoms: N_31  and  C_23 
ROOT
HETATM    1  C   UNK N   1      34.077  17.405   6.474  0.00  0.00     0.032 C 
HETATM    2  C   UNK N   1      32.391  17.576   4.709  0.00  0.00     0.045 C 
HETATM    3  C   UNK N   1      31.574  16.854   3.646  0.00  0.00     0.128 C 
HETATM    4  C   UNK N   1      30.336  15.289   5.131  0.00  0.00     0.146 C 
HETATM    5  C   UNK N   1      31.012  15.775   6.382  0.00  0.00     0.146 C 
HETATM    6  C   UNK N   1      33.234  16.584   5.511  0.00  0.00     0.085 C 
HETATM    7  C   UNK N   1      32.930  14.401   6.780  0.00  0.00     0.256 C 
HETATM    8  N   UNK N   1      30.339  16.394   4.229  0.00  0.00    -0.345 N 
HETATM    9  N   UNK N   1      32.441  15.576   6.240  0.00  0.00    -0.342 N 
HETATM   10  O   UNK N   1      32.108  13.651   7.263  0.00  0.00    -0.267 OA
ENDROOT
BRANCH   7  11
HETATM   11  C   UNK N   1      34.386  13.965   6.785  0.00  0.00     0.063 A 
HETATM   12  C   UNK N   1      34.904  13.434   5.597  0.00  0.00     0.026 A 
HETATM   13  C   UNK N   1      36.211  13.004   5.456  0.00  0.00    -0.061 A 
HETATM   14  C   UNK N   1      36.674  12.466   4.150  0.00  0.00     0.048 C 
HETATM   15  C   UNK N   1      37.074  13.081   6.532  0.00  0.00     0.009 A 
HETATM   16  C   UNK N   1      36.620  13.595   7.740  0.00  0.00     0.035 A 
HETATM   17  C   UNK N   1      35.298  14.053   7.921  0.00  0.00     0.090 A 
BRANCH  17  18
HETATM   18  N   UNK N   1      34.998  14.584   9.248  0.00  0.00    -0.197 N 
HETATM   19  N   UNK N   1      34.303  14.009  10.211  0.00  0.00    -0.289 N 
HETATM   20  C   UNK N   1      34.257  14.854  11.254  0.00  0.00     0.127 A 
ATOM     21  HN  UNK N   1      33.875  13.084  10.171  1.00  0.00     0.188 HD
HETATM   22  C   UNK N   1      34.954  15.985  10.884  0.00  0.00     0.127 A 
HETATM   23  N   UNK N   1      35.398  15.786   9.629  0.00  0.00    -0.289 N 
ATOM     24  HN  UNK N   1      35.946  16.443   9.072  1.00  0.00     0.188 HD
ENDBRANCH  17  18
ENDBRANCH   7  11
BRANCH   8  25
HETATM   25  C   UNK N   1      29.213  17.226   4.205  0.00  0.00     0.227 A 
HETATM   26  N   UNK N   1      28.057  16.889   3.592  0.00  0.00    -0.320 N 
HETATM   27  C   UNK N   1      27.257  17.916   3.884  0.00  0.00     0.071 A 
ATOM     28  HN  UNK N   1      27.847  16.056   3.043  1.00  0.00     0.169 HD
HETATM   29  C   UNK N   1      25.917  18.048   3.580  0.00  0.00     0.056 A 
HETATM   30  C   UNK N   1      27.932  18.829   4.637  0.00  0.00     0.106 A 
HETATM   31  C   UNK N   1      25.252  19.171   4.093  0.00  0.00     0.036 A 
HETATM   32  C   UNK N   1      25.949  20.129   4.875  0.00  0.00     0.026 A 
HETATM   33 Cl   UNK N   1      23.534  19.330   3.830  0.00  0.00    -0.084 Cl
HETATM   34  C   UNK N   1      27.322  19.965   5.149  0.00  0.00     0.041 A 
HETATM   35  O   UNK N   1      29.146  18.396   4.818  0.00  0.00    -0.277 OA
ENDBRANCH   8  25
TORSDOF 3
ENDMDL
