MODEL 1
REMARK VINA RESULT:      -6.1      0.000      0.000
REMARK  4 active torsions:
REMARK  status: ('A' for Active; 'I' for Inactive)
REMARK    1  A    between atoms: C_5  and  C_10 
REMARK    2  A    between atoms: C_11  and  C_12 
REMARK    3  A    between atoms: C_12  and  C_13 
REMARK    4  A    between atoms: C_12  and  O_14 
ROOT
HETATM    1  C   UNK N   1      35.124  16.792  10.090  0.00  0.00     0.105 A 
HETATM    2  C   UNK N   1      34.381  15.959   9.349  0.00  0.00     0.105 A 
HETATM    3  C   UNK N   1      34.111  14.653   9.735  0.00  0.00     0.040 A 
HETATM    4  C   UNK N   1      34.660  14.211  10.950  0.00  0.00     0.014 A 
HETATM    5  C   UNK N   1      35.440  15.080  11.746  0.00  0.00    -0.034 A 
HETATM    6  C   UNK N   1      35.681  16.405  11.314  0.00  0.00     0.051 A 
HETATM    7  O   UNK N   1      35.221  17.963   9.468  0.00  0.00    -0.323 OA
HETATM    8  C   UNK N   1      34.505  17.886   8.266  0.00  0.00     0.352 A 
HETATM    9  O   UNK N   1      33.989  16.588   8.243  0.00  0.00    -0.323 OA
ENDROOT
BRANCH   5  10
HETATM   10  C   UNK N   1      36.001  14.541  12.989  0.00  0.00     0.010 C 
HETATM   11  C   UNK N   1      36.083  13.248  13.306  0.00  0.00     0.006 C 
BRANCH  11  12
HETATM   12  C   UNK N   1      36.615  12.862  14.661  0.00  0.00     0.148 C 
BRANCH  12  13
HETATM   13  C   UNK N   1      35.650  12.271  15.734  0.00  0.00    -0.022 C 
HETATM   14  C   UNK N   1      36.338  11.070  16.349  0.00  0.00     0.017 C 
HETATM   15  C   UNK N   1      34.311  11.801  15.184  0.00  0.00     0.017 C 
HETATM   16  C   UNK N   1      35.350  13.261  16.847  0.00  0.00     0.017 C 
ENDBRANCH  12  13
BRANCH  12  17
HETATM   17  O   UNK N   1      37.478  13.837  15.172  0.00  0.00    -0.391 OA
HETATM   18  H   UNK N   1      37.218  14.772  15.183  0.00  0.00     0.210 HD
ENDBRANCH  12  17
ENDBRANCH  11  12
ENDBRANCH   5  10
TORSDOF 4
ENDMDL
MODEL 2
REMARK VINA RESULT:      -6.0     17.370     21.242
REMARK  4 active torsions:
REMARK  status: ('A' for Active; 'I' for Inactive)
REMARK    1  A    between atoms: C_5  and  C_10 
REMARK    2  A    between atoms: C_11  and  C_12 
REMARK    3  A    between atoms: C_12  and  C_13 
REMARK    4  A    between atoms: C_12  and  O_14 
ROOT
HETATM    1  C   UNK N   1      31.332  22.350  -4.074  0.00  0.00     0.105 A 
HETATM    2  C   UNK N   1      31.205  22.289  -2.741  0.00  0.00     0.105 A 
HETATM    3  C   UNK N   1      30.146  22.875  -2.063  0.00  0.00     0.040 A 
HETATM    4  C   UNK N   1      29.189  23.561  -2.828  0.00  0.00     0.014 A 
HETATM    5  C   UNK N   1      29.305  23.629  -4.234  0.00  0.00    -0.034 A 
HETATM    6  C   UNK N   1      30.399  23.008  -4.881  0.00  0.00     0.051 A 
HETATM    7  O   UNK N   1      32.442  21.713  -4.437  0.00  0.00    -0.323 OA
HETATM    8  C   UNK N   1      33.064  21.215  -3.285  0.00  0.00     0.352 A 
HETATM    9  O   UNK N   1      32.232  21.608  -2.234  0.00  0.00    -0.323 OA
ENDROOT
BRANCH   5  10
HETATM   10  C   UNK N   1      28.282  24.384  -4.964  0.00  0.00     0.010 C 
HETATM   11  C   UNK N   1      27.112  24.787  -4.464  0.00  0.00     0.006 C 
BRANCH  11  12
HETATM   12  C   UNK N   1      26.135  25.488  -5.372  0.00  0.00     0.148 C 
BRANCH  12  13
HETATM   13  C   UNK N   1      25.853  27.009  -5.181  0.00  0.00    -0.022 C 
HETATM   14  C   UNK N   1      24.456  27.279  -5.699  0.00  0.00     0.017 C 
HETATM   15  C   UNK N   1      26.807  27.926  -5.933  0.00  0.00     0.017 C 
HETATM   16  C   UNK N   1      25.899  27.424  -3.719  0.00  0.00     0.017 C 
ENDBRANCH  12  13
BRANCH  12  17
HETATM   17  O   UNK N   1      24.975  24.730  -5.562  0.00  0.00    -0.391 OA
HETATM   18  H   UNK N   1      24.099  25.147  -5.528  0.00  0.00     0.210 HD
ENDBRANCH  12  17
ENDBRANCH  11  12
ENDBRANCH   5  10
TORSDOF 4
ENDMDL
MODEL 3
REMARK VINA RESULT:      -5.9     17.012     21.021
REMARK  4 active torsions:
REMARK  status: ('A' for Active; 'I' for Inactive)
REMARK    1  A    between atoms: C_5  and  C_10 
REMARK    2  A    between atoms: C_11  and  C_12 
REMARK    3  A    between atoms: C_12  and  C_13 
REMARK    4  A    between atoms: C_12  and  O_14 
ROOT
HETATM    1  C   UNK N   1      31.168  22.298  -2.996  0.00  0.00     0.105 A 
HETATM    2  C   UNK N   1      31.395  21.757  -4.201  0.00  0.00     0.105 A 
HETATM    3  C   UNK N   1      30.560  21.975  -5.288  0.00  0.00     0.040 A 
HETATM    4  C   UNK N   1      29.435  22.791  -5.086  0.00  0.00     0.014 A 
HETATM    5  C   UNK N   1      29.186  23.373  -3.822  0.00  0.00    -0.034 A 
HETATM    6  C   UNK N   1      30.071  23.128  -2.747  0.00  0.00     0.051 A 
HETATM    7  O   UNK N   1      32.121  21.906  -2.155  0.00  0.00    -0.323 OA
HETATM    8  C   UNK N   1      33.008  21.072  -2.848  0.00  0.00     0.352 A 
HETATM    9  O   UNK N   1      32.499  21.014  -4.148  0.00  0.00    -0.323 OA
ENDROOT
BRANCH   5  10
HETATM   10  C   UNK N   1      27.978  24.193  -3.680  0.00  0.00     0.010 C 
HETATM   11  C   UNK N   1      27.670  25.256  -4.425  0.00  0.00     0.006 C 
BRANCH  11  12
HETATM   12  C   UNK N   1      26.425  26.038  -4.097  0.00  0.00     0.148 C 
BRANCH  12  13
HETATM   13  C   UNK N   1      26.065  27.307  -4.931  0.00  0.00    -0.022 C 
HETATM   14  C   UNK N   1      24.771  27.014  -5.663  0.00  0.00     0.017 C 
HETATM   15  C   UNK N   1      27.105  27.691  -5.973  0.00  0.00     0.017 C 
HETATM   16  C   UNK N   1      25.842  28.528  -4.054  0.00  0.00     0.017 C 
ENDBRANCH  12  13
BRANCH  12  17
HETATM   17  O   UNK N   1      26.282  26.224  -2.719  0.00  0.00    -0.391 OA
HETATM   18  H   UNK N   1      26.147  25.466  -2.128  0.00  0.00     0.210 HD
ENDBRANCH  12  17
ENDBRANCH  11  12
ENDBRANCH   5  10
TORSDOF 4
ENDMDL
MODEL 4
REMARK VINA RESULT:      -5.8     22.655     24.086
REMARK  4 active torsions:
REMARK  status: ('A' for Active; 'I' for Inactive)
REMARK    1  A    between atoms: C_5  and  C_10 
REMARK    2  A    between atoms: C_11  and  C_12 
REMARK    3  A    between atoms: C_12  and  C_13 
REMARK    4  A    between atoms: C_12  and  O_14 
ROOT
HETATM    1  C   UNK N   1      25.651  23.035  -7.163  0.00  0.00     0.105 A 
HETATM    2  C   UNK N   1      25.579  23.500  -8.417  0.00  0.00     0.105 A 
HETATM    3  C   UNK N   1      25.614  24.854  -8.716  0.00  0.00     0.040 A 
HETATM    4  C   UNK N   1      25.718  25.751  -7.641  0.00  0.00     0.014 A 
HETATM    5  C   UNK N   1      25.801  25.276  -6.313  0.00  0.00    -0.034 A 
HETATM    6  C   UNK N   1      25.769  23.885  -6.059  0.00  0.00     0.051 A 
HETATM    7  O   UNK N   1      25.582  21.707  -7.184  0.00  0.00    -0.323 OA
HETATM    8  C   UNK N   1      25.462  21.290  -8.517  0.00  0.00     0.352 A 
HETATM    9  O   UNK N   1      25.468  22.474  -9.260  0.00  0.00    -0.323 OA
ENDROOT
BRANCH   5  10
HETATM   10  C   UNK N   1      25.882  26.272  -5.240  0.00  0.00     0.010 C 
HETATM   11  C   UNK N   1      25.485  27.543  -5.329  0.00  0.00     0.006 C 
BRANCH  11  12
HETATM   12  C   UNK N   1      25.711  28.461  -4.157  0.00  0.00     0.148 C 
BRANCH  12  13
HETATM   13  C   UNK N   1      26.952  29.405  -4.140  0.00  0.00    -0.022 C 
HETATM   14  C   UNK N   1      26.458  30.795  -3.796  0.00  0.00     0.017 C 
HETATM   15  C   UNK N   1      27.692  29.497  -5.467  0.00  0.00     0.017 C 
HETATM   16  C   UNK N   1      27.973  28.997  -3.090  0.00  0.00     0.017 C 
ENDBRANCH  12  13
BRANCH  12  17
HETATM   17  O   UNK N   1      25.500  27.805  -2.941  0.00  0.00    -0.391 OA
HETATM   18  H   UNK N   1      24.906  28.179  -2.271  0.00  0.00     0.210 HD
ENDBRANCH  12  17
ENDBRANCH  11  12
ENDBRANCH   5  10
TORSDOF 4
ENDMDL
MODEL 5
REMARK VINA RESULT:      -5.5      3.319      5.500
REMARK  4 active torsions:
REMARK  status: ('A' for Active; 'I' for Inactive)
REMARK    1  A    between atoms: C_5  and  C_10 
REMARK    2  A    between atoms: C_11  and  C_12 
REMARK    3  A    between atoms: C_12  and  C_13 
REMARK    4  A    between atoms: C_12  and  O_14 
ROOT
HETATM    1  C   UNK N   1      35.805  13.580  14.218  0.00  0.00     0.105 A 
HETATM    2  C   UNK N   1      35.056  12.681  13.567  0.00  0.00     0.105 A 
HETATM    3  C   UNK N   1      34.315  11.708  14.222  0.00  0.00     0.040 A 
HETATM    4  C   UNK N   1      34.381  11.681  15.625  0.00  0.00     0.014 A 
HETATM    5  C   UNK N   1      35.162  12.627  16.327  0.00  0.00    -0.034 A 
HETATM    6  C   UNK N   1      35.893  13.605  15.614  0.00  0.00     0.051 A 
HETATM    7  O   UNK N   1      36.405  14.373  13.335  0.00  0.00    -0.323 OA
HETATM    8  C   UNK N   1      36.025  13.968  12.048  0.00  0.00     0.352 A 
HETATM    9  O   UNK N   1      35.163  12.889  12.255  0.00  0.00    -0.323 OA
ENDROOT
BRANCH   5  10
HETATM   10  C   UNK N   1      35.202  12.522  17.789  0.00  0.00     0.010 C 
HETATM   11  C   UNK N   1      35.480  11.415  18.480  0.00  0.00     0.006 C 
BRANCH  11  12
HETATM   12  C   UNK N   1      35.402  11.455  19.984  0.00  0.00     0.148 C 
BRANCH  12  13
HETATM   13  C   UNK N   1      34.719  10.285  20.756  0.00  0.00    -0.022 C 
HETATM   14  C   UNK N   1      34.221   9.294  19.725  0.00  0.00     0.017 C 
HETATM   15  C   UNK N   1      33.528  10.701  21.606  0.00  0.00     0.017 C 
HETATM   16  C   UNK N   1      35.689   9.558  21.675  0.00  0.00     0.017 C 
ENDBRANCH  12  13
BRANCH  12  17
HETATM   17  O   UNK N   1      35.020  12.719  20.445  0.00  0.00    -0.391 OA
HETATM   18  H   UNK N   1      35.517  13.511  20.188  0.00  0.00     0.210 HD
ENDBRANCH  12  17
ENDBRANCH  11  12
ENDBRANCH   5  10
TORSDOF 4
ENDMDL
MODEL 6
REMARK VINA RESULT:      -5.5      1.160      2.044
REMARK  4 active torsions:
REMARK  status: ('A' for Active; 'I' for Inactive)
REMARK    1  A    between atoms: C_5  and  C_10 
REMARK    2  A    between atoms: C_11  and  C_12 
REMARK    3  A    between atoms: C_12  and  C_13 
REMARK    4  A    between atoms: C_12  and  O_14 
ROOT
HETATM    1  C   UNK N   1      35.394  14.683   8.917  0.00  0.00     0.105 A 
HETATM    2  C   UNK N   1      35.004  15.959   9.036  0.00  0.00     0.105 A 
HETATM    3  C   UNK N   1      35.061  16.650  10.238  0.00  0.00     0.040 A 
HETATM    4  C   UNK N   1      35.543  15.956  11.360  0.00  0.00     0.014 A 
HETATM    5  C   UNK N   1      35.965  14.612  11.249  0.00  0.00    -0.034 A 
HETATM    6  C   UNK N   1      35.894  13.953  10.000  0.00  0.00     0.051 A 
HETATM    7  O   UNK N   1      35.214  14.286   7.661  0.00  0.00    -0.323 OA
HETATM    8  C   UNK N   1      34.682  15.356   6.930  0.00  0.00     0.352 A 
HETATM    9  O   UNK N   1      34.572  16.398   7.855  0.00  0.00    -0.323 OA
ENDROOT
BRANCH   5  10
HETATM   10  C   UNK N   1      36.432  13.945  12.469  0.00  0.00     0.010 C 
HETATM   11  C   UNK N   1      35.894  14.081  13.682  0.00  0.00     0.006 C 
BRANCH  11  12
HETATM   12  C   UNK N   1      36.544  13.385  14.849  0.00  0.00     0.148 C 
BRANCH  12  13
HETATM   13  C   UNK N   1      35.662  12.629  15.890  0.00  0.00    -0.022 C 
HETATM   14  C   UNK N   1      34.356  12.281  15.206  0.00  0.00     0.017 C 
HETATM   15  C   UNK N   1      35.327  13.435  17.136  0.00  0.00     0.017 C 
HETATM   16  C   UNK N   1      36.306  11.334  16.358  0.00  0.00     0.017 C 
ENDBRANCH  12  13
BRANCH  12  17
HETATM   17  O   UNK N   1      37.532  14.181  15.437  0.00  0.00    -0.391 OA
HETATM   18  H   UNK N   1      38.056  13.851  16.184  0.00  0.00     0.210 HD
ENDBRANCH  12  17
ENDBRANCH  11  12
ENDBRANCH   5  10
TORSDOF 4
ENDMDL
MODEL 7
REMARK VINA RESULT:      -5.4      4.472      7.684
REMARK  4 active torsions:
REMARK  status: ('A' for Active; 'I' for Inactive)
REMARK    1  A    between atoms: C_5  and  C_10 
REMARK    2  A    between atoms: C_11  and  C_12 
REMARK    3  A    between atoms: C_12  and  C_13 
REMARK    4  A    between atoms: C_12  and  O_14 
ROOT
HETATM    1  C   UNK N   1      36.193  11.737  15.882  0.00  0.00     0.105 A 
HETATM    2  C   UNK N   1      35.900  13.033  16.060  0.00  0.00     0.105 A 
HETATM    3  C   UNK N   1      35.359  13.522  17.240  0.00  0.00     0.040 A 
HETATM    4  C   UNK N   1      35.110  12.599  18.269  0.00  0.00     0.014 A 
HETATM    5  C   UNK N   1      35.420  11.231  18.099  0.00  0.00    -0.034 A 
HETATM    6  C   UNK N   1      35.977  10.782  16.880  0.00  0.00     0.051 A 
HETATM    7  O   UNK N   1      36.683  11.563  14.658  0.00  0.00    -0.323 OA
HETATM    8  C   UNK N   1      36.710  12.806  14.011  0.00  0.00     0.352 A 
HETATM    9  O   UNK N   1      36.203  13.707  14.952  0.00  0.00    -0.323 OA
ENDROOT
BRANCH   5  10
HETATM   10  C   UNK N   1      35.108  10.323  19.207  0.00  0.00     0.010 C 
HETATM   11  C   UNK N   1      34.088   9.464  19.243  0.00  0.00     0.006 C 
BRANCH  11  12
HETATM   12  C   UNK N   1      33.860   8.655  20.494  0.00  0.00     0.148 C 
BRANCH  12  13
HETATM   13  C   UNK N   1      32.465   8.683  21.191  0.00  0.00    -0.022 C 
HETATM   14  C   UNK N   1      32.350  10.006  21.920  0.00  0.00     0.017 C 
HETATM   15  C   UNK N   1      32.250   7.576  22.213  0.00  0.00     0.017 C 
HETATM   16  C   UNK N   1      31.321   8.595  20.194  0.00  0.00     0.017 C 
ENDBRANCH  12  13
BRANCH  12  17
HETATM   17  O   UNK N   1      34.927   8.779  21.388  0.00  0.00    -0.391 OA
HETATM   18  H   UNK N   1      35.502   9.561  21.370  0.00  0.00     0.210 HD
ENDBRANCH  12  17
ENDBRANCH  11  12
ENDBRANCH   5  10
TORSDOF 4
ENDMDL
MODEL 8
REMARK VINA RESULT:      -5.4      4.659      9.180
REMARK  4 active torsions:
REMARK  status: ('A' for Active; 'I' for Inactive)
REMARK    1  A    between atoms: C_5  and  C_10 
REMARK    2  A    between atoms: C_11  and  C_12 
REMARK    3  A    between atoms: C_12  and  C_13 
REMARK    4  A    between atoms: C_12  and  O_14 
ROOT
HETATM    1  C   UNK N   1      33.709  16.117   9.576  0.00  0.00     0.105 A 
HETATM    2  C   UNK N   1      34.504  17.142   9.241  0.00  0.00     0.105 A 
HETATM    3  C   UNK N   1      34.127  18.112   8.323  0.00  0.00     0.040 A 
HETATM    4  C   UNK N   1      32.860  17.983   7.730  0.00  0.00     0.014 A 
HETATM    5  C   UNK N   1      32.008  16.911   8.078  0.00  0.00    -0.034 A 
HETATM    6  C   UNK N   1      32.435  15.952   9.025  0.00  0.00     0.051 A 
HETATM    7  O   UNK N   1      34.336  15.349  10.462  0.00  0.00    -0.323 OA
HETATM    8  C   UNK N   1      35.599  15.903  10.714  0.00  0.00     0.352 A 
HETATM    9  O   UNK N   1      35.651  17.046   9.912  0.00  0.00    -0.323 OA
ENDROOT
BRANCH   5  10
HETATM   10  C   UNK N   1      30.711  16.827   7.399  0.00  0.00     0.010 C 
HETATM   11  C   UNK N   1      29.615  17.511   7.733  0.00  0.00     0.006 C 
BRANCH  11  12
HETATM   12  C   UNK N   1      28.337  17.250   6.980  0.00  0.00     0.148 C 
BRANCH  12  13
HETATM   13  C   UNK N   1      27.864  18.255   5.884  0.00  0.00    -0.022 C 
HETATM   14  C   UNK N   1      27.734  19.613   6.543  0.00  0.00     0.017 C 
HETATM   15  C   UNK N   1      26.519  17.918   5.258  0.00  0.00     0.017 C 
HETATM   16  C   UNK N   1      28.865  18.379   4.747  0.00  0.00     0.017 C 
ENDBRANCH  12  13
BRANCH  12  17
HETATM   17  O   UNK N   1      27.309  16.843   7.836  0.00  0.00    -0.391 OA
HETATM   18  H   UNK N   1      26.469  16.514   7.480  0.00  0.00     0.210 HD
ENDBRANCH  12  17
ENDBRANCH  11  12
ENDBRANCH   5  10
TORSDOF 4
ENDMDL
MODEL 9
REMARK VINA RESULT:      -5.3      2.505      7.532
REMARK  4 active torsions:
REMARK  status: ('A' for Active; 'I' for Inactive)
REMARK    1  A    between atoms: C_5  and  C_10 
REMARK    2  A    between atoms: C_11  and  C_12 
REMARK    3  A    between atoms: C_12  and  C_13 
REMARK    4  A    between atoms: C_12  and  O_14 
ROOT
HETATM    1  C   UNK N   1      35.109  12.702  17.742  0.00  0.00     0.105 A 
HETATM    2  C   UNK N   1      35.192  11.411  18.088  0.00  0.00     0.105 A 
HETATM    3  C   UNK N   1      35.131  10.382  17.160  0.00  0.00     0.040 A 
HETATM    4  C   UNK N   1      34.965  10.737  15.811  0.00  0.00     0.014 A 
HETATM    5  C   UNK N   1      34.882  12.095  15.430  0.00  0.00    -0.034 A 
HETATM    6  C   UNK N   1      34.958  13.109  16.413  0.00  0.00     0.051 A 
HETATM    7  O   UNK N   1      35.187  13.455  18.836  0.00  0.00    -0.323 OA
HETATM    8  C   UNK N   1      35.327  12.610  19.945  0.00  0.00     0.352 A 
HETATM    9  O   UNK N   1      35.328  11.319  19.410  0.00  0.00    -0.323 OA
ENDROOT
BRANCH   5  10
HETATM   10  C   UNK N   1      34.683  12.389  14.007  0.00  0.00     0.010 C 
HETATM   11  C   UNK N   1      35.464  13.171  13.259  0.00  0.00     0.006 C 
BRANCH  11  12
HETATM   12  C   UNK N   1      35.075  13.434  11.828  0.00  0.00     0.148 C 
BRANCH  12  13
HETATM   13  C   UNK N   1      36.183  13.655  10.752  0.00  0.00    -0.022 C 
HETATM   14  C   UNK N   1      37.481  13.126  11.326  0.00  0.00     0.017 C 
HETATM   15  C   UNK N   1      36.409  15.111  10.371  0.00  0.00     0.017 C 
HETATM   16  C   UNK N   1      35.895  12.898   9.465  0.00  0.00     0.017 C 
ENDBRANCH  12  13
BRANCH  12  17
HETATM   17  O   UNK N   1      34.028  14.356  11.741  0.00  0.00    -0.391 OA
HETATM   18  H   UNK N   1      33.458  14.387  10.956  0.00  0.00     0.210 HD
ENDBRANCH  12  17
ENDBRANCH  11  12
ENDBRANCH   5  10
TORSDOF 4
ENDMDL
