MODEL 1
REMARK VINA RESULT:      -6.2      0.000      0.000
REMARK  10 active torsions:
REMARK  status: ('A' for Active; 'I' for Inactive)
REMARK    1  A    between atoms: O_2  and  C_17 
REMARK    2  A    between atoms: O_2  and  C_18 
REMARK    3  A    between atoms: O_4  and  C_28 
REMARK    4  A    between atoms: O_5  and  C_30 
REMARK    5  A    between atoms: N_6  and  C_19 
REMARK    6  A    between atoms: N_6  and  C_22 
REMARK    7  A    between atoms: C_11  and  C_16 
REMARK    8  A    between atoms: C_16  and  C_17 
REMARK    9  A    between atoms: C_18  and  C_19 
REMARK   10  A    between atoms: C_22  and  C_25 
ROOT
HETATM    1  O   UNK N   1      26.316  29.698  -3.253  0.00  0.00    -0.388 OA
HETATM    2  N   UNK N   1      27.577  27.896  -4.702  0.00  0.00    -0.057 N 
HETATM    3  C   UNK N   1      27.380  29.200  -5.367  0.00  0.00     0.264 C 
HETATM    4  C   UNK N   1      28.108  28.062  -3.334  0.00  0.00     0.264 C 
HETATM    5  C   UNK N   1      26.820  30.280  -4.424  0.00  0.00     0.195 C 
HETATM    6  C   UNK N   1      27.439  29.215  -2.562  0.00  0.00     0.195 C 
ENDROOT
BRANCH   2   7
HETATM    7  C   UNK N   1      28.591  27.155  -5.459  0.00  0.00     0.264 C 
BRANCH   7   8
HETATM    8  C   UNK N   1      29.962  27.119  -4.775  0.00  0.00     0.195 C 
BRANCH   8   9
HETATM    9  O   UNK N   1      30.943  26.859  -5.739  0.00  0.00    -0.389 OA
BRANCH   9  10
HETATM   10  C   UNK N   1      31.890  26.061  -5.096  0.00  0.00     0.168 C 
BRANCH  10  11
HETATM   11  C   UNK N   1      31.638  24.599  -5.424  0.00  0.00     0.031 C 
BRANCH  11  12
HETATM   12  C   UNK N   1      31.920  23.746  -4.202  0.00  0.00    -0.008 C 
HETATM   13  C   UNK N   1      32.200  22.276  -4.605  0.00  0.00    -0.002 C 
HETATM   14  C   UNK N   1      30.895  21.506  -4.830  0.00  0.00    -0.040 C 
HETATM   15  C   UNK N   1      32.336  21.530  -3.276  0.00  0.00     0.011 C 
HETATM   16  C   UNK N   1      30.822  21.305  -3.312  0.00  0.00    -0.006 C 
HETATM   17  C   UNK N   1      31.179  20.185  -5.538  0.00  0.00     0.015 C 
HETATM   18  C   UNK N   1      29.723  22.207  -5.520  0.00  0.00     0.015 C 
HETATM   19  C   UNK N   1      30.224  22.554  -2.619  0.00  0.00     0.006 C 
HETATM   20  C   UNK N   1      30.757  23.897  -3.188  0.00  0.00     0.005 C 
ENDBRANCH  11  12
ENDBRANCH  10  11
ENDBRANCH   9  10
ENDBRANCH   8   9
ENDBRANCH   7   8
ENDBRANCH   2   7
BRANCH   2  21
HETATM   21  C   UNK N   1      26.286  27.174  -4.671  0.00  0.00     0.277 C 
BRANCH  21  22
HETATM   22  C   UNK N   1      26.188  25.984  -5.603  0.00  0.00    -0.012 A 
HETATM   23  C   UNK N   1      25.803  26.163  -6.938  0.00  0.00     0.049 A 
HETATM   24  C   UNK N   1      25.677  25.070  -7.812  0.00  0.00     0.102 A 
HETATM   25  C   UNK N   1      25.934  23.778  -7.333  0.00  0.00     0.102 A 
HETATM   26  C   UNK N   1      26.316  23.596  -5.994  0.00  0.00     0.059 A 
HETATM   27  C   UNK N   1      26.441  24.686  -5.131  0.00  0.00     0.021 A 
HETATM   28 Br   UNK N   1      26.948  24.364  -3.314  0.00  0.00    -0.050 Br
BRANCH  24  29
HETATM   29  O   UNK N   1      25.307  25.239  -9.105  0.00  0.00    -0.353 OA
HETATM   30  C   UNK N   1      26.156  25.707 -10.082  0.00  0.00     0.210 C 
ENDBRANCH  24  29
BRANCH  25  31
HETATM   31  O   UNK N   1      25.803  22.723  -8.177  0.00  0.00    -0.353 OA
HETATM   32  C   UNK N   1      25.214  21.533  -7.811  0.00  0.00     0.210 C 
ENDBRANCH  25  31
ENDBRANCH  21  22
ENDBRANCH   2  21
TORSDOF 10
ENDMDL
MODEL 2
REMARK VINA RESULT:      -5.9     19.923     23.853
REMARK  10 active torsions:
REMARK  status: ('A' for Active; 'I' for Inactive)
REMARK    1  A    between atoms: O_2  and  C_17 
REMARK    2  A    between atoms: O_2  and  C_18 
REMARK    3  A    between atoms: O_4  and  C_28 
REMARK    4  A    between atoms: O_5  and  C_30 
REMARK    5  A    between atoms: N_6  and  C_19 
REMARK    6  A    between atoms: N_6  and  C_22 
REMARK    7  A    between atoms: C_11  and  C_16 
REMARK    8  A    between atoms: C_16  and  C_17 
REMARK    9  A    between atoms: C_18  and  C_19 
REMARK   10  A    between atoms: C_22  and  C_25 
ROOT
HETATM    1  O   UNK N   1      37.504  10.193  11.442  0.00  0.00    -0.388 OA
HETATM    2  N   UNK N   1      36.594  12.122  12.989  0.00  0.00    -0.057 N 
HETATM    3  C   UNK N   1      37.509  12.565  11.916  0.00  0.00     0.264 C 
HETATM    4  C   UNK N   1      35.555  11.212  12.469  0.00  0.00     0.264 C 
HETATM    5  C   UNK N   1      37.860  11.445  10.921  0.00  0.00     0.195 C 
HETATM    6  C   UNK N   1      36.100  10.182  11.463  0.00  0.00     0.195 C 
ENDROOT
BRANCH   2   7
HETATM    7  C   UNK N   1      35.899  13.306  13.502  0.00  0.00     0.264 C 
BRANCH   7   8
HETATM    8  C   UNK N   1      35.689  14.398  12.447  0.00  0.00     0.195 C 
BRANCH   8   9
HETATM    9  O   UNK N   1      34.407  14.261  11.902  0.00  0.00    -0.389 OA
BRANCH   9  10
HETATM   10  C   UNK N   1      34.273  15.317  11.000  0.00  0.00     0.168 C 
BRANCH  10  11
HETATM   11  C   UNK N   1      34.536  14.825   9.588  0.00  0.00     0.031 C 
BRANCH  11  12
HETATM   12  C   UNK N   1      34.874  16.001   8.692  0.00  0.00    -0.008 C 
HETATM   13  C   UNK N   1      33.876  17.167   8.908  0.00  0.00    -0.002 C 
HETATM   14  C   UNK N   1      32.585  16.944   8.113  0.00  0.00    -0.040 C 
HETATM   15  C   UNK N   1      34.266  18.210   7.858  0.00  0.00     0.011 C 
HETATM   16  C   UNK N   1      33.314  17.507   6.888  0.00  0.00    -0.006 C 
HETATM   17  C   UNK N   1      31.503  17.908   8.589  0.00  0.00     0.015 C 
HETATM   18  C   UNK N   1      31.999  15.535   8.018  0.00  0.00     0.015 C 
HETATM   19  C   UNK N   1      34.179  16.415   6.212  0.00  0.00     0.006 C 
HETATM   20  C   UNK N   1      34.953  15.522   7.219  0.00  0.00     0.005 C 
ENDBRANCH  11  12
ENDBRANCH  10  11
ENDBRANCH   9  10
ENDBRANCH   8   9
ENDBRANCH   7   8
ENDBRANCH   2   7
BRANCH   2  21
HETATM   21  C   UNK N   1      37.385  11.454  14.046  0.00  0.00     0.277 C 
BRANCH  21  22
HETATM   22  C   UNK N   1      36.612  11.086  15.295  0.00  0.00    -0.012 A 
HETATM   23  C   UNK N   1      36.175  12.085  16.175  0.00  0.00     0.049 A 
HETATM   24  C   UNK N   1      35.482  11.763  17.355  0.00  0.00     0.102 A 
HETATM   25  C   UNK N   1      35.232  10.417  17.657  0.00  0.00     0.102 A 
HETATM   26  C   UNK N   1      35.674   9.414  16.778  0.00  0.00     0.059 A 
HETATM   27  C   UNK N   1      36.360   9.740  15.607  0.00  0.00     0.021 A 
HETATM   28 Br   UNK N   1      36.948   8.322  14.464  0.00  0.00    -0.050 Br
BRANCH  24  29
HETATM   29  O   UNK N   1      35.055  12.727  18.208  0.00  0.00    -0.353 OA
HETATM   30  C   UNK N   1      35.231  14.073  17.979  0.00  0.00     0.210 C 
ENDBRANCH  24  29
BRANCH  25  31
HETATM   31  O   UNK N   1      34.571  10.109  18.802  0.00  0.00    -0.353 OA
HETATM   32  C   UNK N   1      33.883   8.929  18.981  0.00  0.00     0.210 C 
ENDBRANCH  25  31
ENDBRANCH  21  22
ENDBRANCH   2  21
TORSDOF 10
ENDMDL
MODEL 3
REMARK VINA RESULT:      -5.8      2.663      6.954
REMARK  10 active torsions:
REMARK  status: ('A' for Active; 'I' for Inactive)
REMARK    1  A    between atoms: O_2  and  C_17 
REMARK    2  A    between atoms: O_2  and  C_18 
REMARK    3  A    between atoms: O_4  and  C_28 
REMARK    4  A    between atoms: O_5  and  C_30 
REMARK    5  A    between atoms: N_6  and  C_19 
REMARK    6  A    between atoms: N_6  and  C_22 
REMARK    7  A    between atoms: C_11  and  C_16 
REMARK    8  A    between atoms: C_16  and  C_17 
REMARK    9  A    between atoms: C_18  and  C_19 
REMARK   10  A    between atoms: C_22  and  C_25 
ROOT
HETATM    1  O   UNK N   1      27.512  20.962 -10.052  0.00  0.00    -0.388 OA
HETATM    2  N   UNK N   1      27.684  23.082  -8.498  0.00  0.00    -0.057 N 
HETATM    3  C   UNK N   1      28.881  22.818  -9.322  0.00  0.00     0.264 C 
HETATM    4  C   UNK N   1      26.449  23.011  -9.303  0.00  0.00     0.264 C 
HETATM    5  C   UNK N   1      28.669  21.694 -10.353  0.00  0.00     0.195 C 
HETATM    6  C   UNK N   1      26.441  21.835 -10.298  0.00  0.00     0.195 C 
ENDROOT
BRANCH   2   7
HETATM    7  C   UNK N   1      27.781  24.456  -7.996  0.00  0.00     0.264 C 
BRANCH   7   8
HETATM    8  C   UNK N   1      26.874  25.445  -8.737  0.00  0.00     0.195 C 
BRANCH   8   9
HETATM    9  O   UNK N   1      27.589  26.625  -8.974  0.00  0.00    -0.389 OA
BRANCH   9  10
HETATM   10  C   UNK N   1      28.245  26.906  -7.776  0.00  0.00     0.168 C 
BRANCH  10  11
HETATM   11  C   UNK N   1      27.603  28.110  -7.108  0.00  0.00     0.031 C 
BRANCH  11  12
HETATM   12  C   UNK N   1      27.734  27.988  -5.602  0.00  0.00    -0.008 C 
HETATM   13  C   UNK N   1      27.404  26.549  -5.131  0.00  0.00    -0.002 C 
HETATM   14  C   UNK N   1      25.891  26.342  -5.006  0.00  0.00    -0.040 C 
HETATM   15  C   UNK N   1      27.455  26.620  -3.603  0.00  0.00     0.011 C 
HETATM   16  C   UNK N   1      25.974  27.007  -3.628  0.00  0.00    -0.006 C 
HETATM   17  C   UNK N   1      25.573  24.857  -4.872  0.00  0.00     0.015 C 
HETATM   18  C   UNK N   1      24.962  26.964  -6.051  0.00  0.00     0.015 C 
HETATM   19  C   UNK N   1      25.975  28.551  -3.760  0.00  0.00     0.006 C 
HETATM   20  C   UNK N   1      26.865  29.076  -4.918  0.00  0.00     0.005 C 
ENDBRANCH  11  12
ENDBRANCH  10  11
ENDBRANCH   9  10
ENDBRANCH   8   9
ENDBRANCH   7   8
ENDBRANCH   2   7
BRANCH   2  21
HETATM   21  C   UNK N   1      27.638  22.100  -7.392  0.00  0.00     0.277 C 
BRANCH  21  22
HETATM   22  C   UNK N   1      28.798  22.166  -6.421  0.00  0.00    -0.012 A 
HETATM   23  C   UNK N   1      28.967  23.287  -5.598  0.00  0.00     0.049 A 
HETATM   24  C   UNK N   1      30.053  23.381  -4.710  0.00  0.00     0.102 A 
HETATM   25  C   UNK N   1      30.986  22.337  -4.657  0.00  0.00     0.102 A 
HETATM   26  C   UNK N   1      30.820  21.214  -5.485  0.00  0.00     0.059 A 
HETATM   27  C   UNK N   1      29.738  21.125  -6.363  0.00  0.00     0.021 A 
HETATM   28 Br   UNK N   1      29.585  19.575  -7.475  0.00  0.00    -0.050 Br
BRANCH  24  29
HETATM   29  O   UNK N   1      30.218  24.463  -3.911  0.00  0.00    -0.353 OA
HETATM   30  C   UNK N   1      31.034  25.525  -4.231  0.00  0.00     0.210 C 
ENDBRANCH  24  29
BRANCH  25  31
HETATM   31  O   UNK N   1      32.039  22.434  -3.806  0.00  0.00    -0.353 OA
HETATM   32  C   UNK N   1      32.606  21.347  -3.180  0.00  0.00     0.210 C 
ENDBRANCH  25  31
ENDBRANCH  21  22
ENDBRANCH   2  21
TORSDOF 10
ENDMDL
MODEL 4
REMARK VINA RESULT:      -5.8      2.253      4.926
REMARK  10 active torsions:
REMARK  status: ('A' for Active; 'I' for Inactive)
REMARK    1  A    between atoms: O_2  and  C_17 
REMARK    2  A    between atoms: O_2  and  C_18 
REMARK    3  A    between atoms: O_4  and  C_28 
REMARK    4  A    between atoms: O_5  and  C_30 
REMARK    5  A    between atoms: N_6  and  C_19 
REMARK    6  A    between atoms: N_6  and  C_22 
REMARK    7  A    between atoms: C_11  and  C_16 
REMARK    8  A    between atoms: C_16  and  C_17 
REMARK    9  A    between atoms: C_18  and  C_19 
REMARK   10  A    between atoms: C_22  and  C_25 
ROOT
HETATM    1  O   UNK N   1      25.679  23.412  -7.933  0.00  0.00    -0.388 OA
HETATM    2  N   UNK N   1      26.905  24.647  -5.956  0.00  0.00    -0.057 N 
HETATM    3  C   UNK N   1      25.978  23.576  -5.538  0.00  0.00     0.264 C 
HETATM    4  C   UNK N   1      27.797  24.196  -7.042  0.00  0.00     0.264 C 
HETATM    5  C   UNK N   1      25.435  22.752  -6.720  0.00  0.00     0.195 C 
HETATM    6  C   UNK N   1      27.070  23.361  -8.113  0.00  0.00     0.195 C 
ENDROOT
BRANCH   2   7
HETATM    7  C   UNK N   1      27.764  24.967  -4.812  0.00  0.00     0.264 C 
BRANCH   7   8
HETATM    8  C   UNK N   1      27.190  24.507  -3.467  0.00  0.00     0.195 C 
BRANCH   8   9
HETATM    9  O   UNK N   1      28.109  23.652  -2.850  0.00  0.00    -0.389 OA
BRANCH   9  10
HETATM   10  C   UNK N   1      29.337  23.936  -3.447  0.00  0.00     0.168 C 
BRANCH  10  11
HETATM   11  C   UNK N   1      30.416  23.044  -2.856  0.00  0.00     0.031 C 
BRANCH  11  12
HETATM   12  C   UNK N   1      30.467  21.732  -3.616  0.00  0.00    -0.008 C 
HETATM   13  C   UNK N   1      31.877  21.095  -3.528  0.00  0.00    -0.002 C 
HETATM   14  C   UNK N   1      32.829  21.716  -4.556  0.00  0.00    -0.040 C 
HETATM   15  C   UNK N   1      31.804  19.866  -4.436  0.00  0.00     0.011 C 
HETATM   16  C   UNK N   1      32.227  20.767  -5.598  0.00  0.00    -0.006 C 
HETATM   17  C   UNK N   1      34.270  21.328  -4.239  0.00  0.00     0.015 C 
HETATM   18  C   UNK N   1      32.760  23.220  -4.826  0.00  0.00     0.015 C 
HETATM   19  C   UNK N   1      30.899  21.335  -6.158  0.00  0.00     0.006 C 
HETATM   20  C   UNK N   1      29.982  21.960  -5.072  0.00  0.00     0.005 C 
ENDBRANCH  11  12
ENDBRANCH  10  11
ENDBRANCH   9  10
ENDBRANCH   8   9
ENDBRANCH   7   8
ENDBRANCH   2   7
BRANCH   2  21
HETATM   21  C   UNK N   1      26.116  25.822  -6.388  0.00  0.00     0.277 C 
BRANCH  21  22
HETATM   22  C   UNK N   1      26.895  27.114  -6.513  0.00  0.00    -0.012 A 
HETATM   23  C   UNK N   1      27.779  27.305  -7.583  0.00  0.00     0.049 A 
HETATM   24  C   UNK N   1      28.535  28.484  -7.702  0.00  0.00     0.102 A 
HETATM   25  C   UNK N   1      28.405  29.481  -6.725  0.00  0.00     0.102 A 
HETATM   26  C   UNK N   1      27.523  29.289  -5.648  0.00  0.00     0.059 A 
HETATM   27  C   UNK N   1      26.774  28.116  -5.537  0.00  0.00     0.021 A 
HETATM   28 Br   UNK N   1      25.605  27.914  -4.035  0.00  0.00    -0.050 Br
BRANCH  24  29
HETATM   29  O   UNK N   1      29.388  28.674  -8.737  0.00  0.00    -0.353 OA
HETATM   30  C   UNK N   1      29.258  28.041  -9.953  0.00  0.00     0.210 C 
ENDBRANCH  24  29
BRANCH  25  31
HETATM   31  O   UNK N   1      29.142  30.615  -6.836  0.00  0.00    -0.353 OA
HETATM   32  C   UNK N   1      30.290  30.844  -6.110  0.00  0.00     0.210 C 
ENDBRANCH  25  31
ENDBRANCH  21  22
ENDBRANCH   2  21
TORSDOF 10
ENDMDL
MODEL 5
REMARK VINA RESULT:      -5.8     11.065     14.107
REMARK  10 active torsions:
REMARK  status: ('A' for Active; 'I' for Inactive)
REMARK    1  A    between atoms: O_2  and  C_17 
REMARK    2  A    between atoms: O_2  and  C_18 
REMARK    3  A    between atoms: O_4  and  C_28 
REMARK    4  A    between atoms: O_5  and  C_30 
REMARK    5  A    between atoms: N_6  and  C_19 
REMARK    6  A    between atoms: N_6  and  C_22 
REMARK    7  A    between atoms: C_11  and  C_16 
REMARK    8  A    between atoms: C_16  and  C_17 
REMARK    9  A    between atoms: C_18  and  C_19 
REMARK   10  A    between atoms: C_22  and  C_25 
ROOT
HETATM    1  O   UNK N   1      25.329  12.711   3.667  0.00  0.00    -0.388 OA
HETATM    2  N   UNK N   1      26.818  14.845   3.256  0.00  0.00    -0.057 N 
HETATM    3  C   UNK N   1      27.485  13.756   3.999  0.00  0.00     0.264 C 
HETATM    4  C   UNK N   1      26.133  14.335   2.052  0.00  0.00     0.264 C 
HETATM    5  C   UNK N   1      26.656  12.460   4.046  0.00  0.00     0.195 C 
HETATM    6  C   UNK N   1      25.383  13.012   2.297  0.00  0.00     0.195 C 
ENDROOT
BRANCH   2   7
HETATM    7  C   UNK N   1      27.856  15.770   2.790  0.00  0.00     0.264 C 
BRANCH   7   8
HETATM    8  C   UNK N   1      29.258  15.152   2.759  0.00  0.00     0.195 C 
BRANCH   8   9
HETATM    9  O   UNK N   1      30.207  16.181   2.768  0.00  0.00    -0.389 OA
BRANCH   9  10
HETATM   10  C   UNK N   1      29.875  16.981   3.862  0.00  0.00     0.168 C 
BRANCH  10  11
HETATM   11  C   UNK N   1      31.111  17.233   4.708  0.00  0.00     0.031 C 
BRANCH  11  12
HETATM   12  C   UNK N   1      30.937  16.588   6.070  0.00  0.00    -0.008 C 
HETATM   13  C   UNK N   1      31.600  17.445   7.178  0.00  0.00    -0.002 C 
HETATM   14  C   UNK N   1      33.107  17.180   7.255  0.00  0.00    -0.040 C 
HETATM   15  C   UNK N   1      31.454  16.611   8.453  0.00  0.00     0.011 C 
HETATM   16  C   UNK N   1      32.786  15.944   8.102  0.00  0.00    -0.006 C 
HETATM   17  C   UNK N   1      33.786  18.253   8.101  0.00  0.00     0.015 C 
HETATM   18  C   UNK N   1      33.898  16.982   5.961  0.00  0.00     0.015 C 
HETATM   19  C   UNK N   1      32.398  14.745   7.200  0.00  0.00     0.006 C 
HETATM   20  C   UNK N   1      31.464  15.130   6.021  0.00  0.00     0.005 C 
ENDBRANCH  11  12
ENDBRANCH  10  11
ENDBRANCH   9  10
ENDBRANCH   8   9
ENDBRANCH   7   8
ENDBRANCH   2   7
BRANCH   2  21
HETATM   21  C   UNK N   1      25.854  15.516   4.155  0.00  0.00     0.277 C 
BRANCH  21  22
HETATM   22  C   UNK N   1      26.132  16.981   4.423  0.00  0.00    -0.012 A 
HETATM   23  C   UNK N   1      25.750  17.954   3.490  0.00  0.00     0.049 A 
HETATM   24  C   UNK N   1      26.025  19.316   3.705  0.00  0.00     0.102 A 
HETATM   25  C   UNK N   1      26.701  19.702   4.871  0.00  0.00     0.102 A 
HETATM   26  C   UNK N   1      27.089  18.727   5.805  0.00  0.00     0.059 A 
HETATM   27  C   UNK N   1      26.811  17.376   5.587  0.00  0.00     0.021 A 
HETATM   28 Br   UNK N   1      27.385  16.100   6.892  0.00  0.00    -0.050 Br
BRANCH  24  29
HETATM   29  O   UNK N   1      25.655  20.260   2.806  0.00  0.00    -0.353 OA
HETATM   30  C   UNK N   1      24.367  20.732   2.689  0.00  0.00     0.210 C 
ENDBRANCH  24  29
BRANCH  25  31
HETATM   31  O   UNK N   1      26.974  21.016   5.072  0.00  0.00    -0.353 OA
HETATM   32  C   UNK N   1      26.819  21.641   6.289  0.00  0.00     0.210 C 
ENDBRANCH  25  31
ENDBRANCH  21  22
ENDBRANCH   2  21
TORSDOF 10
ENDMDL
MODEL 6
REMARK VINA RESULT:      -5.7      2.285      5.288
REMARK  10 active torsions:
REMARK  status: ('A' for Active; 'I' for Inactive)
REMARK    1  A    between atoms: O_2  and  C_17 
REMARK    2  A    between atoms: O_2  and  C_18 
REMARK    3  A    between atoms: O_4  and  C_28 
REMARK    4  A    between atoms: O_5  and  C_30 
REMARK    5  A    between atoms: N_6  and  C_19 
REMARK    6  A    between atoms: N_6  and  C_22 
REMARK    7  A    between atoms: C_11  and  C_16 
REMARK    8  A    between atoms: C_16  and  C_17 
REMARK    9  A    between atoms: C_18  and  C_19 
REMARK   10  A    between atoms: C_22  and  C_25 
ROOT
HETATM    1  O   UNK N   1      24.824  22.678  -8.735  0.00  0.00    -0.388 OA
HETATM    2  N   UNK N   1      26.789  23.915  -7.490  0.00  0.00    -0.057 N 
HETATM    3  C   UNK N   1      25.986  23.013  -6.640  0.00  0.00     0.264 C 
HETATM    4  C   UNK N   1      27.181  23.259  -8.753  0.00  0.00     0.264 C 
HETATM    5  C   UNK N   1      24.980  22.165  -7.439  0.00  0.00     0.195 C 
HETATM    6  C   UNK N   1      26.044  22.433  -9.383  0.00  0.00     0.195 C 
ENDROOT
BRANCH   2   7
HETATM    7  C   UNK N   1      28.029  24.222  -6.772  0.00  0.00     0.264 C 
BRANCH   7   8
HETATM    8  C   UNK N   1      28.179  23.454  -5.453  0.00  0.00     0.195 C 
BRANCH   8   9
HETATM    9  O   UNK N   1      28.543  24.353  -4.444  0.00  0.00    -0.389 OA
BRANCH   9  10
HETATM   10  C   UNK N   1      29.040  23.563  -3.407  0.00  0.00     0.168 C 
BRANCH  10  11
HETATM   11  C   UNK N   1      30.548  23.725  -3.315  0.00  0.00     0.031 C 
BRANCH  11  12
HETATM   12  C   UNK N   1      31.188  22.382  -3.019  0.00  0.00    -0.008 C 
HETATM   13  C   UNK N   1      32.681  22.376  -3.434  0.00  0.00    -0.002 C 
HETATM   14  C   UNK N   1      32.836  22.108  -4.935  0.00  0.00    -0.040 C 
HETATM   15  C   UNK N   1      33.144  20.937  -3.195  0.00  0.00     0.011 C 
HETATM   16  C   UNK N   1      32.693  20.614  -4.621  0.00  0.00    -0.006 C 
HETATM   17  C   UNK N   1      34.258  22.432  -5.382  0.00  0.00     0.015 C 
HETATM   18  C   UNK N   1      31.843  22.737  -5.913  0.00  0.00     0.015 C 
HETATM   19  C   UNK N   1      31.201  20.222  -4.481  0.00  0.00     0.006 C 
HETATM   20  C   UNK N   1      30.358  21.255  -3.686  0.00  0.00     0.005 C 
ENDBRANCH  11  12
ENDBRANCH  10  11
ENDBRANCH   9  10
ENDBRANCH   8   9
ENDBRANCH   7   8
ENDBRANCH   2   7
BRANCH   2  21
HETATM   21  C   UNK N   1      26.003  25.139  -7.765  0.00  0.00     0.277 C 
BRANCH  21  22
HETATM   22  C   UNK N   1      26.518  26.400  -7.104  0.00  0.00    -0.012 A 
HETATM   23  C   UNK N   1      26.095  26.743  -5.813  0.00  0.00     0.049 A 
HETATM   24  C   UNK N   1      26.537  27.924  -5.192  0.00  0.00     0.102 A 
HETATM   25  C   UNK N   1      27.411  28.775  -5.884  0.00  0.00     0.102 A 
HETATM   26  C   UNK N   1      27.832  28.435  -7.180  0.00  0.00     0.059 A 
HETATM   27  C   UNK N   1      27.391  27.259  -7.790  0.00  0.00     0.021 A 
HETATM   28 Br   UNK N   1      27.991  26.867  -9.564  0.00  0.00    -0.050 Br
BRANCH  24  29
HETATM   29  O   UNK N   1      26.132  28.259  -3.943  0.00  0.00    -0.353 OA
HETATM   30  C   UNK N   1      25.938  27.339  -2.937  0.00  0.00     0.210 C 
ENDBRANCH  24  29
BRANCH  25  31
HETATM   31  O   UNK N   1      27.829  29.919  -5.286  0.00  0.00    -0.353 OA
HETATM   32  C   UNK N   1      29.098  30.084  -4.776  0.00  0.00     0.210 C 
ENDBRANCH  25  31
ENDBRANCH  21  22
ENDBRANCH   2  21
TORSDOF 10
ENDMDL
MODEL 7
REMARK VINA RESULT:      -5.7     18.064     21.574
REMARK  10 active torsions:
REMARK  status: ('A' for Active; 'I' for Inactive)
REMARK    1  A    between atoms: O_2  and  C_17 
REMARK    2  A    between atoms: O_2  and  C_18 
REMARK    3  A    between atoms: O_4  and  C_28 
REMARK    4  A    between atoms: O_5  and  C_30 
REMARK    5  A    between atoms: N_6  and  C_19 
REMARK    6  A    between atoms: N_6  and  C_22 
REMARK    7  A    between atoms: C_11  and  C_16 
REMARK    8  A    between atoms: C_16  and  C_17 
REMARK    9  A    between atoms: C_18  and  C_19 
REMARK   10  A    between atoms: C_22  and  C_25 
ROOT
HETATM    1  O   UNK N   1      38.653  13.202   8.807  0.00  0.00    -0.388 OA
HETATM    2  N   UNK N   1      36.094  13.101   9.425  0.00  0.00    -0.057 N 
HETATM    3  C   UNK N   1      36.605  11.919   8.702  0.00  0.00     0.264 C 
HETATM    4  C   UNK N   1      36.980  13.472  10.545  0.00  0.00     0.264 C 
HETATM    5  C   UNK N   1      38.136  11.928   8.534  0.00  0.00     0.195 C 
HETATM    6  C   UNK N   1      38.476  13.389  10.187  0.00  0.00     0.195 C 
ENDROOT
BRANCH   2   7
HETATM    7  C   UNK N   1      34.800  12.741  10.012  0.00  0.00     0.264 C 
BRANCH   7   8
HETATM    8  C   UNK N   1      34.912  11.773  11.195  0.00  0.00     0.195 C 
BRANCH   8   9
HETATM    9  O   UNK N   1      33.998  10.729  11.015  0.00  0.00    -0.389 OA
BRANCH   9  10
HETATM   10  C   UNK N   1      33.834  10.159  12.278  0.00  0.00     0.168 C 
BRANCH  10  11
HETATM   11  C   UNK N   1      34.952  10.618  13.199  0.00  0.00     0.031 C 
BRANCH  11  12
HETATM   12  C   UNK N   1      34.364  11.151  14.490  0.00  0.00    -0.008 C 
HETATM   13  C   UNK N   1      34.879  12.583  14.785  0.00  0.00    -0.002 C 
HETATM   14  C   UNK N   1      36.263  12.547  15.442  0.00  0.00    -0.040 C 
HETATM   15  C   UNK N   1      34.306  12.925  16.163  0.00  0.00     0.011 C 
HETATM   16  C   UNK N   1      35.557  12.292  16.778  0.00  0.00    -0.006 C 
HETATM   17  C   UNK N   1      36.891  13.937  15.419  0.00  0.00     0.015 C 
HETATM   18  C   UNK N   1      37.292  11.521  14.964  0.00  0.00     0.015 C 
HETATM   19  C   UNK N   1      35.201  10.793  16.935  0.00  0.00     0.006 C 
HETATM   20  C   UNK N   1      34.642  10.147  15.639  0.00  0.00     0.005 C 
ENDBRANCH  11  12
ENDBRANCH  10  11
ENDBRANCH   9  10
ENDBRANCH   8   9
ENDBRANCH   7   8
ENDBRANCH   2   7
BRANCH   2  21
HETATM   21  C   UNK N   1      35.965  14.226   8.472  0.00  0.00     0.277 C 
BRANCH  21  22
HETATM   22  C   UNK N   1      34.552  14.721   8.244  0.00  0.00    -0.012 A 
HETATM   23  C   UNK N   1      33.722  14.083   7.313  0.00  0.00     0.049 A 
HETATM   24  C   UNK N   1      32.418  14.545   7.065  0.00  0.00     0.102 A 
HETATM   25  C   UNK N   1      31.946  15.669   7.757  0.00  0.00     0.102 A 
HETATM   26  C   UNK N   1      32.779  16.312   8.688  0.00  0.00     0.059 A 
HETATM   27  C   UNK N   1      34.073  15.848   8.932  0.00  0.00     0.021 A 
HETATM   28 Br   UNK N   1      35.159  16.784  10.199  0.00  0.00    -0.050 Br
BRANCH  24  29
HETATM   29  O   UNK N   1      31.611  13.929   6.167  0.00  0.00    -0.353 OA
HETATM   30  C   UNK N   1      31.831  13.953   4.809  0.00  0.00     0.210 C 
ENDBRANCH  24  29
BRANCH  25  31
HETATM   31  O   UNK N   1      30.690  16.118   7.509  0.00  0.00    -0.353 OA
HETATM   32  C   UNK N   1      30.422  17.211   6.715  0.00  0.00     0.210 C 
ENDBRANCH  25  31
ENDBRANCH  21  22
ENDBRANCH   2  21
TORSDOF 10
ENDMDL
MODEL 8
REMARK VINA RESULT:      -5.6     15.618     18.834
REMARK  10 active torsions:
REMARK  status: ('A' for Active; 'I' for Inactive)
REMARK    1  A    between atoms: O_2  and  C_17 
REMARK    2  A    between atoms: O_2  and  C_18 
REMARK    3  A    between atoms: O_4  and  C_28 
REMARK    4  A    between atoms: O_5  and  C_30 
REMARK    5  A    between atoms: N_6  and  C_19 
REMARK    6  A    between atoms: N_6  and  C_22 
REMARK    7  A    between atoms: C_11  and  C_16 
REMARK    8  A    between atoms: C_16  and  C_17 
REMARK    9  A    between atoms: C_18  and  C_19 
REMARK   10  A    between atoms: C_22  and  C_25 
ROOT
HETATM    1  O   UNK N   1      34.003  14.383   4.974  0.00  0.00    -0.388 OA
HETATM    2  N   UNK N   1      33.913  15.734   7.235  0.00  0.00    -0.057 N 
HETATM    3  C   UNK N   1      32.885  14.683   7.098  0.00  0.00     0.264 C 
HETATM    4  C   UNK N   1      35.253  15.227   6.876  0.00  0.00     0.264 C 
HETATM    5  C   UNK N   1      33.091  13.792   5.860  0.00  0.00     0.195 C 
HETATM    6  C   UNK N   1      35.245  14.329   5.625  0.00  0.00     0.195 C 
ENDROOT
BRANCH   2   7
HETATM    7  C   UNK N   1      33.973  16.121   8.647  0.00  0.00     0.264 C 
BRANCH   7   8
HETATM    8  C   UNK N   1      33.894  14.933   9.612  0.00  0.00     0.195 C 
BRANCH   8   9
HETATM    9  O   UNK N   1      35.139  14.766  10.229  0.00  0.00    -0.389 OA
BRANCH   9  10
HETATM   10  C   UNK N   1      35.072  15.515  11.405  0.00  0.00     0.168 C 
BRANCH  10  11
HETATM   11  C   UNK N   1      36.019  14.932  12.440  0.00  0.00     0.031 C 
BRANCH  11  12
HETATM   12  C   UNK N   1      35.822  13.430  12.524  0.00  0.00    -0.008 C 
HETATM   13  C   UNK N   1      34.922  13.056  13.729  0.00  0.00    -0.002 C 
HETATM   14  C   UNK N   1      35.730  13.013  15.030  0.00  0.00    -0.040 C 
HETATM   15  C   UNK N   1      34.924  11.526  13.753  0.00  0.00     0.011 C 
HETATM   16  C   UNK N   1      36.170  11.597  14.640  0.00  0.00    -0.006 C 
HETATM   17  C   UNK N   1      34.791  12.975  16.231  0.00  0.00     0.015 C 
HETATM   18  C   UNK N   1      36.816  14.063  15.271  0.00  0.00     0.015 C 
HETATM   19  C   UNK N   1      37.357  11.644  13.645  0.00  0.00     0.006 C 
HETATM   20  C   UNK N   1      37.205  12.729  12.545  0.00  0.00     0.005 C 
ENDBRANCH  11  12
ENDBRANCH  10  11
ENDBRANCH   9  10
ENDBRANCH   8   9
ENDBRANCH   7   8
ENDBRANCH   2   7
BRANCH   2  21
HETATM   21  C   UNK N   1      33.546  16.878   6.372  0.00  0.00     0.277 C 
BRANCH  21  22
HETATM   22  C   UNK N   1      32.060  17.142   6.247  0.00  0.00    -0.012 A 
HETATM   23  C   UNK N   1      31.266  17.267   7.394  0.00  0.00     0.049 A 
HETATM   24  C   UNK N   1      29.880  17.483   7.301  0.00  0.00     0.102 A 
HETATM   25  C   UNK N   1      29.284  17.565   6.034  0.00  0.00     0.102 A 
HETATM   26  C   UNK N   1      30.078  17.435   4.883  0.00  0.00     0.059 A 
HETATM   27  C   UNK N   1      31.455  17.223   4.982  0.00  0.00     0.021 A 
HETATM   28 Br   UNK N   1      32.472  17.037   3.372  0.00  0.00    -0.050 Br
BRANCH  24  29
HETATM   29  O   UNK N   1      29.109  17.607   8.408  0.00  0.00    -0.353 OA
HETATM   30  C   UNK N   1      29.622  17.691   9.683  0.00  0.00     0.210 C 
ENDBRANCH  24  29
BRANCH  25  31
HETATM   31  O   UNK N   1      27.945  17.764   5.947  0.00  0.00    -0.353 OA
HETATM   32  C   UNK N   1      27.345  18.408   4.887  0.00  0.00     0.210 C 
ENDBRANCH  25  31
ENDBRANCH  21  22
ENDBRANCH   2  21
TORSDOF 10
ENDMDL
MODEL 9
REMARK VINA RESULT:      -5.5      1.949      2.990
REMARK  10 active torsions:
REMARK  status: ('A' for Active; 'I' for Inactive)
REMARK    1  A    between atoms: O_2  and  C_17 
REMARK    2  A    between atoms: O_2  and  C_18 
REMARK    3  A    between atoms: O_4  and  C_28 
REMARK    4  A    between atoms: O_5  and  C_30 
REMARK    5  A    between atoms: N_6  and  C_19 
REMARK    6  A    between atoms: N_6  and  C_22 
REMARK    7  A    between atoms: C_11  and  C_16 
REMARK    8  A    between atoms: C_16  and  C_17 
REMARK    9  A    between atoms: C_18  and  C_19 
REMARK   10  A    between atoms: C_22  and  C_25 
ROOT
HETATM    1  O   UNK N   1      26.023  28.782  -3.284  0.00  0.00    -0.388 OA
HETATM    2  N   UNK N   1      27.438  27.048  -4.673  0.00  0.00    -0.057 N 
HETATM    3  C   UNK N   1      28.224  28.130  -4.047  0.00  0.00     0.264 C 
HETATM    4  C   UNK N   1      26.495  26.440  -3.713  0.00  0.00     0.264 C 
HETATM    5  C   UNK N   1      27.393  29.003  -3.088  0.00  0.00     0.195 C 
HETATM    6  C   UNK N   1      25.785  27.478  -2.823  0.00  0.00     0.195 C 
ENDROOT
BRANCH   2   7
HETATM    7  C   UNK N   1      28.371  25.991  -5.074  0.00  0.00     0.264 C 
BRANCH   7   8
HETATM    8  C   UNK N   1      28.450  24.832  -4.073  0.00  0.00     0.195 C 
BRANCH   8   9
HETATM    9  O   UNK N   1      29.795  24.560  -3.800  0.00  0.00    -0.389 OA
BRANCH   9  10
HETATM   10  C   UNK N   1      29.864  23.179  -3.617  0.00  0.00     0.168 C 
BRANCH  10  11
HETATM   11  C   UNK N   1      31.155  22.818  -2.903  0.00  0.00     0.031 C 
BRANCH  11  12
HETATM   12  C   UNK N   1      31.531  21.384  -3.223  0.00  0.00    -0.008 C 
HETATM   13  C   UNK N   1      33.070  21.223  -3.320  0.00  0.00    -0.002 C 
HETATM   14  C   UNK N   1      33.585  21.655  -4.697  0.00  0.00    -0.040 C 
HETATM   15  C   UNK N   1      33.280  19.775  -3.767  0.00  0.00     0.011 C 
HETATM   16  C   UNK N   1      33.190  20.268  -5.214  0.00  0.00    -0.006 C 
HETATM   17  C   UNK N   1      35.102  21.809  -4.665  0.00  0.00     0.015 C 
HETATM   18  C   UNK N   1      32.969  22.880  -5.375  0.00  0.00     0.015 C 
HETATM   19  C   UNK N   1      31.678  20.216  -5.551  0.00  0.00     0.006 C 
HETATM   20  C   UNK N   1      30.782  20.926  -4.501  0.00  0.00     0.005 C 
ENDBRANCH  11  12
ENDBRANCH  10  11
ENDBRANCH   9  10
ENDBRANCH   8   9
ENDBRANCH   7   8
ENDBRANCH   2   7
BRANCH   2  21
HETATM   21  C   UNK N   1      26.707  27.598  -5.836  0.00  0.00     0.277 C 
BRANCH  21  22
HETATM   22  C   UNK N   1      26.692  26.716  -7.066  0.00  0.00    -0.012 A 
HETATM   23  C   UNK N   1      25.822  25.620  -7.138  0.00  0.00     0.049 A 
HETATM   24  C   UNK N   1      25.812  24.770  -8.259  0.00  0.00     0.102 A 
HETATM   25  C   UNK N   1      26.697  25.023  -9.316  0.00  0.00     0.102 A 
HETATM   26  C   UNK N   1      27.573  26.118  -9.244  0.00  0.00     0.059 A 
HETATM   27  C   UNK N   1      27.576  26.960  -8.130  0.00  0.00     0.021 A 
HETATM   28 Br   UNK N   1      28.809  28.423  -8.090  0.00  0.00    -0.050 Br
BRANCH  24  29
HETATM   29  O   UNK N   1      24.971  23.711  -8.333  0.00  0.00    -0.353 OA
HETATM   30  C   UNK N   1      25.233  22.492  -7.750  0.00  0.00     0.210 C 
ENDBRANCH  24  29
BRANCH  25  31
HETATM   31  O   UNK N   1      26.692  24.196 -10.393  0.00  0.00    -0.353 OA
HETATM   32  C   UNK N   1      27.700  23.296 -10.657  0.00  0.00     0.210 C 
ENDBRANCH  25  31
ENDBRANCH  21  22
ENDBRANCH   2  21
TORSDOF 10
ENDMDL
