REMARK  0 active torsions:
REMARK  status: ('A' for Active; 'I' for Inactive)
ROOT
HETATM    1  O   UNK N   1      25.698 -15.013   0.000  0.00  0.00    -0.411 OA
HETATM    2  H   UNK N   1      26.668 -15.013   0.000  0.00  0.00     0.205 HD
HETATM    3  H   UNK N   1      25.213 -14.173   0.000  0.00  0.00     0.205 HD
ENDROOT
TORSDOF 0
