MODEL 1
REMARK VINA RESULT:      -2.2      0.000      0.000
REMARK  0 active torsions:
REMARK  status: ('A' for Active; 'I' for Inactive)
ROOT
HETATM    1 Cl   UNK N   1      35.186  13.658  18.442  0.00  0.00     0.000 Cl
HETATM    2 Cu   UNK N   1      36.708  15.344  18.508  0.00  0.00     0.000 Cu
HETATM    3 Cl   UNK N   1      37.459  15.745  16.402  0.00  0.00     0.000 Cl
ENDROOT
TORSDOF 0
ENDMDL
MODEL 2
REMARK VINA RESULT:      -2.2      0.069      3.021
REMARK  0 active torsions:
REMARK  status: ('A' for Active; 'I' for Inactive)
ROOT
HETATM    1 Cl   UNK N   1      37.447  15.829  16.404  0.00  0.00     0.000 Cl
HETATM    2 Cu   UNK N   1      36.776  15.338  18.520  0.00  0.00     0.000 Cu
HETATM    3 Cl   UNK N   1      35.202  13.703  18.436  0.00  0.00     0.000 Cl
ENDROOT
TORSDOF 0
ENDMDL
MODEL 3
REMARK VINA RESULT:      -2.1     14.895     15.438
REMARK  0 active torsions:
REMARK  status: ('A' for Active; 'I' for Inactive)
ROOT
HETATM    1 Cl   UNK N   1      23.349  12.016  13.449  0.00  0.00     0.000 Cl
HETATM    2 Cu   UNK N   1      23.156  13.170  11.500  0.00  0.00     0.000 Cu
HETATM    3 Cl   UNK N   1      21.113  12.757  10.597  0.00  0.00     0.000 Cl
ENDROOT
TORSDOF 0
ENDMDL
MODEL 4
REMARK VINA RESULT:      -2.1     15.205     15.384
REMARK  0 active torsions:
REMARK  status: ('A' for Active; 'I' for Inactive)
ROOT
HETATM    1 Cl   UNK N   1      25.271  22.309   8.874  0.00  0.00     0.000 Cl
HETATM    2 Cu   UNK N   1      26.296  20.300   8.591  0.00  0.00     0.000 Cu
HETATM    3 Cl   UNK N   1      27.542  20.367   6.693  0.00  0.00     0.000 Cl
ENDROOT
TORSDOF 0
ENDMDL
MODEL 5
REMARK VINA RESULT:      -2.1     15.416     15.660
REMARK  0 active torsions:
REMARK  status: ('A' for Active; 'I' for Inactive)
ROOT
HETATM    1 Cl   UNK N   1      27.239  20.507   6.484  0.00  0.00     0.000 Cl
HETATM    2 Cu   UNK N   1      26.248  20.383   8.526  0.00  0.00     0.000 Cu
HETATM    3 Cl   UNK N   1      25.240  22.367   8.980  0.00  0.00     0.000 Cl
ENDROOT
TORSDOF 0
ENDMDL
MODEL 6
REMARK VINA RESULT:      -2.1     15.622     16.189
REMARK  0 active torsions:
REMARK  status: ('A' for Active; 'I' for Inactive)
ROOT
HETATM    1 Cl   UNK N   1      20.861  13.005  10.511  0.00  0.00     0.000 Cl
HETATM    2 Cu   UNK N   1      21.818  11.184  11.476  0.00  0.00     0.000 Cu
HETATM    3 Cl   UNK N   1      23.188  11.871  13.153  0.00  0.00     0.000 Cl
ENDROOT
TORSDOF 0
ENDMDL
MODEL 7
REMARK VINA RESULT:      -2.0     14.082     14.223
REMARK  0 active torsions:
REMARK  status: ('A' for Active; 'I' for Inactive)
ROOT
HETATM    1 Cl   UNK N   1      28.152  18.280   9.046  0.00  0.00     0.000 Cl
HETATM    2 Cu   UNK N   1      26.637  19.927   8.649  0.00  0.00     0.000 Cu
HETATM    3 Cl   UNK N   1      27.136  20.928   6.671  0.00  0.00     0.000 Cl
ENDROOT
TORSDOF 0
ENDMDL
MODEL 8
REMARK VINA RESULT:      -2.0     14.078     14.400
REMARK  0 active torsions:
REMARK  status: ('A' for Active; 'I' for Inactive)
ROOT
HETATM    1 Cl   UNK N   1      27.069  20.894   6.699  0.00  0.00     0.000 Cl
HETATM    2 Cu   UNK N   1      26.629  19.911   8.701  0.00  0.00     0.000 Cu
HETATM    3 Cl   UNK N   1      28.129  18.241   9.049  0.00  0.00     0.000 Cl
ENDROOT
TORSDOF 0
ENDMDL
MODEL 9
REMARK VINA RESULT:      -1.9      7.969      8.724
REMARK  0 active torsions:
REMARK  status: ('A' for Active; 'I' for Inactive)
ROOT
HETATM    1 Cl   UNK N   1      32.317  10.198  21.945  0.00  0.00     0.000 Cl
HETATM    2 Cu   UNK N   1      30.636   9.914  20.442  0.00  0.00     0.000 Cu
HETATM    3 Cl   UNK N   1      30.474   7.709  19.922  0.00  0.00     0.000 Cl
ENDROOT
TORSDOF 0
ENDMDL
