REMARK  8 active torsions:
REMARK  status: ('A' for Active; 'I' for Inactive)
REMARK    1  A    between atoms: C_6  and  O_15 
REMARK    2  A    between atoms: N_11  and  C_16 
REMARK    3  A    between atoms: C_13  and  N_19 
REMARK    4  A    between atoms: C_16  and  C_17 
REMARK    5  A    between atoms: N_19  and  S_20 
REMARK    6  A    between atoms: S_20  and  N_21 
REMARK    7  A    between atoms: N_21  and  C_22 
REMARK    8  A    between atoms: N_21  and  C_23 
ROOT
HETATM    1  C   UNK N   1      20.937 -19.532  -0.106  0.00  0.00     0.037 A 
HETATM    2  C   UNK N   1      21.193 -20.878  -0.397  0.00  0.00     0.003 A 
HETATM    3  C   UNK N   1      22.488 -21.296  -0.736  0.00  0.00     0.008 A 
HETATM    4  C   UNK N   1      23.527 -20.361  -0.791  0.00  0.00    -0.047 A 
HETATM    5  C   UNK N   1      23.267 -19.020  -0.476  0.00  0.00    -0.018 A 
HETATM    6  C   UNK N   1      21.976 -18.599  -0.143  0.00  0.00     0.072 A 
HETATM    7  C   UNK N   1      24.957 -20.767  -1.072  0.00  0.00     0.075 C 
HETATM    8  C   UNK N   1      25.793 -20.213   0.106  0.00  0.00     0.231 C 
HETATM    9  C   UNK N   1      25.656 -18.643   0.191  0.00  0.00     0.025 C 
HETATM   10  C   UNK N   1      24.404 -18.065  -0.488  0.00  0.00     0.049 C 
HETATM   11  N   UNK N   1      27.204 -20.705   0.198  0.00  0.00     0.095 N 
HETATM   12  C   UNK N   1      28.224 -19.853  -0.441  0.00  0.00     0.298 C 
HETATM   13  C   UNK N   1      28.069 -18.442   0.092  0.00  0.00     0.122 C 
HETATM   14  C   UNK N   1      26.787 -17.943  -0.505  0.00  0.00     0.034 C 
ENDROOT
BRANCH  13  15
HETATM   15  N   UNK N   1      29.151 -17.520  -0.255  0.00  0.00    -0.300 N 
HETATM   16  H   UNK N   1      29.683 -17.509  -1.125  0.00  0.00     0.173 HD
BRANCH  15  17
HETATM   17  S   UNK N   1      29.365 -16.414   1.143  0.00  0.00     0.299 S 
HETATM   18  O   UNK N   1      28.427 -15.815   0.083  0.00  0.00    -0.188 OA
HETATM   19  O   UNK N   1      29.720 -14.957   0.810  0.00  0.00    -0.188 OA
BRANCH  17  20
HETATM   20  N   UNK N   1      31.038 -16.705   0.491  0.00  0.00    -0.194 NA
BRANCH  20  21
HETATM   21  C   UNK N   1      31.507 -17.950   1.093  0.00  0.00     0.104 C 
HETATM   22  C   UNK N   1      32.079 -18.857   0.022  0.00  0.00     0.022 C 
ENDBRANCH  20  21
BRANCH  20  23
HETATM   23  C   UNK N   1      32.075 -15.730   0.867  0.00  0.00     0.104 C 
HETATM   24  C   UNK N   1      32.338 -14.788  -0.296  0.00  0.00     0.022 C 
ENDBRANCH  20  23
ENDBRANCH  17  20
ENDBRANCH  15  17
ENDBRANCH  13  15
BRANCH  11  25
HETATM   25  C   UNK N   1      27.335 -22.088  -0.268  0.00  0.00     0.272 C 
BRANCH  25  26
HETATM   26  C   UNK N   1      28.444 -22.821   0.472  0.00  0.00     0.026 C 
HETATM   27  C   UNK N   1      29.757 -22.686  -0.274  0.00  0.00     0.007 C 
ENDBRANCH  25  26
ENDBRANCH  11  25
BRANCH   6  28
HETATM   28  O   UNK N   1      21.732 -17.308   0.141  0.00  0.00    -0.360 OA
HETATM   29  H   UNK N   1      22.425 -16.710   0.340  0.00  0.00     0.217 HD
ENDBRANCH   6  28
TORSDOF 8
