MODEL 1
REMARK VINA RESULT:      -7.0      0.000      0.000
REMARK  12 active torsions:
REMARK  status: ('A' for Active; 'I' for Inactive)
REMARK    1  A    between atoms: C_26  and  C_5 
REMARK    2  A    between atoms: C_27  and  C_6 
REMARK    3  A    between atoms: C_28  and  C_20 
REMARK    4  A    between atoms: C_28  and  C_21 
REMARK    5  A    between atoms: O_33  and  C_22 
REMARK    6  A    between atoms: O_34  and  C_23 
REMARK    7  A    between atoms: C_26  and  C_24 
REMARK    8  A    between atoms: O_30  and  C_24 
REMARK    9  A    between atoms: C_27  and  C_25 
REMARK   10  A    between atoms: O_32  and  C_25 
REMARK   11  A    between atoms: O_33  and  C_26 
REMARK   12  A    between atoms: O_34  and  C_27 
ROOT
HETATM    1  C   UNK N   1      26.877  30.223  -4.347  0.00  0.00     0.000 C 
HETATM    2  C   UNK N   1      27.823  29.831  -5.492  0.00  0.00     0.001 C 
HETATM    3  C   UNK N   1      26.422  29.025  -3.496  0.00  0.00     0.001 C 
HETATM    4  C   UNK N   1      28.602  28.573  -5.122  0.00  0.00     0.019 C 
HETATM    5  C   UNK N   1      26.298  27.773  -4.365  0.00  0.00     0.019 C 
HETATM    6  C   UNK N   1      27.664  27.347  -4.968  0.00  0.00     0.014 C 
ENDROOT
BRANCH   6   7
HETATM    7  C   UNK N   1      27.427  26.621  -6.290  0.00  0.00    -0.045 A 
HETATM    8  C   UNK N   1      28.493  26.071  -7.013  0.00  0.00     0.011 A 
HETATM    9  C   UNK N   1      28.254  25.114  -7.999  0.00  0.00     0.037 A 
HETATM   10  C   UNK N   1      26.955  24.665  -8.251  0.00  0.00     0.070 A 
HETATM   11  C   UNK N   1      25.876  25.286  -7.607  0.00  0.00     0.037 A 
HETATM   12  C   UNK N   1      26.108  26.259  -6.639  0.00  0.00     0.011 A 
BRANCH  10  13
HETATM   13  O   UNK N   1      26.785  23.616  -9.098  0.00  0.00    -0.330 OA
BRANCH  13  14
HETATM   14  C   UNK N   1      26.768  22.252  -8.812  0.00  0.00     0.148 C 
HETATM   15  C   UNK N   1      27.645  21.570  -9.854  0.00  0.00     0.058 C 
BRANCH  14  16
HETATM   16  C   UNK N   1      27.362  21.909  -7.421  0.00  0.00     0.045 C 
HETATM   17  C   UNK N   1      28.778  21.342  -7.475  0.00  0.00     0.009 C 
ENDBRANCH  14  16
BRANCH  14  18
HETATM   18  C   UNK N   1      25.349  21.771  -8.983  0.00  0.00     0.176 C 
HETATM   19  O   UNK N   1      24.456  22.169  -8.252  0.00  0.00    -0.648 OA
BRANCH  18  20
HETATM   20  O   UNK N   1      25.058  20.912  -9.980  0.00  0.00    -0.774 OA
HETATM   21  H   UNK N   1      24.180  20.832 -10.295  0.00  0.00     0.167 HD
ENDBRANCH  18  20
ENDBRANCH  14  18
ENDBRANCH  13  14
ENDBRANCH  10  13
ENDBRANCH   6   7
BRANCH   6  22
HETATM   22  C   UNK N   1      28.380  26.284  -4.140  0.00  0.00    -0.045 A 
HETATM   23  C   UNK N   1      29.759  26.440  -3.880  0.00  0.00     0.011 A 
HETATM   24  C   UNK N   1      30.525  25.364  -3.434  0.00  0.00     0.037 A 
HETATM   25  C   UNK N   1      29.934  24.112  -3.267  0.00  0.00     0.070 A 
HETATM   26  C   UNK N   1      28.549  23.969  -3.447  0.00  0.00     0.037 A 
HETATM   27  C   UNK N   1      27.776  25.046  -3.882  0.00  0.00     0.011 A 
BRANCH  25  28
HETATM   28  O   UNK N   1      30.717  23.042  -2.980  0.00  0.00    -0.330 OA
BRANCH  28  29
HETATM   29  C   UNK N   1      31.343  22.260  -3.951  0.00  0.00     0.148 C 
HETATM   30  C   UNK N   1      31.561  23.036  -5.255  0.00  0.00     0.058 C 
BRANCH  29  31
HETATM   31  C   UNK N   1      30.464  21.049  -4.256  0.00  0.00     0.045 C 
HETATM   32  C   UNK N   1      31.120  20.087  -5.237  0.00  0.00     0.009 C 
ENDBRANCH  29  31
BRANCH  29  33
HETATM   33  C   UNK N   1      32.661  21.739  -3.405  0.00  0.00     0.176 C 
HETATM   34  O   UNK N   1      33.682  21.782  -4.077  0.00  0.00    -0.648 OA
BRANCH  33  35
HETATM   35  O   UNK N   1      32.712  21.223  -2.160  0.00  0.00    -0.774 OA
HETATM   36  H   UNK N   1      33.017  21.128  -1.279  0.00  0.00     0.167 HD
ENDBRANCH  33  35
ENDBRANCH  29  33
ENDBRANCH  28  29
ENDBRANCH  25  28
ENDBRANCH   6  22
TORSDOF 12
ENDMDL
MODEL 2
REMARK VINA RESULT:      -6.6      2.289      6.014
REMARK  12 active torsions:
REMARK  status: ('A' for Active; 'I' for Inactive)
REMARK    1  A    between atoms: C_26  and  C_5 
REMARK    2  A    between atoms: C_27  and  C_6 
REMARK    3  A    between atoms: C_28  and  C_20 
REMARK    4  A    between atoms: C_28  and  C_21 
REMARK    5  A    between atoms: O_33  and  C_22 
REMARK    6  A    between atoms: O_34  and  C_23 
REMARK    7  A    between atoms: C_26  and  C_24 
REMARK    8  A    between atoms: O_30  and  C_24 
REMARK    9  A    between atoms: C_27  and  C_25 
REMARK   10  A    between atoms: O_32  and  C_25 
REMARK   11  A    between atoms: O_33  and  C_26 
REMARK   12  A    between atoms: O_34  and  C_27 
ROOT
HETATM    1  C   UNK N   1      25.776  20.952 -10.752  0.00  0.00     0.000 C 
HETATM    2  C   UNK N   1      25.289  20.876  -9.297  0.00  0.00     0.001 C 
HETATM    3  C   UNK N   1      27.049  21.798 -10.923  0.00  0.00     0.001 C 
HETATM    4  C   UNK N   1      26.466  21.033  -8.340  0.00  0.00     0.019 C 
HETATM    5  C   UNK N   1      27.061  22.951  -9.918  0.00  0.00     0.019 C 
HETATM    6  C   UNK N   1      27.107  22.442  -8.452  0.00  0.00     0.014 C 
ENDROOT
BRANCH   6   7
HETATM    7  C   UNK N   1      26.433  23.466  -7.541  0.00  0.00    -0.045 A 
HETATM    8  C   UNK N   1      26.341  23.253  -6.160  0.00  0.00     0.011 A 
HETATM    9  C   UNK N   1      26.069  24.318  -5.302  0.00  0.00     0.037 A 
HETATM   10  C   UNK N   1      25.925  25.614  -5.804  0.00  0.00     0.070 A 
HETATM   11  C   UNK N   1      25.912  25.817  -7.191  0.00  0.00     0.037 A 
HETATM   12  C   UNK N   1      26.158  24.752  -8.053  0.00  0.00     0.011 A 
BRANCH  10  13
HETATM   13  O   UNK N   1      25.829  26.644  -4.922  0.00  0.00    -0.330 OA
BRANCH  13  14
HETATM   14  C   UNK N   1      26.803  27.566  -4.541  0.00  0.00     0.148 C 
HETATM   15  C   UNK N   1      28.145  26.851  -4.625  0.00  0.00     0.058 C 
BRANCH  14  16
HETATM   16  C   UNK N   1      26.882  28.799  -5.479  0.00  0.00     0.045 C 
HETATM   17  C   UNK N   1      28.037  28.745  -6.475  0.00  0.00     0.009 C 
ENDBRANCH  14  16
BRANCH  14  18
HETATM   18  C   UNK N   1      26.538  27.934  -3.103  0.00  0.00     0.176 C 
HETATM   19  O   UNK N   1      26.758  29.061  -2.689  0.00  0.00    -0.648 OA
BRANCH  18  20
HETATM   20  O   UNK N   1      26.022  27.009  -2.269  0.00  0.00    -0.774 OA
HETATM   21  H   UNK N   1      26.407  26.862  -1.428  0.00  0.00     0.167 HD
ENDBRANCH  18  20
ENDBRANCH  14  18
ENDBRANCH  13  14
ENDBRANCH  10  13
ENDBRANCH   6   7
BRANCH   6  22
HETATM   22  C   UNK N   1      28.520  22.382  -7.881  0.00  0.00    -0.045 A 
HETATM   23  C   UNK N   1      29.058  21.126  -7.526  0.00  0.00     0.011 A 
HETATM   24  C   UNK N   1      30.181  21.040  -6.704  0.00  0.00     0.037 A 
HETATM   25  C   UNK N   1      30.766  22.202  -6.202  0.00  0.00     0.070 A 
HETATM   26  C   UNK N   1      30.286  23.455  -6.615  0.00  0.00     0.037 A 
HETATM   27  C   UNK N   1      29.170  23.547  -7.447  0.00  0.00     0.011 A 
BRANCH  25  28
HETATM   28  O   UNK N   1      31.761  22.100  -5.286  0.00  0.00    -0.330 OA
BRANCH  28  29
HETATM   29  C   UNK N   1      31.538  21.983  -3.913  0.00  0.00     0.148 C 
HETATM   30  C   UNK N   1      30.335  21.084  -3.606  0.00  0.00     0.058 C 
BRANCH  29  31
HETATM   31  C   UNK N   1      31.259  23.370  -3.335  0.00  0.00     0.045 C 
HETATM   32  C   UNK N   1      29.830  23.510  -2.830  0.00  0.00     0.009 C 
ENDBRANCH  29  31
BRANCH  29  33
HETATM   33  C   UNK N   1      32.794  21.455  -3.242  0.00  0.00     0.176 C 
HETATM   34  O   UNK N   1      33.829  21.301  -3.873  0.00  0.00    -0.648 OA
BRANCH  33  35
HETATM   35  O   UNK N   1      32.771  21.152  -1.928  0.00  0.00    -0.774 OA
HETATM   36  H   UNK N   1      32.850  21.306  -1.006  0.00  0.00     0.167 HD
ENDBRANCH  33  35
ENDBRANCH  29  33
ENDBRANCH  28  29
ENDBRANCH  25  28
ENDBRANCH   6  22
TORSDOF 12
ENDMDL
MODEL 3
REMARK VINA RESULT:      -6.6     13.769     16.508
REMARK  12 active torsions:
REMARK  status: ('A' for Active; 'I' for Inactive)
REMARK    1  A    between atoms: C_26  and  C_5 
REMARK    2  A    between atoms: C_27  and  C_6 
REMARK    3  A    between atoms: C_28  and  C_20 
REMARK    4  A    between atoms: C_28  and  C_21 
REMARK    5  A    between atoms: O_33  and  C_22 
REMARK    6  A    between atoms: O_34  and  C_23 
REMARK    7  A    between atoms: C_26  and  C_24 
REMARK    8  A    between atoms: O_30  and  C_24 
REMARK    9  A    between atoms: C_27  and  C_25 
REMARK   10  A    between atoms: O_32  and  C_25 
REMARK   11  A    between atoms: O_33  and  C_26 
REMARK   12  A    between atoms: O_34  and  C_27 
ROOT
HETATM    1  C   UNK N   1      21.831  13.465  10.087  0.00  0.00     0.000 C 
HETATM    2  C   UNK N   1      22.920  13.473   9.004  0.00  0.00     0.001 C 
HETATM    3  C   UNK N   1      20.480  14.011   9.595  0.00  0.00     0.001 C 
HETATM    4  C   UNK N   1      22.288  13.348   7.622  0.00  0.00     0.019 C 
HETATM    5  C   UNK N   1      20.699  15.115   8.558  0.00  0.00     0.019 C 
HETATM    6  C   UNK N   1      21.409  14.581   7.284  0.00  0.00     0.014 C 
ENDROOT
BRANCH   6   7
HETATM    7  C   UNK N   1      22.210  15.713   6.643  0.00  0.00    -0.045 A 
HETATM    8  C   UNK N   1      23.274  15.441   5.774  0.00  0.00     0.011 A 
HETATM    9  C   UNK N   1      23.755  16.433   4.920  0.00  0.00     0.037 A 
HETATM   10  C   UNK N   1      23.157  17.697   4.895  0.00  0.00     0.070 A 
HETATM   11  C   UNK N   1      22.164  18.007   5.834  0.00  0.00     0.037 A 
HETATM   12  C   UNK N   1      21.698  17.026   6.704  0.00  0.00     0.011 A 
BRANCH  10  13
HETATM   13  O   UNK N   1      23.545  18.578   3.935  0.00  0.00    -0.330 OA
BRANCH  13  14
HETATM   14  C   UNK N   1      24.779  19.203   3.766  0.00  0.00     0.148 C 
HETATM   15  C   UNK N   1      25.241  19.649   5.146  0.00  0.00     0.058 C 
BRANCH  14  16
HETATM   16  C   UNK N   1      25.873  18.260   3.201  0.00  0.00     0.045 C 
HETATM   17  C   UNK N   1      27.184  18.294   3.982  0.00  0.00     0.009 C 
ENDBRANCH  14  16
BRANCH  14  18
HETATM   18  C   UNK N   1      24.553  20.425   2.912  0.00  0.00     0.176 C 
HETATM   19  O   UNK N   1      25.407  20.816   2.133  0.00  0.00    -0.648 OA
BRANCH  18  20
HETATM   20  O   UNK N   1      23.376  21.077   2.989  0.00  0.00    -0.774 OA
HETATM   21  H   UNK N   1      23.099  21.461   3.797  0.00  0.00     0.167 HD
ENDBRANCH  18  20
ENDBRANCH  14  18
ENDBRANCH  13  14
ENDBRANCH  10  13
ENDBRANCH   6   7
BRANCH   6  22
HETATM   22  C   UNK N   1      20.439  14.200   6.171  0.00  0.00    -0.045 A 
HETATM   23  C   UNK N   1      20.700  13.041   5.408  0.00  0.00     0.011 A 
HETATM   24  C   UNK N   1      20.058  12.832   4.189  0.00  0.00     0.037 A 
HETATM   25  C   UNK N   1      19.168  13.787   3.699  0.00  0.00     0.070 A 
HETATM   26  C   UNK N   1      18.844  14.902   4.487  0.00  0.00     0.037 A 
HETATM   27  C   UNK N   1      19.475  15.110   5.714  0.00  0.00     0.011 A 
BRANCH  25  28
HETATM   28  O   UNK N   1      18.667  13.646   2.447  0.00  0.00    -0.330 OA
BRANCH  28  29
HETATM   29  C   UNK N   1      19.317  14.098   1.298  0.00  0.00     0.148 C 
HETATM   30  C   UNK N   1      20.317  13.066   0.765  0.00  0.00     0.058 C 
BRANCH  29  31
HETATM   31  C   UNK N   1      20.083  15.377   1.633  0.00  0.00     0.045 C 
HETATM   32  C   UNK N   1      21.592  15.185   1.566  0.00  0.00     0.009 C 
ENDBRANCH  29  31
BRANCH  29  33
HETATM   33  C   UNK N   1      18.287  14.449   0.240  0.00  0.00     0.176 C 
HETATM   34  O   UNK N   1      17.478  13.620  -0.152  0.00  0.00    -0.648 OA
BRANCH  33  35
HETATM   35  O   UNK N   1      18.257  15.694  -0.278  0.00  0.00    -0.774 OA
HETATM   36  H   UNK N   1      17.873  16.503  -0.554  0.00  0.00     0.167 HD
ENDBRANCH  33  35
ENDBRANCH  29  33
ENDBRANCH  28  29
ENDBRANCH  25  28
ENDBRANCH   6  22
TORSDOF 12
ENDMDL
MODEL 4
REMARK VINA RESULT:      -6.5     25.143     29.766
REMARK  12 active torsions:
REMARK  status: ('A' for Active; 'I' for Inactive)
REMARK    1  A    between atoms: C_26  and  C_5 
REMARK    2  A    between atoms: C_27  and  C_6 
REMARK    3  A    between atoms: C_28  and  C_20 
REMARK    4  A    between atoms: C_28  and  C_21 
REMARK    5  A    between atoms: O_33  and  C_22 
REMARK    6  A    between atoms: O_34  and  C_23 
REMARK    7  A    between atoms: C_26  and  C_24 
REMARK    8  A    between atoms: O_30  and  C_24 
REMARK    9  A    between atoms: C_27  and  C_25 
REMARK   10  A    between atoms: O_32  and  C_25 
REMARK   11  A    between atoms: O_33  and  C_26 
REMARK   12  A    between atoms: O_34  and  C_27 
ROOT
HETATM    1  C   UNK N   1      37.916   7.951  18.877  0.00  0.00     0.000 C 
HETATM    2  C   UNK N   1      37.475   9.023  19.885  0.00  0.00     0.001 C 
HETATM    3  C   UNK N   1      36.987   7.848  17.655  0.00  0.00     0.001 C 
HETATM    4  C   UNK N   1      36.711  10.134  19.172  0.00  0.00     0.019 C 
HETATM    5  C   UNK N   1      35.543   8.154  18.057  0.00  0.00     0.019 C 
HETATM    6  C   UNK N   1      35.380   9.612  18.568  0.00  0.00     0.014 C 
ENDROOT
BRANCH   6   7
HETATM    7  C   UNK N   1      34.223   9.669  19.563  0.00  0.00    -0.045 A 
HETATM    8  C   UNK N   1      33.307   8.614  19.667  0.00  0.00     0.011 A 
HETATM    9  C   UNK N   1      32.495   8.498  20.794  0.00  0.00     0.037 A 
HETATM   10  C   UNK N   1      32.611   9.408  21.849  0.00  0.00     0.070 A 
HETATM   11  C   UNK N   1      33.447  10.524  21.705  0.00  0.00     0.037 A 
HETATM   12  C   UNK N   1      34.243  10.657  20.571  0.00  0.00     0.011 A 
BRANCH  10  13
HETATM   13  O   UNK N   1      31.922   9.163  22.995  0.00  0.00    -0.330 OA
BRANCH  13  14
HETATM   14  C   UNK N   1      32.411   8.952  24.283  0.00  0.00     0.148 C 
HETATM   15  C   UNK N   1      31.468   7.967  24.959  0.00  0.00     0.058 C 
BRANCH  14  16
HETATM   16  C   UNK N   1      33.827   8.318  24.306  0.00  0.00     0.045 C 
HETATM   17  C   UNK N   1      33.823   6.793  24.256  0.00  0.00     0.009 C 
ENDBRANCH  14  16
BRANCH  14  18
HETATM   18  C   UNK N   1      32.342  10.269  25.014  0.00  0.00     0.176 C 
HETATM   19  O   UNK N   1      33.357  10.878  25.314  0.00  0.00    -0.648 OA
BRANCH  18  20
HETATM   20  O   UNK N   1      31.139  10.797  25.313  0.00  0.00    -0.774 OA
HETATM   21  H   UNK N   1      30.654  11.270  24.666  0.00  0.00     0.167 HD
ENDBRANCH  18  20
ENDBRANCH  14  18
ENDBRANCH  13  14
ENDBRANCH  10  13
ENDBRANCH   6   7
BRANCH   6  22
HETATM   22  C   UNK N   1      34.922  10.580  17.483  0.00  0.00    -0.045 A 
HETATM   23  C   UNK N   1      34.362  10.058  16.297  0.00  0.00     0.011 A 
HETATM   24  C   UNK N   1      34.241  10.851  15.158  0.00  0.00     0.037 A 
HETATM   25  C   UNK N   1      34.703  12.167  15.175  0.00  0.00     0.070 A 
HETATM   26  C   UNK N   1      35.188  12.717  16.371  0.00  0.00     0.037 A 
HETATM   27  C   UNK N   1      35.299  11.931  17.518  0.00  0.00     0.011 A 
BRANCH  25  28
HETATM   28  O   UNK N   1      34.719  12.878  14.020  0.00  0.00    -0.330 OA
BRANCH  28  29
HETATM   29  C   UNK N   1      35.754  12.811  13.085  0.00  0.00     0.148 C 
HETATM   30  C   UNK N   1      35.279  12.226  11.750  0.00  0.00     0.058 C 
BRANCH  29  31
HETATM   31  C   UNK N   1      36.861  11.912  13.634  0.00  0.00     0.045 C 
HETATM   32  C   UNK N   1      37.197  10.764  12.692  0.00  0.00     0.009 C 
ENDBRANCH  29  31
BRANCH  29  33
HETATM   33  C   UNK N   1      36.346  14.195  12.889  0.00  0.00     0.176 C 
HETATM   34  O   UNK N   1      36.424  14.986  13.818  0.00  0.00    -0.648 OA
BRANCH  33  35
HETATM   35  O   UNK N   1      36.798  14.562  11.671  0.00  0.00    -0.774 OA
HETATM   36  H   UNK N   1      36.741  14.878  10.791  0.00  0.00     0.167 HD
ENDBRANCH  33  35
ENDBRANCH  29  33
ENDBRANCH  28  29
ENDBRANCH  25  28
ENDBRANCH   6  22
TORSDOF 12
ENDMDL
MODEL 5
REMARK VINA RESULT:      -6.4     12.605     15.214
REMARK  12 active torsions:
REMARK  status: ('A' for Active; 'I' for Inactive)
REMARK    1  A    between atoms: C_26  and  C_5 
REMARK    2  A    between atoms: C_27  and  C_6 
REMARK    3  A    between atoms: C_28  and  C_20 
REMARK    4  A    between atoms: C_28  and  C_21 
REMARK    5  A    between atoms: O_33  and  C_22 
REMARK    6  A    between atoms: O_34  and  C_23 
REMARK    7  A    between atoms: C_26  and  C_24 
REMARK    8  A    between atoms: O_30  and  C_24 
REMARK    9  A    between atoms: C_27  and  C_25 
REMARK   10  A    between atoms: O_32  and  C_25 
REMARK   11  A    between atoms: O_33  and  C_26 
REMARK   12  A    between atoms: O_34  and  C_27 
ROOT
HETATM    1  C   UNK N   1      26.985  20.829   5.006  0.00  0.00     0.000 C 
HETATM    2  C   UNK N   1      27.208  19.563   4.164  0.00  0.00     0.001 C 
HETATM    3  C   UNK N   1      27.534  20.711   6.437  0.00  0.00     0.001 C 
HETATM    4  C   UNK N   1      28.446  18.818   4.653  0.00  0.00     0.019 C 
HETATM    5  C   UNK N   1      27.404  19.272   6.940  0.00  0.00     0.019 C 
HETATM    6  C   UNK N   1      28.255  18.284   6.096  0.00  0.00     0.014 C 
ENDROOT
BRANCH   6   7
HETATM    7  C   UNK N   1      27.604  16.903   6.129  0.00  0.00    -0.045 A 
HETATM    8  C   UNK N   1      27.060  16.391   7.314  0.00  0.00     0.011 A 
HETATM    9  C   UNK N   1      26.161  15.325   7.271  0.00  0.00     0.037 A 
HETATM   10  C   UNK N   1      25.764  14.782   6.046  0.00  0.00     0.070 A 
HETATM   11  C   UNK N   1      26.383  15.219   4.867  0.00  0.00     0.037 A 
HETATM   12  C   UNK N   1      27.299  16.266   4.908  0.00  0.00     0.011 A 
BRANCH  10  13
HETATM   13  O   UNK N   1      24.764  13.861   6.038  0.00  0.00    -0.330 OA
BRANCH  13  14
HETATM   14  C   UNK N   1      23.393  14.057   5.880  0.00  0.00     0.148 C 
HETATM   15  C   UNK N   1      22.702  13.246   6.967  0.00  0.00     0.058 C 
BRANCH  14  16
HETATM   16  C   UNK N   1      22.959  15.534   6.064  0.00  0.00     0.045 C 
HETATM   17  C   UNK N   1      21.839  15.727   7.083  0.00  0.00     0.009 C 
ENDBRANCH  14  16
BRANCH  14  18
HETATM   18  C   UNK N   1      23.009  13.492   4.535  0.00  0.00     0.176 C 
HETATM   19  O   UNK N   1      23.750  12.728   3.937  0.00  0.00    -0.648 OA
BRANCH  18  20
HETATM   20  O   UNK N   1      21.815  13.813   4.000  0.00  0.00    -0.774 OA
HETATM   21  H   UNK N   1      21.645  13.659   3.092  0.00  0.00     0.167 HD
ENDBRANCH  18  20
ENDBRANCH  14  18
ENDBRANCH  13  14
ENDBRANCH  10  13
ENDBRANCH   6   7
BRANCH   6  22
HETATM   22  C   UNK N   1      29.628  18.008   6.701  0.00  0.00    -0.045 A 
HETATM   23  C   UNK N   1      30.531  17.187   5.991  0.00  0.00     0.011 A 
HETATM   24  C   UNK N   1      31.640  16.633   6.628  0.00  0.00     0.037 A 
HETATM   25  C   UNK N   1      31.850  16.866   7.987  0.00  0.00     0.070 A 
HETATM   26  C   UNK N   1      31.002  17.744   8.679  0.00  0.00     0.037 A 
HETATM   27  C   UNK N   1      29.897  18.311   8.043  0.00  0.00     0.011 A 
BRANCH  25  28
HETATM   28  O   UNK N   1      32.844  16.201   8.627  0.00  0.00    -0.330 OA
BRANCH  28  29
HETATM   29  C   UNK N   1      34.179  16.606   8.611  0.00  0.00     0.148 C 
HETATM   30  C   UNK N   1      34.350  17.984   7.961  0.00  0.00     0.058 C 
BRANCH  29  31
HETATM   31  C   UNK N   1      34.995  15.594   7.808  0.00  0.00     0.045 C 
HETATM   32  C   UNK N   1      34.384  14.200   7.838  0.00  0.00     0.009 C 
ENDBRANCH  29  31
BRANCH  29  33
HETATM   33  C   UNK N   1      34.723  16.607  10.029  0.00  0.00     0.176 C 
HETATM   34  O   UNK N   1      35.643  17.344  10.351  0.00  0.00    -0.648 OA
BRANCH  33  35
HETATM   35  O   UNK N   1      34.183  15.784  10.952  0.00  0.00    -0.774 OA
HETATM   36  H   UNK N   1      33.556  15.493  11.585  0.00  0.00     0.167 HD
ENDBRANCH  33  35
ENDBRANCH  29  33
ENDBRANCH  28  29
ENDBRANCH  25  28
ENDBRANCH   6  22
TORSDOF 12
ENDMDL
MODEL 6
REMARK VINA RESULT:      -6.4      2.541      7.411
REMARK  12 active torsions:
REMARK  status: ('A' for Active; 'I' for Inactive)
REMARK    1  A    between atoms: C_26  and  C_5 
REMARK    2  A    between atoms: C_27  and  C_6 
REMARK    3  A    between atoms: C_28  and  C_20 
REMARK    4  A    between atoms: C_28  and  C_21 
REMARK    5  A    between atoms: O_33  and  C_22 
REMARK    6  A    between atoms: O_34  and  C_23 
REMARK    7  A    between atoms: C_26  and  C_24 
REMARK    8  A    between atoms: O_30  and  C_24 
REMARK    9  A    between atoms: C_27  and  C_25 
REMARK   10  A    between atoms: O_32  and  C_25 
REMARK   11  A    between atoms: O_33  and  C_26 
REMARK   12  A    between atoms: O_34  and  C_27 
ROOT
HETATM    1  C   UNK N   1      26.612  20.908 -11.080  0.00  0.00     0.000 C 
HETATM    2  C   UNK N   1      27.893  21.695 -10.764  0.00  0.00     0.001 C 
HETATM    3  C   UNK N   1      25.571  20.963  -9.950  0.00  0.00     0.001 C 
HETATM    4  C   UNK N   1      27.583  22.841  -9.807  0.00  0.00     0.019 C 
HETATM    5  C   UNK N   1      26.266  21.024  -8.589  0.00  0.00     0.019 C 
HETATM    6  C   UNK N   1      27.109  22.318  -8.426  0.00  0.00     0.014 C 
ENDROOT
BRANCH   6   7
HETATM    7  C   UNK N   1      28.271  22.045  -7.473  0.00  0.00    -0.045 A 
HETATM    8  C   UNK N   1      28.723  20.739  -7.242  0.00  0.00     0.011 A 
HETATM    9  C   UNK N   1      29.981  20.520  -6.682  0.00  0.00     0.037 A 
HETATM   10  C   UNK N   1      30.820  21.597  -6.380  0.00  0.00     0.070 A 
HETATM   11  C   UNK N   1      30.333  22.905  -6.510  0.00  0.00     0.037 A 
HETATM   12  C   UNK N   1      29.068  23.128  -7.046  0.00  0.00     0.011 A 
BRANCH  10  13
HETATM   13  O   UNK N   1      32.097  21.336  -5.994  0.00  0.00    -0.330 OA
BRANCH  13  14
HETATM   14  C   UNK N   1      32.578  21.000  -4.729  0.00  0.00     0.148 C 
HETATM   15  C   UNK N   1      33.619  22.047  -4.360  0.00  0.00     0.058 C 
BRANCH  14  16
HETATM   16  C   UNK N   1      31.486  21.032  -3.628  0.00  0.00     0.045 C 
HETATM   17  C   UNK N   1      31.373  22.373  -2.909  0.00  0.00     0.009 C 
ENDBRANCH  14  16
BRANCH  14  18
HETATM   18  C   UNK N   1      33.259  19.659  -4.847  0.00  0.00     0.176 C 
HETATM   19  O   UNK N   1      33.609  19.223  -5.932  0.00  0.00    -0.648 OA
BRANCH  18  20
HETATM   20  O   UNK N   1      33.512  18.946  -3.732  0.00  0.00    -0.774 OA
HETATM   21  H   UNK N   1      33.048  19.126  -2.939  0.00  0.00     0.167 HD
ENDBRANCH  18  20
ENDBRANCH  14  18
ENDBRANCH  13  14
ENDBRANCH  10  13
ENDBRANCH   6   7
BRANCH   6  22
HETATM   22  C   UNK N   1      26.360  23.437  -7.710  0.00  0.00    -0.045 A 
HETATM   23  C   UNK N   1      26.305  24.712  -8.312  0.00  0.00     0.011 A 
HETATM   24  C   UNK N   1      25.939  25.834  -7.570  0.00  0.00     0.037 A 
HETATM   25  C   UNK N   1      25.651  25.705  -6.211  0.00  0.00     0.070 A 
HETATM   26  C   UNK N   1      25.627  24.430  -5.625  0.00  0.00     0.037 A 
HETATM   27  C   UNK N   1      25.980  23.303  -6.367  0.00  0.00     0.011 A 
BRANCH  25  28
HETATM   28  O   UNK N   1      25.445  26.822  -5.469  0.00  0.00    -0.330 OA
BRANCH  28  29
HETATM   29  C   UNK N   1      26.475  27.568  -4.894  0.00  0.00     0.148 C 
HETATM   30  C   UNK N   1      27.130  28.511  -5.909  0.00  0.00     0.058 C 
BRANCH  29  31
HETATM   31  C   UNK N   1      27.545  26.614  -4.367  0.00  0.00     0.045 C 
HETATM   32  C   UNK N   1      28.894  26.824  -5.042  0.00  0.00     0.009 C 
ENDBRANCH  29  31
BRANCH  29  33
HETATM   33  C   UNK N   1      25.933  28.344  -3.707  0.00  0.00     0.176 C 
HETATM   34  O   UNK N   1      25.506  27.767  -2.718  0.00  0.00    -0.648 OA
BRANCH  33  35
HETATM   35  O   UNK N   1      25.923  29.693  -3.739  0.00  0.00    -0.774 OA
HETATM   36  H   UNK N   1      26.260  30.553  -3.897  0.00  0.00     0.167 HD
ENDBRANCH  33  35
ENDBRANCH  29  33
ENDBRANCH  28  29
ENDBRANCH  25  28
ENDBRANCH   6  22
TORSDOF 12
ENDMDL
MODEL 7
REMARK VINA RESULT:      -6.3     25.258     29.470
REMARK  12 active torsions:
REMARK  status: ('A' for Active; 'I' for Inactive)
REMARK    1  A    between atoms: C_26  and  C_5 
REMARK    2  A    between atoms: C_27  and  C_6 
REMARK    3  A    between atoms: C_28  and  C_20 
REMARK    4  A    between atoms: C_28  and  C_21 
REMARK    5  A    between atoms: O_33  and  C_22 
REMARK    6  A    between atoms: O_34  and  C_23 
REMARK    7  A    between atoms: C_26  and  C_24 
REMARK    8  A    between atoms: O_30  and  C_24 
REMARK    9  A    between atoms: C_27  and  C_25 
REMARK   10  A    between atoms: O_32  and  C_25 
REMARK   11  A    between atoms: O_33  and  C_26 
REMARK   12  A    between atoms: O_34  and  C_27 
ROOT
HETATM    1  C   UNK N   1      37.954   7.984  18.567  0.00  0.00     0.000 C 
HETATM    2  C   UNK N   1      36.907   7.966  17.443  0.00  0.00     0.001 C 
HETATM    3  C   UNK N   1      37.529   8.828  19.781  0.00  0.00     0.001 C 
HETATM    4  C   UNK N   1      35.510   8.167  18.024  0.00  0.00     0.019 C 
HETATM    5  C   UNK N   1      36.684  10.021  19.330  0.00  0.00     0.019 C 
HETATM    6  C   UNK N   1      35.356   9.572  18.662  0.00  0.00     0.014 C 
ENDROOT
BRANCH   6   7
HETATM    7  C   UNK N   1      34.917  10.630  17.652  0.00  0.00    -0.045 A 
HETATM    8  C   UNK N   1      35.232  11.982  17.841  0.00  0.00     0.011 A 
HETATM    9  C   UNK N   1      35.162  12.875  16.772  0.00  0.00     0.037 A 
HETATM   10  C   UNK N   1      34.815  12.426  15.495  0.00  0.00     0.070 A 
HETATM   11  C   UNK N   1      34.397  11.100  15.322  0.00  0.00     0.037 A 
HETATM   12  C   UNK N   1      34.442  10.210  16.392  0.00  0.00     0.011 A 
BRANCH  10  13
HETATM   13  O   UNK N   1      34.921  13.292  14.453  0.00  0.00    -0.330 OA
BRANCH  13  14
HETATM   14  C   UNK N   1      36.064  13.713  13.775  0.00  0.00     0.148 C 
HETATM   15  C   UNK N   1      36.737  14.760  14.652  0.00  0.00     0.058 C 
BRANCH  14  16
HETATM   16  C   UNK N   1      37.095  12.577  13.546  0.00  0.00     0.045 C 
HETATM   17  C   UNK N   1      36.741  11.645  12.391  0.00  0.00     0.009 C 
ENDBRANCH  14  16
BRANCH  14  18
HETATM   18  C   UNK N   1      35.614  14.370  12.494  0.00  0.00     0.176 C 
HETATM   19  O   UNK N   1      34.476  14.224  12.077  0.00  0.00    -0.648 OA
BRANCH  18  20
HETATM   20  O   UNK N   1      36.474  15.155  11.816  0.00  0.00    -0.774 OA
HETATM   21  H   UNK N   1      36.157  15.858  11.285  0.00  0.00     0.167 HD
ENDBRANCH  18  20
ENDBRANCH  14  18
ENDBRANCH  13  14
ENDBRANCH  10  13
ENDBRANCH   6   7
BRANCH   6  22
HETATM   22  C   UNK N   1      34.178   9.542  19.631  0.00  0.00    -0.045 A 
HETATM   23  C   UNK N   1      34.219  10.365  20.778  0.00  0.00     0.011 A 
HETATM   24  C   UNK N   1      33.356  10.137  21.848  0.00  0.00     0.037 A 
HETATM   25  C   UNK N   1      32.459   9.070  21.803  0.00  0.00     0.070 A 
HETATM   26  C   UNK N   1      32.358   8.298  20.636  0.00  0.00     0.037 A 
HETATM   27  C   UNK N   1      33.211   8.529  19.557  0.00  0.00     0.011 A 
BRANCH  25  28
HETATM   28  O   UNK N   1      31.732   8.768  22.908  0.00  0.00    -0.330 OA
BRANCH  28  29
HETATM   29  C   UNK N   1      32.299   8.372  24.120  0.00  0.00     0.148 C 
HETATM   30  C   UNK N   1      33.744   7.893  23.944  0.00  0.00     0.058 C 
BRANCH  29  31
HETATM   31  C   UNK N   1      31.480   7.219  24.697  0.00  0.00     0.045 C 
HETATM   32  C   UNK N   1      32.332   6.248  25.504  0.00  0.00     0.009 C 
ENDBRANCH  29  31
BRANCH  29  33
HETATM   33  C   UNK N   1      32.227   9.521  25.110  0.00  0.00     0.176 C 
HETATM   34  O   UNK N   1      32.821   9.472  26.177  0.00  0.00    -0.648 OA
BRANCH  33  35
HETATM   35  O   UNK N   1      31.499  10.617  24.810  0.00  0.00    -0.774 OA
HETATM   36  H   UNK N   1      31.220  11.353  24.301  0.00  0.00     0.167 HD
ENDBRANCH  33  35
ENDBRANCH  29  33
ENDBRANCH  28  29
ENDBRANCH  25  28
ENDBRANCH   6  22
TORSDOF 12
ENDMDL
MODEL 8
REMARK VINA RESULT:      -6.3     11.784     15.858
REMARK  12 active torsions:
REMARK  status: ('A' for Active; 'I' for Inactive)
REMARK    1  A    between atoms: C_26  and  C_5 
REMARK    2  A    between atoms: C_27  and  C_6 
REMARK    3  A    between atoms: C_28  and  C_20 
REMARK    4  A    between atoms: C_28  and  C_21 
REMARK    5  A    between atoms: O_33  and  C_22 
REMARK    6  A    between atoms: O_34  and  C_23 
REMARK    7  A    between atoms: C_26  and  C_24 
REMARK    8  A    between atoms: O_30  and  C_24 
REMARK    9  A    between atoms: C_27  and  C_25 
REMARK   10  A    between atoms: O_32  and  C_25 
REMARK   11  A    between atoms: O_33  and  C_26 
REMARK   12  A    between atoms: O_34  and  C_27 
ROOT
HETATM    1  C   UNK N   1      27.294  21.015   5.495  0.00  0.00     0.000 C 
HETATM    2  C   UNK N   1      27.495  20.243   6.808  0.00  0.00     0.001 C 
HETATM    3  C   UNK N   1      27.473  20.140   4.242  0.00  0.00     0.001 C 
HETATM    4  C   UNK N   1      27.141  18.772   6.613  0.00  0.00     0.019 C 
HETATM    5  C   UNK N   1      28.532  19.065   4.491  0.00  0.00     0.019 C 
HETATM    6  C   UNK N   1      28.108  18.081   5.616  0.00  0.00     0.014 C 
ENDROOT
BRANCH   6   7
HETATM    7  C   UNK N   1      29.356  17.528   6.299  0.00  0.00    -0.045 A 
HETATM    8  C   UNK N   1      30.533  17.298   5.573  0.00  0.00     0.011 A 
HETATM    9  C   UNK N   1      31.750  17.151   6.238  0.00  0.00     0.037 A 
HETATM   10  C   UNK N   1      31.817  17.268   7.629  0.00  0.00     0.070 A 
HETATM   11  C   UNK N   1      30.631  17.392   8.367  0.00  0.00     0.037 A 
HETATM   12  C   UNK N   1      29.411  17.515   7.709  0.00  0.00     0.011 A 
BRANCH  10  13
HETATM   13  O   UNK N   1      33.041  17.285   8.220  0.00  0.00    -0.330 OA
BRANCH  13  14
HETATM   14  C   UNK N   1      33.841  16.212   8.609  0.00  0.00     0.148 C 
HETATM   15  C   UNK N   1      32.903  15.079   8.999  0.00  0.00     0.058 C 
BRANCH  14  16
HETATM   16  C   UNK N   1      34.751  15.681   7.471  0.00  0.00     0.045 C 
HETATM   17  C   UNK N   1      34.361  14.297   6.961  0.00  0.00     0.009 C 
ENDBRANCH  14  16
BRANCH  14  18
HETATM   18  C   UNK N   1      34.613  16.644   9.831  0.00  0.00     0.176 C 
HETATM   19  O   UNK N   1      35.358  17.610   9.796  0.00  0.00    -0.648 OA
BRANCH  18  20
HETATM   20  O   UNK N   1      34.454  15.969  10.986  0.00  0.00    -0.774 OA
HETATM   21  H   UNK N   1      33.790  16.223  11.596  0.00  0.00     0.167 HD
ENDBRANCH  18  20
ENDBRANCH  14  18
ENDBRANCH  13  14
ENDBRANCH  10  13
ENDBRANCH   6   7
BRANCH   6  22
HETATM   22  C   UNK N   1      27.441  16.816   5.086  0.00  0.00    -0.045 A 
HETATM   23  C   UNK N   1      27.507  16.541   3.703  0.00  0.00     0.011 A 
HETATM   24  C   UNK N   1      26.651  15.606   3.122  0.00  0.00     0.037 A 
HETATM   25  C   UNK N   1      25.699  14.954   3.906  0.00  0.00     0.070 A 
HETATM   26  C   UNK N   1      25.681  15.164   5.293  0.00  0.00     0.037 A 
HETATM   27  C   UNK N   1      26.543  16.089   5.881  0.00  0.00     0.011 A 
BRANCH  25  28
HETATM   28  O   UNK N   1      24.775  14.163   3.304  0.00  0.00    -0.330 OA
BRANCH  28  29
HETATM   29  C   UNK N   1      23.514  14.611   2.910  0.00  0.00     0.148 C 
HETATM   30  C   UNK N   1      23.232  16.032   3.410  0.00  0.00     0.058 C 
BRANCH  29  31
HETATM   31  C   UNK N   1      22.452  13.679   3.492  0.00  0.00     0.045 C 
HETATM   32  C   UNK N   1      21.859  14.213   4.789  0.00  0.00     0.009 C 
ENDBRANCH  29  31
BRANCH  29  33
HETATM   33  C   UNK N   1      23.403  14.538   1.397  0.00  0.00     0.176 C 
HETATM   34  O   UNK N   1      24.379  14.290   0.705  0.00  0.00    -0.648 OA
BRANCH  33  35
HETATM   35  O   UNK N   1      22.210  14.748   0.804  0.00  0.00    -0.774 OA
HETATM   36  H   UNK N   1      21.434  14.526   0.328  0.00  0.00     0.167 HD
ENDBRANCH  33  35
ENDBRANCH  29  33
ENDBRANCH  28  29
ENDBRANCH  25  28
ENDBRANCH   6  22
TORSDOF 12
ENDMDL
MODEL 9
REMARK VINA RESULT:      -6.3     11.436     15.179
REMARK  12 active torsions:
REMARK  status: ('A' for Active; 'I' for Inactive)
REMARK    1  A    between atoms: C_26  and  C_5 
REMARK    2  A    between atoms: C_27  and  C_6 
REMARK    3  A    between atoms: C_28  and  C_20 
REMARK    4  A    between atoms: C_28  and  C_21 
REMARK    5  A    between atoms: O_33  and  C_22 
REMARK    6  A    between atoms: O_34  and  C_23 
REMARK    7  A    between atoms: C_26  and  C_24 
REMARK    8  A    between atoms: O_30  and  C_24 
REMARK    9  A    between atoms: C_27  and  C_25 
REMARK   10  A    between atoms: O_32  and  C_25 
REMARK   11  A    between atoms: O_33  and  C_26 
REMARK   12  A    between atoms: O_34  and  C_27 
ROOT
HETATM    1  C   UNK N   1      26.967  21.026   5.435  0.00  0.00     0.000 C 
HETATM    2  C   UNK N   1      27.313  19.991   6.516  0.00  0.00     0.001 C 
HETATM    3  C   UNK N   1      26.887  20.426   4.022  0.00  0.00     0.001 C 
HETATM    4  C   UNK N   1      26.828  18.608   6.093  0.00  0.00     0.019 C 
HETATM    5  C   UNK N   1      27.892  19.282   3.871  0.00  0.00     0.019 C 
HETATM    6  C   UNK N   1      27.577  18.103   4.831  0.00  0.00     0.014 C 
ENDROOT
BRANCH   6   7
HETATM    7  C   UNK N   1      28.873  17.372   5.172  0.00  0.00    -0.045 A 
HETATM    8  C   UNK N   1      30.093  17.763   4.605  0.00  0.00     0.011 A 
HETATM    9  C   UNK N   1      31.297  17.354   5.178  0.00  0.00     0.037 A 
HETATM   10  C   UNK N   1      31.302  16.583   6.343  0.00  0.00     0.070 A 
HETATM   11  C   UNK N   1      30.089  16.101   6.854  0.00  0.00     0.037 A 
HETATM   12  C   UNK N   1      28.885  16.487   6.272  0.00  0.00     0.011 A 
BRANCH  10  13
HETATM   13  O   UNK N   1      32.490  16.348   6.960  0.00  0.00    -0.330 OA
BRANCH  13  14
HETATM   14  C   UNK N   1      33.066  17.019   8.037  0.00  0.00     0.148 C 
HETATM   15  C   UNK N   1      32.006  17.961   8.590  0.00  0.00     0.058 C 
BRANCH  14  16
HETATM   16  C   UNK N   1      33.487  16.075   9.194  0.00  0.00     0.045 C 
HETATM   17  C   UNK N   1      33.140  14.609   8.954  0.00  0.00     0.009 C 
ENDBRANCH  14  16
BRANCH  14  18
HETATM   18  C   UNK N   1      34.211  17.839   7.498  0.00  0.00     0.176 C 
HETATM   19  O   UNK N   1      34.608  17.692   6.353  0.00  0.00    -0.648 OA
BRANCH  18  20
HETATM   20  O   UNK N   1      34.785  18.771   8.285  0.00  0.00    -0.774 OA
HETATM   21  H   UNK N   1      34.352  19.584   8.451  0.00  0.00     0.167 HD
ENDBRANCH  18  20
ENDBRANCH  14  18
ENDBRANCH  13  14
ENDBRANCH  10  13
ENDBRANCH   6   7
BRANCH   6  22
HETATM   22  C   UNK N   1      26.747  17.003   4.178  0.00  0.00    -0.045 A 
HETATM   23  C   UNK N   1      27.224  16.405   2.991  0.00  0.00     0.011 A 
HETATM   24  C   UNK N   1      26.373  15.656   2.181  0.00  0.00     0.037 A 
HETATM   25  C   UNK N   1      25.030  15.514   2.526  0.00  0.00     0.070 A 
HETATM   26  C   UNK N   1      24.567  16.038   3.743  0.00  0.00     0.037 A 
HETATM   27  C   UNK N   1      25.418  16.779   4.564  0.00  0.00     0.011 A 
BRANCH  25  28
HETATM   28  O   UNK N   1      24.181  14.912   1.655  0.00  0.00    -0.330 OA
BRANCH  28  29
HETATM   29  C   UNK N   1      23.969  13.534   1.611  0.00  0.00     0.148 C 
HETATM   30  C   UNK N   1      25.203  12.752   2.077  0.00  0.00     0.058 C 
BRANCH  29  31
HETATM   31  C   UNK N   1      23.660  13.125   0.172  0.00  0.00     0.045 C 
HETATM   32  C   UNK N   1      23.763  11.620  -0.039  0.00  0.00     0.009 C 
ENDBRANCH  29  31
BRANCH  29  33
HETATM   33  C   UNK N   1      22.756  13.183   2.454  0.00  0.00     0.176 C 
HETATM   34  O   UNK N   1      21.637  13.555   2.134  0.00  0.00    -0.648 OA
BRANCH  33  35
HETATM   35  O   UNK N   1      22.911  12.447   3.574  0.00  0.00    -0.774 OA
HETATM   36  H   UNK N   1      23.201  12.253   4.444  0.00  0.00     0.167 HD
ENDBRANCH  33  35
ENDBRANCH  29  33
ENDBRANCH  28  29
ENDBRANCH  25  28
ENDBRANCH   6  22
TORSDOF 12
ENDMDL
