MODEL 1
REMARK VINA RESULT:      -7.8      0.000      0.000
REMARK  20 active torsions:
REMARK  status: ('A' for Active; 'I' for Inactive)
REMARK    1  A    between atoms: C_1  and  C_2 
REMARK    2  A    between atoms: C_1  and  C_3 
REMARK    3  A    between atoms: C_1  and  N_4 
REMARK    4  A    between atoms: C_2  and  C_43 
REMARK    5  A    between atoms: C_3  and  C_5 
REMARK       I    between atoms: N_4  and  C_6 
REMARK    6  A    between atoms: C_5  and  C_7 
REMARK    7  A    between atoms: C_6  and  C_8 
REMARK    8  A    between atoms: C_7  and  C_10 
REMARK    9  A    between atoms: C_7  and  N_11 
REMARK   10  A    between atoms: C_8  and  N_12 
REMARK   11  A    between atoms: C_8  and  C_49 
REMARK   12  A    between atoms: C_10  and  C_13 
REMARK       I    between atoms: N_11  and  C_14 
REMARK       I    between atoms: N_12  and  C_15 
REMARK   13  A    between atoms: C_14  and  O_18 
REMARK       I    between atoms: C_15  and  N_20 
REMARK   14  A    between atoms: O_18  and  C_24 
REMARK   15  A    between atoms: N_20  and  C_25 
REMARK   16  A    between atoms: C_24  and  C_28 
REMARK   17  A    between atoms: C_25  and  C_29 
REMARK   18  A    between atoms: C_38  and  C_40 
REMARK   19  A    between atoms: C_49  and  C_50 
REMARK   20  A    between atoms: C_50  and  N_51 
ROOT
HETATM    1  C   UNK N   1      25.008  16.235   4.623  0.00  0.00     0.088 C 
ENDROOT
BRANCH   1   2
HETATM    2  C   UNK N   1      25.503  17.249   3.578  0.00  0.00     0.063 C 
BRANCH   2   3
HETATM    3  C   UNK N   1      26.129  18.470   4.184  0.00  0.00    -0.056 A 
HETATM    4  C   UNK N   1      27.392  18.907   3.768  0.00  0.00     0.007 A 
HETATM    5  C   UNK N   1      27.973  20.033   4.360  0.00  0.00     0.001 A 
HETATM    6  C   UNK N   1      27.294  20.721   5.369  0.00  0.00     0.000 A 
HETATM    7  C   UNK N   1      26.030  20.289   5.782  0.00  0.00     0.001 A 
HETATM    8  C   UNK N   1      25.447  19.166   5.188  0.00  0.00     0.007 A 
ENDBRANCH   2   3
ENDBRANCH   1   2
BRANCH   1   9
HETATM    9  C   UNK N   1      26.123  15.852   5.599  0.00  0.00     0.027 C 
BRANCH   9  10
HETATM   10  C   UNK N   1      27.184  14.987   4.950  0.00  0.00     0.027 C 
BRANCH  10  11
HETATM   11  C   UNK N   1      28.514  15.276   5.624  0.00  0.00     0.091 C 
BRANCH  11  12
HETATM   12  C   UNK N   1      28.991  16.741   5.643  0.00  0.00     0.063 C 
BRANCH  12  13
HETATM   13  C   UNK N   1      29.251  17.342   6.995  0.00  0.00    -0.056 A 
HETATM   14  C   UNK N   1      28.206  17.934   7.709  0.00  0.00     0.007 A 
HETATM   15  C   UNK N   1      28.453  18.535   8.949  0.00  0.00     0.001 A 
HETATM   16  C   UNK N   1      29.747  18.544   9.479  0.00  0.00     0.000 A 
HETATM   17  C   UNK N   1      30.794  17.958   8.767  0.00  0.00     0.001 A 
HETATM   18  C   UNK N   1      30.548  17.370   7.524  0.00  0.00     0.007 A 
ENDBRANCH  12  13
ENDBRANCH  11  12
BRANCH  11  19
HETATM   19  N   UNK N   1      29.537  14.320   5.259  0.00  0.00    -0.332 N 
HETATM   20  C   UNK N   1      30.120  14.244   4.034  0.00  0.00     0.361 C 
HETATM   21  O   UNK N   1      29.820  15.037   3.154  0.00  0.00    -0.238 OA
HETATM   22  H   UNK N   1      29.831  13.679   5.946  0.00  0.00     0.165 HD
BRANCH  20  23
HETATM   23  O   UNK N   1      31.043  13.284   3.774  0.00  0.00    -0.299 OA
BRANCH  23  24
HETATM   24  C   UNK N   1      32.272  13.578   3.224  0.00  0.00     0.228 C 
BRANCH  24  25
HETATM   25  C   UNK N   1      33.138  14.258   4.226  0.00  0.00     0.023 A 
HETATM   26  C   UNK N   1      33.851  13.654   5.266  0.00  0.00     0.104 A 
HETATM   27  N   UNK N   1      34.552  14.541   6.057  0.00  0.00    -0.368 N 
HETATM   28  C   UNK N   1      34.410  15.840   5.673  0.00  0.00     0.138 A 
ATOM     29  HN  UNK N   1      35.122  14.251   6.852  1.00  0.00     0.165 HD
HETATM   30  S   UNK N   1      33.414  15.877   4.351  0.00  0.00    -0.086 SA
ENDBRANCH  24  25
ENDBRANCH  23  24
ENDBRANCH  20  23
ENDBRANCH  11  19
ENDBRANCH  10  11
ENDBRANCH   9  10
ENDBRANCH   1   9
BRANCH   1  31
HETATM   31  N   UNK N   1      24.534  15.043   3.959  0.00  0.00    -0.354 N 
HETATM   32  C   UNK N   1      23.235  14.710   3.722  0.00  0.00     0.240 C 
HETATM   33  O   UNK N   1      23.004  13.603   3.264  0.00  0.00    -0.271 OA
HETATM   34  H   UNK N   1      25.219  14.408   3.648  0.00  0.00     0.162 HD
BRANCH  32  35
HETATM   35  C   UNK N   1      22.042  15.621   4.006  0.00  0.00     0.180 C 
BRANCH  35  36
HETATM   36  N   UNK N   1      20.916  14.911   4.575  0.00  0.00    -0.330 N 
HETATM   37  C   UNK N   1      20.432  14.901   5.852  0.00  0.00     0.319 C 
HETATM   38  N   UNK N   1      20.888  15.727   6.867  0.00  0.00    -0.333 N 
HETATM   39  O   UNK N   1      19.545  14.096   6.098  0.00  0.00    -0.247 OA
HETATM   40  C   UNK N   1      21.900  16.729   6.679  0.00  0.00     0.154 C 
HETATM   41  H   UNK N   1      20.420  14.344   3.940  0.00  0.00     0.165 HD
BRANCH  38  42
HETATM   42  C   UNK N   1      20.354  15.615   8.213  0.00  0.00     0.184 C 
BRANCH  42  43
HETATM   43  C   UNK N   1      21.044  14.548   8.992  0.00  0.00     0.034 A 
HETATM   44  N   UNK N   1      22.343  14.204   8.698  0.00  0.00    -0.355 N 
HETATM   45  C   UNK N   1      22.767  13.135   9.408  0.00  0.00     0.054 A 
ATOM     46  HN  UNK N   1      22.922  14.700   8.020  1.00  0.00     0.166 HD
HETATM   47  S   UNK N   1      21.538  12.631  10.399  0.00  0.00    -0.086 SA
HETATM   48  C   UNK N   1      20.399  13.753   9.960  0.00  0.00     0.078 A 
BRANCH  45  49
HETATM   49  C   UNK N   1      24.128  12.530   9.239  0.00  0.00     0.035 C 
HETATM   50  C   UNK N   1      24.757  12.294  10.599  0.00  0.00     0.016 C 
HETATM   51  C   UNK N   1      25.054  13.404   8.412  0.00  0.00     0.016 C 
ENDBRANCH  45  49
ENDBRANCH  42  43
ENDBRANCH  38  42
ENDBRANCH  35  36
BRANCH  35  52
HETATM   52  C   UNK N   1      21.554  16.664   2.999  0.00  0.00     0.065 C 
BRANCH  52  53
HETATM   53  C   UNK N   1      20.569  17.607   3.691  0.00  0.00     0.275 C 
BRANCH  53  54
HETATM   54  N   UNK N   1      20.870  19.005   3.412  0.00  0.00     0.092 N 
HETATM   55  C   UNK N   1      20.497  19.239   2.013  0.00  0.00     0.298 C 
HETATM   56  C   UNK N   1      21.013  20.601   1.513  0.00  0.00     0.198 C 
HETATM   57  O   UNK N   1      21.717  21.285   2.522  0.00  0.00    -0.388 OA
HETATM   58  C   UNK N   1      22.808  20.469   2.863  0.00  0.00     0.198 C 
HETATM   59  C   UNK N   1      22.316  19.208   3.594  0.00  0.00     0.298 C 
ENDBRANCH  53  54
ENDBRANCH  52  53
ENDBRANCH  35  52
ENDBRANCH  32  35
ENDBRANCH   1  31
TORSDOF 20
ENDMDL
MODEL 2
REMARK VINA RESULT:      -7.7      2.466      9.399
REMARK  20 active torsions:
REMARK  status: ('A' for Active; 'I' for Inactive)
REMARK    1  A    between atoms: C_1  and  C_2 
REMARK    2  A    between atoms: C_1  and  C_3 
REMARK    3  A    between atoms: C_1  and  N_4 
REMARK    4  A    between atoms: C_2  and  C_43 
REMARK    5  A    between atoms: C_3  and  C_5 
REMARK       I    between atoms: N_4  and  C_6 
REMARK    6  A    between atoms: C_5  and  C_7 
REMARK    7  A    between atoms: C_6  and  C_8 
REMARK    8  A    between atoms: C_7  and  C_10 
REMARK    9  A    between atoms: C_7  and  N_11 
REMARK   10  A    between atoms: C_8  and  N_12 
REMARK   11  A    between atoms: C_8  and  C_49 
REMARK   12  A    between atoms: C_10  and  C_13 
REMARK       I    between atoms: N_11  and  C_14 
REMARK       I    between atoms: N_12  and  C_15 
REMARK   13  A    between atoms: C_14  and  O_18 
REMARK       I    between atoms: C_15  and  N_20 
REMARK   14  A    between atoms: O_18  and  C_24 
REMARK   15  A    between atoms: N_20  and  C_25 
REMARK   16  A    between atoms: C_24  and  C_28 
REMARK   17  A    between atoms: C_25  and  C_29 
REMARK   18  A    between atoms: C_38  and  C_40 
REMARK   19  A    between atoms: C_49  and  C_50 
REMARK   20  A    between atoms: C_50  and  N_51 
ROOT
HETATM    1  C   UNK N   1      27.313  16.006   5.438  0.00  0.00     0.088 C 
ENDROOT
BRANCH   1   2
HETATM    2  C   UNK N   1      27.965  17.058   6.352  0.00  0.00     0.063 C 
BRANCH   2   3
HETATM    3  C   UNK N   1      27.662  18.469   5.943  0.00  0.00    -0.056 A 
HETATM    4  C   UNK N   1      27.510  18.806   4.593  0.00  0.00     0.007 A 
HETATM    5  C   UNK N   1      27.252  20.131   4.227  0.00  0.00     0.001 A 
HETATM    6  C   UNK N   1      27.147  21.120   5.209  0.00  0.00     0.000 A 
HETATM    7  C   UNK N   1      27.293  20.784   6.558  0.00  0.00     0.001 A 
HETATM    8  C   UNK N   1      27.547  19.460   6.925  0.00  0.00     0.007 A 
ENDBRANCH   2   3
ENDBRANCH   1   2
BRANCH   1   9
HETATM    9  C   UNK N   1      25.828  15.832   5.759  0.00  0.00     0.027 C 
BRANCH   9  10
HETATM   10  C   UNK N   1      25.596  14.884   6.918  0.00  0.00     0.027 C 
BRANCH  10  11
HETATM   11  C   UNK N   1      24.098  14.725   7.112  0.00  0.00     0.091 C 
BRANCH  11  12
HETATM   12  C   UNK N   1      23.567  13.301   7.366  0.00  0.00     0.063 C 
BRANCH  12  13
HETATM   13  C   UNK N   1      23.353  12.913   8.801  0.00  0.00    -0.056 A 
HETATM   14  C   UNK N   1      24.439  12.524   9.589  0.00  0.00     0.007 A 
HETATM   15  C   UNK N   1      24.237  12.120  10.915  0.00  0.00     0.001 A 
HETATM   16  C   UNK N   1      22.947  12.104  11.455  0.00  0.00     0.000 A 
HETATM   17  C   UNK N   1      21.860  12.488  10.669  0.00  0.00     0.001 A 
HETATM   18  C   UNK N   1      22.062  12.880   9.344  0.00  0.00     0.007 A 
ENDBRANCH  12  13
ENDBRANCH  11  12
BRANCH  11  19
HETATM   19  N   UNK N   1      23.333  15.484   6.146  0.00  0.00    -0.332 N 
HETATM   20  C   UNK N   1      22.134  16.072   6.401  0.00  0.00     0.361 C 
HETATM   21  O   UNK N   1      21.639  16.013   7.516  0.00  0.00    -0.238 OA
HETATM   22  H   UNK N   1      23.706  15.583   5.240  0.00  0.00     0.165 HD
BRANCH  20  23
HETATM   23  O   UNK N   1      21.472  16.729   5.416  0.00  0.00    -0.299 OA
BRANCH  23  24
HETATM   24  C   UNK N   1      20.247  16.306   4.947  0.00  0.00     0.228 C 
BRANCH  24  25
HETATM   25  C   UNK N   1      20.074  16.702   3.522  0.00  0.00     0.023 A 
HETATM   26  C   UNK N   1      19.528  17.897   3.043  0.00  0.00     0.104 A 
HETATM   27  N   UNK N   1      19.472  17.978   1.667  0.00  0.00    -0.368 N 
HETATM   28  C   UNK N   1      19.956  16.872   1.038  0.00  0.00     0.138 A 
ATOM     29  HN  UNK N   1      19.103  18.789   1.170  1.00  0.00     0.165 HD
HETATM   30  S   UNK N   1      20.453  15.799   2.197  0.00  0.00    -0.086 SA
ENDBRANCH  24  25
ENDBRANCH  23  24
ENDBRANCH  20  23
ENDBRANCH  11  19
ENDBRANCH  10  11
ENDBRANCH   9  10
ENDBRANCH   1   9
BRANCH   1  31
HETATM   31  N   UNK N   1      27.982  14.736   5.604  0.00  0.00    -0.354 N 
HETATM   32  C   UNK N   1      28.749  14.097   4.677  0.00  0.00     0.240 C 
HETATM   33  O   UNK N   1      29.134  12.968   4.935  0.00  0.00    -0.271 OA
HETATM   34  H   UNK N   1      27.871  14.288   6.473  0.00  0.00     0.162 HD
BRANCH  32  35
HETATM   35  C   UNK N   1      29.148  14.690   3.327  0.00  0.00     0.180 C 
BRANCH  35  36
HETATM   36  N   UNK N   1      29.836  15.958   3.452  0.00  0.00    -0.330 N 
HETATM   37  C   UNK N   1      31.172  16.237   3.505  0.00  0.00     0.319 C 
HETATM   38  N   UNK N   1      32.174  15.301   3.304  0.00  0.00    -0.333 N 
HETATM   39  O   UNK N   1      31.483  17.392   3.757  0.00  0.00    -0.247 OA
HETATM   40  C   UNK N   1      31.920  13.926   2.970  0.00  0.00     0.154 C 
HETATM   41  H   UNK N   1      29.247  16.745   3.507  0.00  0.00     0.165 HD
BRANCH  38  42
HETATM   42  C   UNK N   1      33.572  15.671   3.431  0.00  0.00     0.184 C 
BRANCH  42  43
HETATM   43  C   UNK N   1      34.027  15.628   4.851  0.00  0.00     0.034 A 
HETATM   44  N   UNK N   1      33.787  16.692   5.688  0.00  0.00    -0.355 N 
HETATM   45  C   UNK N   1      34.379  16.544   6.893  0.00  0.00     0.054 A 
ATOM     46  HN  UNK N   1      33.225  17.503   5.429  1.00  0.00     0.166 HD
HETATM   47  S   UNK N   1      35.186  15.096   6.917  0.00  0.00    -0.086 SA
HETATM   48  C   UNK N   1      34.822  14.592   5.379  0.00  0.00     0.078 A 
BRANCH  45  49
HETATM   49  C   UNK N   1      34.312  17.584   7.970  0.00  0.00     0.035 C 
HETATM   50  C   UNK N   1      34.754  16.984   9.293  0.00  0.00     0.016 C 
HETATM   51  C   UNK N   1      32.919  18.163   8.133  0.00  0.00     0.016 C 
ENDBRANCH  45  49
ENDBRANCH  42  43
ENDBRANCH  38  42
ENDBRANCH  35  36
BRANCH  35  52
HETATM   52  C   UNK N   1      28.190  14.725   2.135  0.00  0.00     0.065 C 
BRANCH  52  53
HETATM   53  C   UNK N   1      27.565  13.341   1.953  0.00  0.00     0.275 C 
BRANCH  53  54
HETATM   54  N   UNK N   1      26.110  13.391   2.015  0.00  0.00     0.092 N 
HETATM   55  C   UNK N   1      25.747  14.807   2.131  0.00  0.00     0.298 C 
HETATM   56  C   UNK N   1      24.257  14.980   2.475  0.00  0.00     0.198 C 
HETATM   57  O   UNK N   1      23.610  13.737   2.595  0.00  0.00    -0.388 OA
HETATM   58  C   UNK N   1      24.255  13.057   3.641  0.00  0.00     0.198 C 
HETATM   59  C   UNK N   1      25.676  12.655   3.213  0.00  0.00     0.298 C 
ENDBRANCH  53  54
ENDBRANCH  52  53
ENDBRANCH  35  52
ENDBRANCH  32  35
ENDBRANCH   1  31
TORSDOF 20
ENDMDL
MODEL 3
REMARK VINA RESULT:      -7.7      2.520      4.690
REMARK  20 active torsions:
REMARK  status: ('A' for Active; 'I' for Inactive)
REMARK    1  A    between atoms: C_1  and  C_2 
REMARK    2  A    between atoms: C_1  and  C_3 
REMARK    3  A    between atoms: C_1  and  N_4 
REMARK    4  A    between atoms: C_2  and  C_43 
REMARK    5  A    between atoms: C_3  and  C_5 
REMARK       I    between atoms: N_4  and  C_6 
REMARK    6  A    between atoms: C_5  and  C_7 
REMARK    7  A    between atoms: C_6  and  C_8 
REMARK    8  A    between atoms: C_7  and  C_10 
REMARK    9  A    between atoms: C_7  and  N_11 
REMARK   10  A    between atoms: C_8  and  N_12 
REMARK   11  A    between atoms: C_8  and  C_49 
REMARK   12  A    between atoms: C_10  and  C_13 
REMARK       I    between atoms: N_11  and  C_14 
REMARK       I    between atoms: N_12  and  C_15 
REMARK   13  A    between atoms: C_14  and  O_18 
REMARK       I    between atoms: C_15  and  N_20 
REMARK   14  A    between atoms: O_18  and  C_24 
REMARK   15  A    between atoms: N_20  and  C_25 
REMARK   16  A    between atoms: C_24  and  C_28 
REMARK   17  A    between atoms: C_25  and  C_29 
REMARK   18  A    between atoms: C_38  and  C_40 
REMARK   19  A    between atoms: C_49  and  C_50 
REMARK   20  A    between atoms: C_50  and  N_51 
ROOT
HETATM    1  C   UNK N   1      28.876  16.834   4.654  0.00  0.00     0.088 C 
ENDROOT
BRANCH   1   2
HETATM    2  C   UNK N   1      29.118  18.332   4.400  0.00  0.00     0.063 C 
BRANCH   2   3
HETATM    3  C   UNK N   1      28.273  19.224   5.261  0.00  0.00    -0.056 A 
HETATM    4  C   UNK N   1      28.118  18.963   6.627  0.00  0.00     0.007 A 
HETATM    5  C   UNK N   1      27.308  19.791   7.411  0.00  0.00     0.001 A 
HETATM    6  C   UNK N   1      26.651  20.879   6.830  0.00  0.00     0.000 A 
HETATM    7  C   UNK N   1      26.809  21.145   5.467  0.00  0.00     0.001 A 
HETATM    8  C   UNK N   1      27.621  20.320   4.684  0.00  0.00     0.007 A 
ENDBRANCH   2   3
ENDBRANCH   1   2
BRANCH   1   9
HETATM    9  C   UNK N   1      30.102  16.171   5.285  0.00  0.00     0.027 C 
BRANCH   9  10
HETATM   10  C   UNK N   1      31.161  17.179   5.683  0.00  0.00     0.027 C 
BRANCH  10  11
HETATM   11  C   UNK N   1      32.394  16.937   4.830  0.00  0.00     0.091 C 
BRANCH  11  12
HETATM   12  C   UNK N   1      32.167  16.556   3.354  0.00  0.00     0.063 C 
BRANCH  12  13
HETATM   13  C   UNK N   1      32.706  15.224   2.917  0.00  0.00    -0.056 A 
HETATM   14  C   UNK N   1      34.025  15.116   2.470  0.00  0.00     0.007 A 
HETATM   15  C   UNK N   1      34.517  13.884   2.020  0.00  0.00     0.001 A 
HETATM   16  C   UNK N   1      33.689  12.757   2.017  0.00  0.00     0.000 A 
HETATM   17  C   UNK N   1      32.370  12.862   2.458  0.00  0.00     0.001 A 
HETATM   18  C   UNK N   1      31.878  14.093   2.896  0.00  0.00     0.007 A 
ENDBRANCH  12  13
ENDBRANCH  11  12
BRANCH  11  19
HETATM   19  N   UNK N   1      33.384  16.128   5.509  0.00  0.00    -0.332 N 
HETATM   20  C   UNK N   1      34.383  16.624   6.287  0.00  0.00     0.361 C 
HETATM   21  O   UNK N   1      34.475  17.825   6.486  0.00  0.00    -0.238 OA
HETATM   22  H   UNK N   1      33.331  15.151   5.401  0.00  0.00     0.165 HD
BRANCH  20  23
HETATM   23  O   UNK N   1      35.289  15.787   6.850  0.00  0.00    -0.299 OA
BRANCH  23  24
HETATM   24  C   UNK N   1      34.927  14.577   7.401  0.00  0.00     0.228 C 
BRANCH  24  25
HETATM   25  C   UNK N   1      34.617  14.739   8.849  0.00  0.00     0.023 A 
HETATM   26  C   UNK N   1      33.351  14.879   9.425  0.00  0.00     0.104 A 
HETATM   27  N   UNK N   1      33.372  15.038  10.796  0.00  0.00    -0.368 N 
HETATM   28  C   UNK N   1      34.627  15.033  11.324  0.00  0.00     0.138 A 
ATOM     29  HN  UNK N   1      32.528  15.148  11.359  1.00  0.00     0.165 HD
HETATM   30  S   UNK N   1      35.704  14.830  10.083  0.00  0.00    -0.086 SA
ENDBRANCH  24  25
ENDBRANCH  23  24
ENDBRANCH  20  23
ENDBRANCH  11  19
ENDBRANCH  10  11
ENDBRANCH   9  10
ENDBRANCH   1   9
BRANCH   1  31
HETATM   31  N   UNK N   1      28.573  16.172   3.407  0.00  0.00    -0.354 N 
HETATM   32  C   UNK N   1      27.335  15.833   2.949  0.00  0.00     0.240 C 
HETATM   33  O   UNK N   1      27.267  15.161   1.933  0.00  0.00    -0.271 OA
HETATM   34  H   UNK N   1      29.337  15.942   2.831  0.00  0.00     0.162 HD
BRANCH  32  35
HETATM   35  C   UNK N   1      26.024  16.223   3.630  0.00  0.00     0.180 C 
BRANCH  35  36
HETATM   36  N   UNK N   1      24.973  15.249   3.422  0.00  0.00    -0.330 N 
HETATM   37  C   UNK N   1      24.611  14.166   4.172  0.00  0.00     0.319 C 
HETATM   38  N   UNK N   1      25.140  13.867   5.417  0.00  0.00    -0.333 N 
HETATM   39  O   UNK N   1      23.770  13.421   3.691  0.00  0.00    -0.247 OA
HETATM   40  C   UNK N   1      26.107  14.692   6.088  0.00  0.00     0.154 C 
HETATM   41  H   UNK N   1      24.434  15.389   2.610  0.00  0.00     0.165 HD
BRANCH  38  42
HETATM   42  C   UNK N   1      24.737  12.665   6.126  0.00  0.00     0.184 C 
BRANCH  42  43
HETATM   43  C   UNK N   1      23.816  12.975   7.257  0.00  0.00     0.034 A 
HETATM   44  N   UNK N   1      23.801  12.177   8.378  0.00  0.00    -0.355 N 
HETATM   45  C   UNK N   1      22.820  12.520   9.241  0.00  0.00     0.054 A 
ATOM     46  HN  UNK N   1      24.457  11.413   8.539  1.00  0.00     0.166 HD
HETATM   47  S   UNK N   1      21.988  13.811   8.619  0.00  0.00    -0.086 SA
HETATM   48  C   UNK N   1      22.838  13.987   7.206  0.00  0.00     0.078 A 
BRANCH  45  49
HETATM   49  C   UNK N   1      22.559  11.778  10.517  0.00  0.00     0.035 C 
HETATM   50  C   UNK N   1      21.257  12.257  11.133  0.00  0.00     0.016 C 
HETATM   51  C   UNK N   1      23.676  11.951  11.529  0.00  0.00     0.016 C 
ENDBRANCH  45  49
ENDBRANCH  42  43
ENDBRANCH  38  42
ENDBRANCH  35  36
BRANCH  35  52
HETATM   52  C   UNK N   1      25.453  17.640   3.551  0.00  0.00     0.065 C 
BRANCH  52  53
HETATM   53  C   UNK N   1      24.636  17.922   4.812  0.00  0.00     0.275 C 
BRANCH  53  54
HETATM   54  N   UNK N   1      23.509  18.805   4.540  0.00  0.00     0.092 N 
HETATM   55  C   UNK N   1      22.417  17.951   4.062  0.00  0.00     0.298 C 
HETATM   56  C   UNK N   1      21.260  18.786   3.486  0.00  0.00     0.198 C 
HETATM   57  O   UNK N   1      21.535  20.164   3.559  0.00  0.00    -0.388 OA
HETATM   58  C   UNK N   1      22.691  20.375   2.790  0.00  0.00     0.198 C 
HETATM   59  C   UNK N   1      23.911  19.753   3.489  0.00  0.00     0.298 C 
ENDBRANCH  53  54
ENDBRANCH  52  53
ENDBRANCH  35  52
ENDBRANCH  32  35
ENDBRANCH   1  31
TORSDOF 20
ENDMDL
MODEL 4
REMARK VINA RESULT:      -7.6      2.544      3.792
REMARK  20 active torsions:
REMARK  status: ('A' for Active; 'I' for Inactive)
REMARK    1  A    between atoms: C_1  and  C_2 
REMARK    2  A    between atoms: C_1  and  C_3 
REMARK    3  A    between atoms: C_1  and  N_4 
REMARK    4  A    between atoms: C_2  and  C_43 
REMARK    5  A    between atoms: C_3  and  C_5 
REMARK       I    between atoms: N_4  and  C_6 
REMARK    6  A    between atoms: C_5  and  C_7 
REMARK    7  A    between atoms: C_6  and  C_8 
REMARK    8  A    between atoms: C_7  and  C_10 
REMARK    9  A    between atoms: C_7  and  N_11 
REMARK   10  A    between atoms: C_8  and  N_12 
REMARK   11  A    between atoms: C_8  and  C_49 
REMARK   12  A    between atoms: C_10  and  C_13 
REMARK       I    between atoms: N_11  and  C_14 
REMARK       I    between atoms: N_12  and  C_15 
REMARK   13  A    between atoms: C_14  and  O_18 
REMARK       I    between atoms: C_15  and  N_20 
REMARK   14  A    between atoms: O_18  and  C_24 
REMARK   15  A    between atoms: N_20  and  C_25 
REMARK   16  A    between atoms: C_24  and  C_28 
REMARK   17  A    between atoms: C_25  and  C_29 
REMARK   18  A    between atoms: C_38  and  C_40 
REMARK   19  A    between atoms: C_49  and  C_50 
REMARK   20  A    between atoms: C_50  and  N_51 
ROOT
HETATM    1  C   UNK N   1      28.831  16.162   4.681  0.00  0.00     0.088 C 
ENDROOT
BRANCH   1   2
HETATM    2  C   UNK N   1      29.419  17.580   4.583  0.00  0.00     0.063 C 
BRANCH   2   3
HETATM    3  C   UNK N   1      28.542  18.630   5.199  0.00  0.00    -0.056 A 
HETATM    4  C   UNK N   1      28.193  19.781   4.482  0.00  0.00     0.007 A 
HETATM    5  C   UNK N   1      27.394  20.762   5.078  0.00  0.00     0.001 A 
HETATM    6  C   UNK N   1      26.945  20.594   6.392  0.00  0.00     0.000 A 
HETATM    7  C   UNK N   1      27.289  19.444   7.108  0.00  0.00     0.001 A 
HETATM    8  C   UNK N   1      28.084  18.461   6.511  0.00  0.00     0.007 A 
ENDBRANCH   2   3
ENDBRANCH   1   2
BRANCH   1   9
HETATM    9  C   UNK N   1      29.821  15.192   5.329  0.00  0.00     0.027 C 
BRANCH   9  10
HETATM   10  C   UNK N   1      31.261  15.609   5.113  0.00  0.00     0.027 C 
BRANCH  10  11
HETATM   11  C   UNK N   1      31.937  15.711   6.469  0.00  0.00     0.091 C 
BRANCH  11  12
HETATM   12  C   UNK N   1      32.101  17.120   7.071  0.00  0.00     0.063 C 
BRANCH  12  13
HETATM   13  C   UNK N   1      31.098  17.521   8.115  0.00  0.00    -0.056 A 
HETATM   14  C   UNK N   1      31.012  18.854   8.526  0.00  0.00     0.007 A 
HETATM   15  C   UNK N   1      30.109  19.223   9.530  0.00  0.00     0.001 A 
HETATM   16  C   UNK N   1      29.289  18.260  10.126  0.00  0.00     0.000 A 
HETATM   17  C   UNK N   1      29.375  16.927   9.721  0.00  0.00     0.001 A 
HETATM   18  C   UNK N   1      30.284  16.559   8.727  0.00  0.00     0.007 A 
ENDBRANCH  12  13
ENDBRANCH  11  12
BRANCH  11  19
HETATM   19  N   UNK N   1      33.121  14.882   6.559  0.00  0.00    -0.332 N 
HETATM   20  C   UNK N   1      33.329  13.935   7.512  0.00  0.00     0.361 C 
HETATM   21  O   UNK N   1      32.475  13.706   8.355  0.00  0.00    -0.238 OA
HETATM   22  H   UNK N   1      33.824  15.012   5.883  0.00  0.00     0.165 HD
BRANCH  20  23
HETATM   23  O   UNK N   1      34.491  13.236   7.537  0.00  0.00    -0.299 OA
BRANCH  23  24
HETATM   24  C   UNK N   1      35.720  13.858   7.566  0.00  0.00     0.228 C 
BRANCH  24  25
HETATM   25  C   UNK N   1      36.275  13.844   8.949  0.00  0.00     0.023 A 
HETATM   26  C   UNK N   1      37.591  13.559   9.322  0.00  0.00     0.104 A 
HETATM   27  N   UNK N   1      37.811  13.597  10.684  0.00  0.00    -0.368 N 
HETATM   28  C   UNK N   1      36.697  13.902  11.404  0.00  0.00     0.138 A 
ATOM     29  HN  UNK N   1      38.721  13.415  11.108  1.00  0.00     0.165 HD
HETATM   30  S   UNK N   1      35.445  14.123  10.344  0.00  0.00    -0.086 SA
ENDBRANCH  24  25
ENDBRANCH  23  24
ENDBRANCH  20  23
ENDBRANCH  11  19
ENDBRANCH  10  11
ENDBRANCH   9  10
ENDBRANCH   1   9
BRANCH   1  31
HETATM   31  N   UNK N   1      28.498  15.681   3.360  0.00  0.00    -0.354 N 
HETATM   32  C   UNK N   1      27.248  15.562   2.833  0.00  0.00     0.240 C 
HETATM   33  O   UNK N   1      27.136  15.015   1.747  0.00  0.00    -0.271 OA
HETATM   34  H   UNK N   1      29.250  15.413   2.785  0.00  0.00     0.162 HD
BRANCH  32  35
HETATM   35  C   UNK N   1      25.971  16.050   3.513  0.00  0.00     0.180 C 
BRANCH  35  36
HETATM   36  N   UNK N   1      24.829  15.205   3.235  0.00  0.00    -0.330 N 
HETATM   37  C   UNK N   1      24.290  14.181   3.962  0.00  0.00     0.319 C 
HETATM   38  N   UNK N   1      24.692  13.835   5.241  0.00  0.00    -0.333 N 
HETATM   39  O   UNK N   1      23.401  13.535   3.425  0.00  0.00    -0.247 OA
HETATM   40  C   UNK N   1      25.702  14.547   5.975  0.00  0.00     0.154 C 
HETATM   41  H   UNK N   1      24.367  15.399   2.388  0.00  0.00     0.165 HD
BRANCH  38  42
HETATM   42  C   UNK N   1      24.102  12.697   5.923  0.00  0.00     0.184 C 
BRANCH  42  43
HETATM   43  C   UNK N   1      23.149  13.125   6.987  0.00  0.00     0.034 A 
HETATM   44  N   UNK N   1      23.395  12.816   8.305  0.00  0.00    -0.355 N 
HETATM   45  C   UNK N   1      22.371  13.162   9.115  0.00  0.00     0.054 A 
ATOM     46  HN  UNK N   1      24.254  12.376   8.633  1.00  0.00     0.166 HD
HETATM   47  S   UNK N   1      21.175  13.854   8.200  0.00  0.00    -0.086 SA
HETATM   48  C   UNK N   1      21.909  13.737   6.717  0.00  0.00     0.078 A 
BRANCH  45  49
HETATM   49  C   UNK N   1      22.368  12.889  10.589  0.00  0.00     0.035 C 
HETATM   50  C   UNK N   1      23.493  11.931  10.936  0.00  0.00     0.016 C 
HETATM   51  C   UNK N   1      21.054  12.302  11.069  0.00  0.00     0.016 C 
ENDBRANCH  45  49
ENDBRANCH  42  43
ENDBRANCH  38  42
ENDBRANCH  35  36
BRANCH  35  52
HETATM   52  C   UNK N   1      25.553  17.521   3.506  0.00  0.00     0.065 C 
BRANCH  52  53
HETATM   53  C   UNK N   1      24.761  17.825   4.778  0.00  0.00     0.275 C 
BRANCH  53  54
HETATM   54  N   UNK N   1      23.666  18.752   4.526  0.00  0.00     0.092 N 
HETATM   55  C   UNK N   1      22.568  17.957   3.968  0.00  0.00     0.298 C 
HETATM   56  C   UNK N   1      21.450  18.856   3.408  0.00  0.00     0.198 C 
HETATM   57  O   UNK N   1      21.758  20.219   3.569  0.00  0.00    -0.388 OA
HETATM   58  C   UNK N   1      22.942  20.443   2.848  0.00  0.00     0.198 C 
HETATM   59  C   UNK N   1      24.124  19.748   3.544  0.00  0.00     0.298 C 
ENDBRANCH  53  54
ENDBRANCH  52  53
ENDBRANCH  35  52
ENDBRANCH  32  35
ENDBRANCH   1  31
TORSDOF 20
ENDMDL
MODEL 5
REMARK VINA RESULT:      -7.6      2.680      9.396
REMARK  20 active torsions:
REMARK  status: ('A' for Active; 'I' for Inactive)
REMARK    1  A    between atoms: C_1  and  C_2 
REMARK    2  A    between atoms: C_1  and  C_3 
REMARK    3  A    between atoms: C_1  and  N_4 
REMARK    4  A    between atoms: C_2  and  C_43 
REMARK    5  A    between atoms: C_3  and  C_5 
REMARK       I    between atoms: N_4  and  C_6 
REMARK    6  A    between atoms: C_5  and  C_7 
REMARK    7  A    between atoms: C_6  and  C_8 
REMARK    8  A    between atoms: C_7  and  C_10 
REMARK    9  A    between atoms: C_7  and  N_11 
REMARK   10  A    between atoms: C_8  and  N_12 
REMARK   11  A    between atoms: C_8  and  C_49 
REMARK   12  A    between atoms: C_10  and  C_13 
REMARK       I    between atoms: N_11  and  C_14 
REMARK       I    between atoms: N_12  and  C_15 
REMARK   13  A    between atoms: C_14  and  O_18 
REMARK       I    between atoms: C_15  and  N_20 
REMARK   14  A    between atoms: O_18  and  C_24 
REMARK   15  A    between atoms: N_20  and  C_25 
REMARK   16  A    between atoms: C_24  and  C_28 
REMARK   17  A    between atoms: C_25  and  C_29 
REMARK   18  A    between atoms: C_38  and  C_40 
REMARK   19  A    between atoms: C_49  and  C_50 
REMARK   20  A    between atoms: C_50  and  N_51 
ROOT
HETATM    1  C   UNK N   1      25.710  16.514   4.527  0.00  0.00     0.088 C 
ENDROOT
BRANCH   1   2
HETATM    2  C   UNK N   1      25.297  17.874   3.940  0.00  0.00     0.063 C 
BRANCH   2   3
HETATM    3  C   UNK N   1      26.080  19.025   4.499  0.00  0.00    -0.056 A 
HETATM    4  C   UNK N   1      27.369  19.308   4.032  0.00  0.00     0.007 A 
HETATM    5  C   UNK N   1      28.095  20.370   4.580  0.00  0.00     0.001 A 
HETATM    6  C   UNK N   1      27.535  21.149   5.596  0.00  0.00     0.000 A 
HETATM    7  C   UNK N   1      26.246  20.872   6.061  0.00  0.00     0.001 A 
HETATM    8  C   UNK N   1      25.518  19.813   5.511  0.00  0.00     0.007 A 
ENDBRANCH   2   3
ENDBRANCH   1   2
BRANCH   1   9
HETATM    9  C   UNK N   1      24.590  15.482   4.383  0.00  0.00     0.027 C 
BRANCH   9  10
HETATM   10  C   UNK N   1      23.898  15.195   5.699  0.00  0.00     0.027 C 
BRANCH  10  11
HETATM   11  C   UNK N   1      22.414  15.471   5.528  0.00  0.00     0.091 C 
BRANCH  11  12
HETATM   12  C   UNK N   1      22.017  16.791   4.839  0.00  0.00     0.063 C 
BRANCH  12  13
HETATM   13  C   UNK N   1      21.339  16.670   3.505  0.00  0.00    -0.056 A 
HETATM   14  C   UNK N   1      20.852  17.811   2.862  0.00  0.00     0.007 A 
HETATM   15  C   UNK N   1      20.180  17.696   1.639  0.00  0.00     0.001 A 
HETATM   16  C   UNK N   1      19.994  16.439   1.055  0.00  0.00     0.000 A 
HETATM   17  C   UNK N   1      20.474  15.297   1.696  0.00  0.00     0.001 A 
HETATM   18  C   UNK N   1      21.134  15.412   2.922  0.00  0.00     0.007 A 
ENDBRANCH  12  13
ENDBRANCH  11  12
BRANCH  11  19
HETATM   19  N   UNK N   1      21.656  15.171   6.725  0.00  0.00    -0.332 N 
HETATM   20  C   UNK N   1      20.838  14.095   6.870  0.00  0.00     0.361 C 
HETATM   21  O   UNK N   1      20.724  13.277   5.970  0.00  0.00    -0.238 OA
HETATM   22  H   UNK N   1      21.739  15.788   7.487  0.00  0.00     0.165 HD
BRANCH  20  23
HETATM   23  O   UNK N   1      20.136  13.921   8.017  0.00  0.00    -0.299 OA
BRANCH  23  24
HETATM   24  C   UNK N   1      20.557  14.444   9.221  0.00  0.00     0.228 C 
BRANCH  24  25
HETATM   25  C   UNK N   1      21.292  13.412  10.004  0.00  0.00     0.023 A 
HETATM   26  C   UNK N   1      20.762  12.571  10.987  0.00  0.00     0.104 A 
HETATM   27  N   UNK N   1      21.689  11.728  11.565  0.00  0.00    -0.368 N 
HETATM   28  C   UNK N   1      22.947  11.883  11.068  0.00  0.00     0.138 A 
ATOM     29  HN  UNK N   1      21.454  11.053  12.293  1.00  0.00     0.165 HD
HETATM   30  S   UNK N   1      22.899  13.067   9.912  0.00  0.00    -0.086 SA
ENDBRANCH  24  25
ENDBRANCH  23  24
ENDBRANCH  20  23
ENDBRANCH  11  19
ENDBRANCH  10  11
ENDBRANCH   9  10
ENDBRANCH   1   9
BRANCH   1  31
HETATM   31  N   UNK N   1      26.032  16.666   5.927  0.00  0.00    -0.354 N 
HETATM   32  C   UNK N   1      27.264  16.536   6.493  0.00  0.00     0.240 C 
HETATM   33  O   UNK N   1      27.339  16.569   7.711  0.00  0.00    -0.271 OA
HETATM   34  H   UNK N   1      25.287  16.884   6.531  0.00  0.00     0.162 HD
BRANCH  32  35
HETATM   35  C   UNK N   1      28.560  16.335   5.710  0.00  0.00     0.180 C 
BRANCH  35  36
HETATM   36  N   UNK N   1      29.019  14.962   5.727  0.00  0.00    -0.330 N 
HETATM   37  C   UNK N   1      29.090  14.042   4.720  0.00  0.00     0.319 C 
HETATM   38  N   UNK N   1      28.840  14.322   3.386  0.00  0.00    -0.333 N 
HETATM   39  O   UNK N   1      29.387  12.899   5.039  0.00  0.00    -0.247 OA
HETATM   40  C   UNK N   1      28.517  15.636   2.899  0.00  0.00     0.154 C 
HETATM   41  H   UNK N   1      29.329  14.640   6.604  0.00  0.00     0.165 HD
BRANCH  38  42
HETATM   42  C   UNK N   1      28.887  13.272   2.384  0.00  0.00     0.184 C 
BRANCH  42  43
HETATM   43  C   UNK N   1      27.577  12.569   2.261  0.00  0.00     0.034 A 
HETATM   44  N   UNK N   1      26.510  13.193   1.657  0.00  0.00    -0.355 N 
HETATM   45  C   UNK N   1      25.372  12.470   1.749  0.00  0.00     0.054 A 
ATOM     46  HN  UNK N   1      26.571  14.098   1.191  1.00  0.00     0.166 HD
HETATM   47  S   UNK N   1      25.696  11.065   2.566  0.00  0.00    -0.086 SA
HETATM   48  C   UNK N   1      27.310  11.319   2.851  0.00  0.00     0.078 A 
BRANCH  45  49
HETATM   49  C   UNK N   1      24.056  12.948   1.213  0.00  0.00     0.035 C 
HETATM   50  C   UNK N   1      23.698  12.169  -0.039  0.00  0.00     0.016 C 
HETATM   51  C   UNK N   1      24.065  14.430   0.887  0.00  0.00     0.016 C 
ENDBRANCH  45  49
ENDBRANCH  42  43
ENDBRANCH  38  42
ENDBRANCH  35  36
BRANCH  35  52
HETATM   52  C   UNK N   1      29.748  17.290   5.839  0.00  0.00     0.065 C 
BRANCH  52  53
HETATM   53  C   UNK N   1      30.676  16.790   6.947  0.00  0.00     0.275 C 
BRANCH  53  54
HETATM   54  N   UNK N   1      32.077  17.049   6.638  0.00  0.00     0.092 N 
HETATM   55  C   UNK N   1      32.403  16.230   5.466  0.00  0.00     0.298 C 
HETATM   56  C   UNK N   1      33.919  16.205   5.201  0.00  0.00     0.198 C 
HETATM   57  O   UNK N   1      34.619  16.974   6.149  0.00  0.00    -0.388 OA
HETATM   58  C   UNK N   1      34.354  16.391   7.400  0.00  0.00     0.198 C 
HETATM   59  C   UNK N   1      32.886  16.630   7.793  0.00  0.00     0.298 C 
ENDBRANCH  53  54
ENDBRANCH  52  53
ENDBRANCH  35  52
ENDBRANCH  32  35
ENDBRANCH   1  31
TORSDOF 20
ENDMDL
MODEL 6
REMARK VINA RESULT:      -7.6      3.815      9.956
REMARK  20 active torsions:
REMARK  status: ('A' for Active; 'I' for Inactive)
REMARK    1  A    between atoms: C_1  and  C_2 
REMARK    2  A    between atoms: C_1  and  C_3 
REMARK    3  A    between atoms: C_1  and  N_4 
REMARK    4  A    between atoms: C_2  and  C_43 
REMARK    5  A    between atoms: C_3  and  C_5 
REMARK       I    between atoms: N_4  and  C_6 
REMARK    6  A    between atoms: C_5  and  C_7 
REMARK    7  A    between atoms: C_6  and  C_8 
REMARK    8  A    between atoms: C_7  and  C_10 
REMARK    9  A    between atoms: C_7  and  N_11 
REMARK   10  A    between atoms: C_8  and  N_12 
REMARK   11  A    between atoms: C_8  and  C_49 
REMARK   12  A    between atoms: C_10  and  C_13 
REMARK       I    between atoms: N_11  and  C_14 
REMARK       I    between atoms: N_12  and  C_15 
REMARK   13  A    between atoms: C_14  and  O_18 
REMARK       I    between atoms: C_15  and  N_20 
REMARK   14  A    between atoms: O_18  and  C_24 
REMARK   15  A    between atoms: N_20  and  C_25 
REMARK   16  A    between atoms: C_24  and  C_28 
REMARK   17  A    between atoms: C_25  and  C_29 
REMARK   18  A    between atoms: C_38  and  C_40 
REMARK   19  A    between atoms: C_49  and  C_50 
REMARK   20  A    between atoms: C_50  and  N_51 
ROOT
HETATM    1  C   UNK N   1      22.484  13.287   7.325  0.00  0.00     0.088 C 
ENDROOT
BRANCH   1   2
HETATM    2  C   UNK N   1      21.747  12.399   8.341  0.00  0.00     0.063 C 
BRANCH   2   3
HETATM    3  C   UNK N   1      22.472  12.262   9.647  0.00  0.00    -0.056 A 
HETATM    4  C   UNK N   1      23.872  12.233   9.689  0.00  0.00     0.007 A 
HETATM    5  C   UNK N   1      24.532  12.081  10.912  0.00  0.00     0.001 A 
HETATM    6  C   UNK N   1      23.796  11.956  12.094  0.00  0.00     0.000 A 
HETATM    7  C   UNK N   1      22.399  11.989  12.054  0.00  0.00     0.001 A 
HETATM    8  C   UNK N   1      21.738  12.145  10.833  0.00  0.00     0.007 A 
ENDBRANCH   2   3
ENDBRANCH   1   2
BRANCH   1   9
HETATM    9  C   UNK N   1      22.244  14.772   7.606  0.00  0.00     0.027 C 
BRANCH   9  10
HETATM   10  C   UNK N   1      20.883  15.030   8.217  0.00  0.00     0.027 C 
BRANCH  10  11
HETATM   11  C   UNK N   1      20.359  16.349   7.677  0.00  0.00     0.091 C 
BRANCH  11  12
HETATM   12  C   UNK N   1      18.864  16.656   7.894  0.00  0.00     0.063 C 
BRANCH  12  13
HETATM   13  C   UNK N   1      18.526  17.541   9.060  0.00  0.00    -0.056 A 
HETATM   14  C   UNK N   1      17.272  17.446   9.668  0.00  0.00     0.007 A 
HETATM   15  C   UNK N   1      16.938  18.300  10.726  0.00  0.00     0.001 A 
HETATM   16  C   UNK N   1      17.858  19.251  11.179  0.00  0.00     0.000 A 
HETATM   17  C   UNK N   1      19.110  19.351  10.571  0.00  0.00     0.001 A 
HETATM   18  C   UNK N   1      19.437  18.506   9.508  0.00  0.00     0.007 A 
ENDBRANCH  12  13
ENDBRANCH  11  12
BRANCH  11  19
HETATM   19  N   UNK N   1      20.837  16.626   6.339  0.00  0.00    -0.332 N 
HETATM   20  C   UNK N   1      21.324  17.827   5.927  0.00  0.00     0.361 C 
HETATM   21  O   UNK N   1      21.415  18.760   6.710  0.00  0.00    -0.238 OA
HETATM   22  H   UNK N   1      20.809  15.894   5.682  0.00  0.00     0.165 HD
BRANCH  20  23
HETATM   23  O   UNK N   1      21.711  18.001   4.639  0.00  0.00    -0.299 OA
BRANCH  23  24
HETATM   24  C   UNK N   1      20.821  17.927   3.589  0.00  0.00     0.228 C 
BRANCH  24  25
HETATM   25  C   UNK N   1      21.085  16.711   2.771  0.00  0.00     0.023 A 
HETATM   26  C   UNK N   1      22.037  15.720   3.025  0.00  0.00     0.104 A 
HETATM   27  N   UNK N   1      22.073  14.717   2.078  0.00  0.00    -0.368 N 
HETATM   28  C   UNK N   1      21.172  14.891   1.071  0.00  0.00     0.138 A 
ATOM     29  HN  UNK N   1      22.711  13.923   2.127  1.00  0.00     0.165 HD
HETATM   30  S   UNK N   1      20.337  16.289   1.366  0.00  0.00    -0.086 SA
ENDBRANCH  24  25
ENDBRANCH  23  24
ENDBRANCH  20  23
ENDBRANCH  11  19
ENDBRANCH  10  11
ENDBRANCH   9  10
ENDBRANCH   1   9
BRANCH   1  31
HETATM   31  N   UNK N   1      22.027  12.982   5.989  0.00  0.00    -0.354 N 
HETATM   32  C   UNK N   1      22.694  12.253   5.052  0.00  0.00     0.240 C 
HETATM   33  O   UNK N   1      22.221  12.199   3.928  0.00  0.00    -0.271 OA
HETATM   34  H   UNK N   1      21.146  13.337   5.731  0.00  0.00     0.162 HD
BRANCH  32  35
HETATM   35  C   UNK N   1      24.004  11.509   5.304  0.00  0.00     0.180 C 
BRANCH  35  36
HETATM   36  N   UNK N   1      24.891  11.530   4.160  0.00  0.00    -0.330 N 
HETATM   37  C   UNK N   1      25.891  12.401   3.834  0.00  0.00     0.319 C 
HETATM   38  N   UNK N   1      26.349  13.412   4.665  0.00  0.00    -0.333 N 
HETATM   39  O   UNK N   1      26.396  12.270   2.728  0.00  0.00    -0.247 OA
HETATM   40  C   UNK N   1      25.849  13.633   5.994  0.00  0.00     0.154 C 
HETATM   41  H   UNK N   1      24.751  10.801   3.514  0.00  0.00     0.165 HD
BRANCH  38  42
HETATM   42  C   UNK N   1      27.382  14.329   4.219  0.00  0.00     0.184 C 
BRANCH  42  43
HETATM   43  C   UNK N   1      26.835  15.691   3.957  0.00  0.00     0.034 A 
HETATM   44  N   UNK N   1      27.313  16.777   4.653  0.00  0.00    -0.355 N 
HETATM   45  C   UNK N   1      26.619  17.905   4.388  0.00  0.00     0.054 A 
ATOM     46  HN  UNK N   1      28.103  16.735   5.297  1.00  0.00     0.166 HD
HETATM   47  S   UNK N   1      25.428  17.555   3.290  0.00  0.00    -0.086 SA
HETATM   48  C   UNK N   1      25.738  15.936   3.107  0.00  0.00     0.078 A 
BRANCH  45  49
HETATM   49  C   UNK N   1      26.908  19.217   5.053  0.00  0.00     0.035 C 
HETATM   50  C   UNK N   1      26.033  20.302   4.452  0.00  0.00     0.016 C 
HETATM   51  C   UNK N   1      28.363  19.627   4.922  0.00  0.00     0.016 C 
ENDBRANCH  45  49
ENDBRANCH  42  43
ENDBRANCH  38  42
ENDBRANCH  35  36
BRANCH  35  52
HETATM   52  C   UNK N   1      24.047  10.137   5.979  0.00  0.00     0.065 C 
BRANCH  52  53
HETATM   53  C   UNK N   1      22.676   9.471   5.850  0.00  0.00     0.275 C 
BRANCH  53  54
HETATM   54  N   UNK N   1      22.654   8.153   6.472  0.00  0.00     0.092 N 
HETATM   55  C   UNK N   1      23.879   8.049   7.271  0.00  0.00     0.298 C 
HETATM   56  C   UNK N   1      24.110   6.609   7.763  0.00  0.00     0.198 C 
HETATM   57  O   UNK N   1      23.088   5.747   7.325  0.00  0.00    -0.388 OA
HETATM   58  C   UNK N   1      23.128   5.772   5.921  0.00  0.00     0.198 C 
HETATM   59  C   UNK N   1      22.655   7.141   5.404  0.00  0.00     0.298 C 
ENDBRANCH  53  54
ENDBRANCH  52  53
ENDBRANCH  35  52
ENDBRANCH  32  35
ENDBRANCH   1  31
TORSDOF 20
ENDMDL
MODEL 7
REMARK VINA RESULT:      -7.5      2.999      6.698
REMARK  20 active torsions:
REMARK  status: ('A' for Active; 'I' for Inactive)
REMARK    1  A    between atoms: C_1  and  C_2 
REMARK    2  A    between atoms: C_1  and  C_3 
REMARK    3  A    between atoms: C_1  and  N_4 
REMARK    4  A    between atoms: C_2  and  C_43 
REMARK    5  A    between atoms: C_3  and  C_5 
REMARK       I    between atoms: N_4  and  C_6 
REMARK    6  A    between atoms: C_5  and  C_7 
REMARK    7  A    between atoms: C_6  and  C_8 
REMARK    8  A    between atoms: C_7  and  C_10 
REMARK    9  A    between atoms: C_7  and  N_11 
REMARK   10  A    between atoms: C_8  and  N_12 
REMARK   11  A    between atoms: C_8  and  C_49 
REMARK   12  A    between atoms: C_10  and  C_13 
REMARK       I    between atoms: N_11  and  C_14 
REMARK       I    between atoms: N_12  and  C_15 
REMARK   13  A    between atoms: C_14  and  O_18 
REMARK       I    between atoms: C_15  and  N_20 
REMARK   14  A    between atoms: O_18  and  C_24 
REMARK   15  A    between atoms: N_20  and  C_25 
REMARK   16  A    between atoms: C_24  and  C_28 
REMARK   17  A    between atoms: C_25  and  C_29 
REMARK   18  A    between atoms: C_38  and  C_40 
REMARK   19  A    between atoms: C_49  and  C_50 
REMARK   20  A    between atoms: C_50  and  N_51 
ROOT
HETATM    1  C   UNK N   1      23.503  11.812   6.690  0.00  0.00     0.088 C 
ENDROOT
BRANCH   1   2
HETATM    2  C   UNK N   1      23.210  13.032   7.579  0.00  0.00     0.063 C 
BRANCH   2   3
HETATM    3  C   UNK N   1      23.090  12.691   9.035  0.00  0.00    -0.056 A 
HETATM    4  C   UNK N   1      24.230  12.424   9.803  0.00  0.00     0.007 A 
HETATM    5  C   UNK N   1      24.100  12.084  11.153  0.00  0.00     0.001 A 
HETATM    6  C   UNK N   1      22.832  12.009  11.737  0.00  0.00     0.000 A 
HETATM    7  C   UNK N   1      21.693  12.280  10.973  0.00  0.00     0.001 A 
HETATM    8  C   UNK N   1      21.822  12.623   9.624  0.00  0.00     0.007 A 
ENDBRANCH   2   3
ENDBRANCH   1   2
BRANCH   1   9
HETATM    9  C   UNK N   1      24.252  12.217   5.418  0.00  0.00     0.027 C 
BRANCH   9  10
HETATM   10  C   UNK N   1      25.739  12.386   5.655  0.00  0.00     0.027 C 
BRANCH  10  11
HETATM   11  C   UNK N   1      26.292  13.305   4.579  0.00  0.00     0.091 C 
BRANCH  11  12
HETATM   12  C   UNK N   1      26.539  12.692   3.187  0.00  0.00     0.063 C 
BRANCH  12  13
HETATM   13  C   UNK N   1      25.467  12.916   2.159  0.00  0.00    -0.056 A 
HETATM   14  C   UNK N   1      25.045  11.859   1.348  0.00  0.00     0.007 A 
HETATM   15  C   UNK N   1      24.078  12.075   0.359  0.00  0.00     0.001 A 
HETATM   16  C   UNK N   1      23.531  13.349   0.178  0.00  0.00     0.000 A 
HETATM   17  C   UNK N   1      23.954  14.408   0.983  0.00  0.00     0.001 A 
HETATM   18  C   UNK N   1      24.927  14.193   1.961  0.00  0.00     0.007 A 
ENDBRANCH  12  13
ENDBRANCH  11  12
BRANCH  11  19
HETATM   19  N   UNK N   1      27.373  14.136   5.067  0.00  0.00    -0.332 N 
HETATM   20  C   UNK N   1      27.282  15.476   5.274  0.00  0.00     0.361 C 
HETATM   21  O   UNK N   1      26.228  16.063   5.083  0.00  0.00    -0.238 OA
HETATM   22  H   UNK N   1      28.233  13.700   5.262  0.00  0.00     0.165 HD
BRANCH  20  23
HETATM   23  O   UNK N   1      28.364  16.177   5.695  0.00  0.00    -0.299 OA
BRANCH  23  24
HETATM   24  C   UNK N   1      28.249  17.305   6.477  0.00  0.00     0.228 C 
BRANCH  24  25
HETATM   25  C   UNK N   1      29.434  17.440   7.368  0.00  0.00     0.023 A 
HETATM   26  C   UNK N   1      29.466  18.018   8.641  0.00  0.00     0.104 A 
HETATM   27  N   UNK N   1      30.716  18.025   9.225  0.00  0.00    -0.368 N 
HETATM   28  C   UNK N   1      31.683  17.471   8.443  0.00  0.00     0.138 A 
ATOM     29  HN  UNK N   1      30.897  18.409  10.152  1.00  0.00     0.165 HD
HETATM   30  S   UNK N   1      30.977  16.973   7.030  0.00  0.00    -0.086 SA
ENDBRANCH  24  25
ENDBRANCH  23  24
ENDBRANCH  20  23
ENDBRANCH  11  19
ENDBRANCH  10  11
ENDBRANCH   9  10
ENDBRANCH   1   9
BRANCH   1  31
HETATM   31  N   UNK N   1      22.264  11.169   6.321  0.00  0.00    -0.354 N 
HETATM   32  C   UNK N   1      21.264  11.708   5.569  0.00  0.00     0.240 C 
HETATM   33  O   UNK N   1      20.227  11.073   5.459  0.00  0.00    -0.271 OA
HETATM   34  H   UNK N   1      22.129  10.250   6.645  0.00  0.00     0.162 HD
BRANCH  32  35
HETATM   35  C   UNK N   1      21.343  13.061   4.866  0.00  0.00     0.180 C 
BRANCH  35  36
HETATM   36  N   UNK N   1      20.462  14.050   5.452  0.00  0.00    -0.330 N 
HETATM   37  C   UNK N   1      20.711  15.337   5.836  0.00  0.00     0.319 C 
HETATM   38  N   UNK N   1      21.899  16.009   5.594  0.00  0.00    -0.333 N 
HETATM   39  O   UNK N   1      19.817  15.914   6.438  0.00  0.00    -0.247 OA
HETATM   40  C   UNK N   1      22.999  15.438   4.867  0.00  0.00     0.154 C 
HETATM   41  H   UNK N   1      19.537  13.747   5.597  0.00  0.00     0.165 HD
BRANCH  38  42
HETATM   42  C   UNK N   1      22.101  17.361   6.084  0.00  0.00     0.184 C 
BRANCH  42  43
HETATM   43  C   UNK N   1      22.908  18.177   5.133  0.00  0.00     0.034 A 
HETATM   44  N   UNK N   1      24.238  18.422   5.384  0.00  0.00    -0.355 N 
HETATM   45  C   UNK N   1      24.781  19.283   4.496  0.00  0.00     0.054 A 
ATOM     46  HN  UNK N   1      24.757  18.001   6.155  1.00  0.00     0.166 HD
HETATM   47  S   UNK N   1      23.617  19.726   3.402  0.00  0.00    -0.086 SA
HETATM   48  C   UNK N   1      22.357  18.842   4.020  0.00  0.00     0.078 A 
BRANCH  45  49
HETATM   49  C   UNK N   1      26.202  19.751   4.577  0.00  0.00     0.035 C 
HETATM   50  C   UNK N   1      26.382  20.641   5.794  0.00  0.00     0.016 C 
HETATM   51  C   UNK N   1      26.633  20.517   3.339  0.00  0.00     0.016 C 
ENDBRANCH  45  49
ENDBRANCH  42  43
ENDBRANCH  38  42
ENDBRANCH  35  36
BRANCH  35  52
HETATM   52  C   UNK N   1      21.341  13.191   3.342  0.00  0.00     0.065 C 
BRANCH  52  53
HETATM   53  C   UNK N   1      20.055  13.889   2.899  0.00  0.00     0.275 C 
BRANCH  53  54
HETATM   54  N   UNK N   1      20.300  14.845   1.826  0.00  0.00     0.092 N 
HETATM   55  C   UNK N   1      20.220  16.178   2.431  0.00  0.00     0.298 C 
HETATM   56  C   UNK N   1      20.192  17.282   1.358  0.00  0.00     0.198 C 
HETATM   57  O   UNK N   1      20.251  16.740   0.061  0.00  0.00    -0.388 OA
HETATM   58  C   UNK N   1      19.113  15.927  -0.076  0.00  0.00     0.198 C 
HETATM   59  C   UNK N   1      19.244  14.680   0.815  0.00  0.00     0.298 C 
ENDBRANCH  53  54
ENDBRANCH  52  53
ENDBRANCH  35  52
ENDBRANCH  32  35
ENDBRANCH   1  31
TORSDOF 20
ENDMDL
MODEL 8
REMARK VINA RESULT:      -7.5      5.908     11.308
REMARK  20 active torsions:
REMARK  status: ('A' for Active; 'I' for Inactive)
REMARK    1  A    between atoms: C_1  and  C_2 
REMARK    2  A    between atoms: C_1  and  C_3 
REMARK    3  A    between atoms: C_1  and  N_4 
REMARK    4  A    between atoms: C_2  and  C_43 
REMARK    5  A    between atoms: C_3  and  C_5 
REMARK       I    between atoms: N_4  and  C_6 
REMARK    6  A    between atoms: C_5  and  C_7 
REMARK    7  A    between atoms: C_6  and  C_8 
REMARK    8  A    between atoms: C_7  and  C_10 
REMARK    9  A    between atoms: C_7  and  N_11 
REMARK   10  A    between atoms: C_8  and  N_12 
REMARK   11  A    between atoms: C_8  and  C_49 
REMARK   12  A    between atoms: C_10  and  C_13 
REMARK       I    between atoms: N_11  and  C_14 
REMARK       I    between atoms: N_12  and  C_15 
REMARK   13  A    between atoms: C_14  and  O_18 
REMARK       I    between atoms: C_15  and  N_20 
REMARK   14  A    between atoms: O_18  and  C_24 
REMARK   15  A    between atoms: N_20  and  C_25 
REMARK   16  A    between atoms: C_24  and  C_28 
REMARK   17  A    between atoms: C_25  and  C_29 
REMARK   18  A    between atoms: C_38  and  C_40 
REMARK   19  A    between atoms: C_49  and  C_50 
REMARK   20  A    between atoms: C_50  and  N_51 
ROOT
HETATM    1  C   UNK N   1      33.537  16.785   8.121  0.00  0.00     0.088 C 
ENDROOT
BRANCH   1   2
HETATM    2  C   UNK N   1      33.772  17.704   6.910  0.00  0.00     0.063 C 
BRANCH   2   3
HETATM    3  C   UNK N   1      33.643  16.996   5.594  0.00  0.00    -0.056 A 
HETATM    4  C   UNK N   1      33.032  17.623   4.501  0.00  0.00     0.007 A 
HETATM    5  C   UNK N   1      32.898  16.941   3.288  0.00  0.00     0.001 A 
HETATM    6  C   UNK N   1      33.374  15.632   3.165  0.00  0.00     0.000 A 
HETATM    7  C   UNK N   1      33.989  15.006   4.253  0.00  0.00     0.001 A 
HETATM    8  C   UNK N   1      34.126  15.689   5.465  0.00  0.00     0.007 A 
ENDBRANCH   2   3
ENDBRANCH   1   2
BRANCH   1   9
HETATM    9  C   UNK N   1      32.050  16.689   8.468  0.00  0.00     0.027 C 
BRANCH   9  10
HETATM   10  C   UNK N   1      31.227  17.757   7.777  0.00  0.00     0.027 C 
BRANCH  10  11
HETATM   11  C   UNK N   1      30.204  17.071   6.889  0.00  0.00     0.091 C 
BRANCH  11  12
HETATM   12  C   UNK N   1      28.719  17.391   7.147  0.00  0.00     0.063 C 
BRANCH  12  13
HETATM   13  C   UNK N   1      28.167  18.603   6.452  0.00  0.00    -0.056 A 
HETATM   14  C   UNK N   1      28.151  18.661   5.056  0.00  0.00     0.007 A 
HETATM   15  C   UNK N   1      27.677  19.808   4.406  0.00  0.00     0.001 A 
HETATM   16  C   UNK N   1      27.219  20.899   5.151  0.00  0.00     0.000 A 
HETATM   17  C   UNK N   1      27.238  20.846   6.545  0.00  0.00     0.001 A 
HETATM   18  C   UNK N   1      27.721  19.706   7.192  0.00  0.00     0.007 A 
ENDBRANCH  12  13
ENDBRANCH  11  12
BRANCH  11  19
HETATM   19  N   UNK N   1      30.488  15.663   6.706  0.00  0.00    -0.332 N 
HETATM   20  C   UNK N   1      30.351  14.995   5.530  0.00  0.00     0.361 C 
HETATM   21  O   UNK N   1      29.997  15.584   4.520  0.00  0.00    -0.238 OA
HETATM   22  H   UNK N   1      30.804  15.154   7.487  0.00  0.00     0.165 HD
BRANCH  20  23
HETATM   23  O   UNK N   1      30.603  13.664   5.468  0.00  0.00    -0.299 OA
BRANCH  23  24
HETATM   24  C   UNK N   1      30.023  12.851   4.517  0.00  0.00     0.228 C 
BRANCH  24  25
HETATM   25  C   UNK N   1      31.033  12.443   3.501  0.00  0.00     0.023 A 
HETATM   26  C   UNK N   1      32.234  11.769   3.736  0.00  0.00     0.104 A 
HETATM   27  N   UNK N   1      32.985  11.543   2.600  0.00  0.00    -0.368 N 
HETATM   28  C   UNK N   1      32.409  12.028   1.465  0.00  0.00     0.138 A 
ATOM     29  HN  UNK N   1      33.883  11.060   2.610  1.00  0.00     0.165 HD
HETATM   30  S   UNK N   1      30.970  12.733   1.881  0.00  0.00    -0.086 SA
ENDBRANCH  24  25
ENDBRANCH  23  24
ENDBRANCH  20  23
ENDBRANCH  11  19
ENDBRANCH  10  11
ENDBRANCH   9  10
ENDBRANCH   1   9
BRANCH   1  31
HETATM   31  N   UNK N   1      34.255  17.295   9.266  0.00  0.00    -0.354 N 
HETATM   32  C   UNK N   1      34.880  16.557  10.225  0.00  0.00     0.240 C 
HETATM   33  O   UNK N   1      35.330  17.145  11.195  0.00  0.00    -0.271 OA
HETATM   34  H   UNK N   1      34.297  18.273   9.362  0.00  0.00     0.162 HD
BRANCH  32  35
HETATM   35  C   UNK N   1      35.042  15.039  10.180  0.00  0.00     0.180 C 
BRANCH  35  36
HETATM   36  N   UNK N   1      33.784  14.345  10.001  0.00  0.00    -0.330 N 
HETATM   37  C   UNK N   1      33.390  13.466   9.032  0.00  0.00     0.319 C 
HETATM   38  N   UNK N   1      34.230  12.950   8.057  0.00  0.00    -0.333 N 
HETATM   39  O   UNK N   1      32.214  13.132   9.037  0.00  0.00    -0.247 OA
HETATM   40  C   UNK N   1      35.633  13.249   7.980  0.00  0.00     0.154 C 
HETATM   41  H   UNK N   1      33.103  14.537  10.686  0.00  0.00     0.165 HD
BRANCH  38  42
HETATM   42  C   UNK N   1      33.717  12.061   7.030  0.00  0.00     0.184 C 
BRANCH  42  43
HETATM   43  C   UNK N   1      33.770  10.634   7.460  0.00  0.00     0.034 A 
HETATM   44  N   UNK N   1      33.161  10.239   8.629  0.00  0.00    -0.355 N 
HETATM   45  C   UNK N   1      33.418   8.948   8.932  0.00  0.00     0.054 A 
ATOM     46  HN  UNK N   1      32.581  10.852   9.201  1.00  0.00     0.166 HD
HETATM   47  S   UNK N   1      34.386   8.303   7.751  0.00  0.00    -0.086 SA
HETATM   48  C   UNK N   1      34.531   9.652   6.796  0.00  0.00     0.078 A 
BRANCH  45  49
HETATM   49  C   UNK N   1      32.913   8.286  10.179  0.00  0.00     0.035 C 
HETATM   50  C   UNK N   1      34.080   7.925  11.079  0.00  0.00     0.016 C 
HETATM   51  C   UNK N   1      32.110   7.032   9.886  0.00  0.00     0.016 C 
ENDBRANCH  45  49
ENDBRANCH  42  43
ENDBRANCH  38  42
ENDBRANCH  35  36
BRANCH  35  52
HETATM   52  C   UNK N   1      35.924  14.282  11.175  0.00  0.00     0.065 C 
BRANCH  52  53
HETATM   53  C   UNK N   1      35.070  13.261  11.928  0.00  0.00     0.275 C 
BRANCH  53  54
HETATM   54  N   UNK N   1      35.444  13.173  13.334  0.00  0.00     0.092 N 
HETATM   55  C   UNK N   1      36.193  14.396  13.642  0.00  0.00     0.298 C 
HETATM   56  C   UNK N   1      36.876  14.306  15.018  0.00  0.00     0.198 C 
HETATM   57  O   UNK N   1      36.613  13.072  15.642  0.00  0.00    -0.388 OA
HETATM   58  C   UNK N   1      37.140  12.084  14.794  0.00  0.00     0.198 C 
HETATM   59  C   UNK N   1      36.304  11.992  13.507  0.00  0.00     0.298 C 
ENDBRANCH  53  54
ENDBRANCH  52  53
ENDBRANCH  35  52
ENDBRANCH  32  35
ENDBRANCH   1  31
TORSDOF 20
ENDMDL
MODEL 9
REMARK VINA RESULT:      -7.4      2.200      9.068
REMARK  20 active torsions:
REMARK  status: ('A' for Active; 'I' for Inactive)
REMARK    1  A    between atoms: C_1  and  C_2 
REMARK    2  A    between atoms: C_1  and  C_3 
REMARK    3  A    between atoms: C_1  and  N_4 
REMARK    4  A    between atoms: C_2  and  C_43 
REMARK    5  A    between atoms: C_3  and  C_5 
REMARK       I    between atoms: N_4  and  C_6 
REMARK    6  A    between atoms: C_5  and  C_7 
REMARK    7  A    between atoms: C_6  and  C_8 
REMARK    8  A    between atoms: C_7  and  C_10 
REMARK    9  A    between atoms: C_7  and  N_11 
REMARK   10  A    between atoms: C_8  and  N_12 
REMARK   11  A    between atoms: C_8  and  C_49 
REMARK   12  A    between atoms: C_10  and  C_13 
REMARK       I    between atoms: N_11  and  C_14 
REMARK       I    between atoms: N_12  and  C_15 
REMARK   13  A    between atoms: C_14  and  O_18 
REMARK       I    between atoms: C_15  and  N_20 
REMARK   14  A    between atoms: O_18  and  C_24 
REMARK   15  A    between atoms: N_20  and  C_25 
REMARK   16  A    between atoms: C_24  and  C_28 
REMARK   17  A    between atoms: C_25  and  C_29 
REMARK   18  A    between atoms: C_38  and  C_40 
REMARK   19  A    between atoms: C_49  and  C_50 
REMARK   20  A    between atoms: C_50  and  N_51 
ROOT
HETATM    1  C   UNK N   1      25.384  14.972   5.022  0.00  0.00     0.088 C 
ENDROOT
BRANCH   1   2
HETATM    2  C   UNK N   1      25.566  16.209   5.917  0.00  0.00     0.063 C 
BRANCH   2   3
HETATM    3  C   UNK N   1      26.050  17.417   5.171  0.00  0.00    -0.056 A 
HETATM    4  C   UNK N   1      27.214  18.086   5.568  0.00  0.00     0.007 A 
HETATM    5  C   UNK N   1      27.638  19.224   4.876  0.00  0.00     0.001 A 
HETATM    6  C   UNK N   1      26.898  19.697   3.788  0.00  0.00     0.000 A 
HETATM    7  C   UNK N   1      25.738  19.028   3.387  0.00  0.00     0.001 A 
HETATM    8  C   UNK N   1      25.316  17.888   4.076  0.00  0.00     0.007 A 
ENDBRANCH   2   3
ENDBRANCH   1   2
BRANCH   1   9
HETATM    9  C   UNK N   1      23.989  14.365   5.188  0.00  0.00     0.027 C 
BRANCH   9  10
HETATM   10  C   UNK N   1      22.959  15.038   4.305  0.00  0.00     0.027 C 
BRANCH  10  11
HETATM   11  C   UNK N   1      21.875  15.621   5.195  0.00  0.00     0.091 C 
BRANCH  11  12
HETATM   12  C   UNK N   1      21.892  17.145   5.421  0.00  0.00     0.063 C 
BRANCH  12  13
HETATM   13  C   UNK N   1      21.332  17.991   4.314  0.00  0.00    -0.056 A 
HETATM   14  C   UNK N   1      21.984  19.168   3.936  0.00  0.00     0.007 A 
HETATM   15  C   UNK N   1      21.440  19.982   2.934  0.00  0.00     0.001 A 
HETATM   16  C   UNK N   1      20.243  19.620   2.309  0.00  0.00     0.000 A 
HETATM   17  C   UNK N   1      19.587  18.449   2.687  0.00  0.00     0.001 A 
HETATM   18  C   UNK N   1      20.125  17.644   3.694  0.00  0.00     0.007 A 
ENDBRANCH  12  13
ENDBRANCH  11  12
BRANCH  11  19
HETATM   19  N   UNK N   1      21.670  14.841   6.397  0.00  0.00    -0.332 N 
HETATM   20  C   UNK N   1      20.469  14.349   6.803  0.00  0.00     0.361 C 
HETATM   21  O   UNK N   1      19.468  14.522   6.124  0.00  0.00    -0.238 OA
HETATM   22  H   UNK N   1      22.455  14.652   6.961  0.00  0.00     0.165 HD
BRANCH  20  23
HETATM   23  O   UNK N   1      20.370  13.663   7.968  0.00  0.00    -0.299 OA
BRANCH  23  24
HETATM   24  C   UNK N   1      20.633  14.248   9.188  0.00  0.00     0.228 C 
BRANCH  24  25
HETATM   25  C   UNK N   1      21.661  13.464   9.928  0.00  0.00     0.023 A 
HETATM   26  C   UNK N   1      23.045  13.505   9.738  0.00  0.00     0.104 A 
HETATM   27  N   UNK N   1      23.751  12.646  10.555  0.00  0.00    -0.368 N 
HETATM   28  C   UNK N   1      22.958  11.915  11.387  0.00  0.00     0.138 A 
ATOM     29  HN  UNK N   1      24.767  12.566  10.536  1.00  0.00     0.165 HD
HETATM   30  S   UNK N   1      21.385  12.344  11.104  0.00  0.00    -0.086 SA
ENDBRANCH  24  25
ENDBRANCH  23  24
ENDBRANCH  20  23
ENDBRANCH  11  19
ENDBRANCH  10  11
ENDBRANCH   9  10
ENDBRANCH   1   9
BRANCH   1  31
HETATM   31  N   UNK N   1      26.373  13.976   5.359  0.00  0.00    -0.354 N 
HETATM   32  C   UNK N   1      27.377  13.526   4.556  0.00  0.00     0.240 C 
HETATM   33  O   UNK N   1      28.048  12.587   4.951  0.00  0.00    -0.271 OA
HETATM   34  H   UNK N   1      26.317  13.583   6.260  0.00  0.00     0.162 HD
BRANCH  32  35
HETATM   35  C   UNK N   1      27.712  14.106   3.183  0.00  0.00     0.180 C 
BRANCH  35  36
HETATM   36  N   UNK N   1      28.328  15.414   3.260  0.00  0.00    -0.330 N 
HETATM   37  C   UNK N   1      29.647  15.769   3.279  0.00  0.00     0.319 C 
HETATM   38  N   UNK N   1      30.696  14.886   3.082  0.00  0.00    -0.333 N 
HETATM   39  O   UNK N   1      29.896  16.947   3.494  0.00  0.00    -0.247 OA
HETATM   40  C   UNK N   1      30.515  13.491   2.789  0.00  0.00     0.154 C 
HETATM   41  H   UNK N   1      27.696  16.167   3.307  0.00  0.00     0.165 HD
BRANCH  38  42
HETATM   42  C   UNK N   1      32.074  15.338   3.171  0.00  0.00     0.184 C 
BRANCH  42  43
HETATM   43  C   UNK N   1      32.522  15.465   4.588  0.00  0.00     0.034 A 
HETATM   44  N   UNK N   1      32.432  16.674   5.238  0.00  0.00    -0.355 N 
HETATM   45  C   UNK N   1      33.001  16.643   6.463  0.00  0.00     0.054 A 
ATOM     46  HN  UNK N   1      31.985  17.499   4.841  1.00  0.00     0.166 HD
HETATM   47  S   UNK N   1      33.602  15.123   6.735  0.00  0.00    -0.086 SA
HETATM   48  C   UNK N   1      33.170  14.431   5.292  0.00  0.00     0.078 A 
BRANCH  45  49
HETATM   49  C   UNK N   1      33.079  17.844   7.357  0.00  0.00     0.035 C 
HETATM   50  C   UNK N   1      34.440  17.897   8.028  0.00  0.00     0.016 C 
HETATM   51  C   UNK N   1      32.002  17.844   8.426  0.00  0.00     0.016 C 
ENDBRANCH  45  49
ENDBRANCH  42  43
ENDBRANCH  38  42
ENDBRANCH  35  36
BRANCH  35  52
HETATM   52  C   UNK N   1      26.727  14.055   2.013  0.00  0.00     0.065 C 
BRANCH  52  53
HETATM   53  C   UNK N   1      26.162  12.640   1.893  0.00  0.00     0.275 C 
BRANCH  53  54
HETATM   54  N   UNK N   1      24.853  12.632   1.253  0.00  0.00     0.092 N 
HETATM   55  C   UNK N   1      24.440  14.033   1.133  0.00  0.00     0.298 C 
HETATM   56  C   UNK N   1      22.961  14.151   0.721  0.00  0.00     0.198 C 
HETATM   57  O   UNK N   1      22.371  12.884   0.560  0.00  0.00    -0.388 OA
HETATM   58  C   UNK N   1      22.457  12.249   1.809  0.00  0.00     0.198 C 
HETATM   59  C   UNK N   1      23.921  11.898   2.123  0.00  0.00     0.298 C 
ENDBRANCH  53  54
ENDBRANCH  52  53
ENDBRANCH  35  52
ENDBRANCH  32  35
ENDBRANCH   1  31
TORSDOF 20
ENDMDL
