MODEL 1
REMARK VINA RESULT:      -6.7      0.000      0.000
REMARK  3 active torsions:
REMARK  status: ('A' for Active; 'I' for Inactive)
REMARK    1  A    between atoms: C_2  and  C_10 
REMARK    2  A    between atoms: C_5  and  N_7 
REMARK    3  A    between atoms: C_17  and  O_20 
ROOT
HETATM    1  C   UNK N   1      27.397  18.789   5.842  0.00  0.00     0.085 A 
HETATM    2  S   UNK N   1      27.380  20.058   4.763  0.00  0.00    -0.069 SA
HETATM    3  C   UNK N   1      25.824  19.867   4.261  0.00  0.00     0.036 A 
HETATM    4  C   UNK N   1      25.306  18.777   4.962  0.00  0.00     0.050 A 
HETATM    5  N   UNK N   1      26.176  18.175   5.844  0.00  0.00    -0.349 N 
ATOM      6  HN  UNK N   1      25.939  17.371   6.425  1.00  0.00     0.166 HD
HETATM    7  C   UNK N   1      25.080  20.584   3.335  0.00  0.00     0.057 A 
HETATM    8  C   UNK N   1      23.754  20.181   3.108  0.00  0.00     0.067 A 
HETATM    9  C   UNK N   1      23.214  19.080   3.810  0.00  0.00     0.039 A 
HETATM   10  C   UNK N   1      23.991  18.370   4.745  0.00  0.00     0.034 A 
ENDROOT
BRANCH   1  11
HETATM   11  C   UNK N   1      28.537  18.376   6.675  0.00  0.00     0.001 A 
HETATM   12  C   UNK N   1      28.656  18.841   7.992  0.00  0.00     0.059 A 
HETATM   13  C   UNK N   1      29.733  18.443   8.790  0.00  0.00     0.143 A 
HETATM   14  C   UNK N   1      30.703  17.572   8.275  0.00  0.00     0.066 A 
HETATM   15  F   UNK N   1      29.832  18.902  10.062  0.00  0.00    -0.204 F 
HETATM   16  C   UNK N   1      30.586  17.111   6.954  0.00  0.00     0.033 A 
HETATM   17  C   UNK N   1      29.510  17.513   6.159  0.00  0.00     0.017 A 
BRANCH  14  18
HETATM   18  N   UNK N   1      31.784  17.164   9.095  0.00  0.00    -0.392 N 
HETATM   19  C   UNK N   1      33.146  17.176   8.626  0.00  0.00     0.146 C 
HETATM   20  H   UNK N   1      31.599  16.863  10.014  0.00  0.00     0.159 HD
ENDBRANCH  14  18
ENDBRANCH   1  11
BRANCH   8  21
HETATM   21  O   UNK N   1      22.997  20.846   2.221  0.00  0.00    -0.361 OA
HETATM   22  H   UNK N   1      23.077  20.660   1.306  0.00  0.00     0.217 HD
ENDBRANCH   8  21
TORSDOF 3
ENDMDL
MODEL 2
REMARK VINA RESULT:      -6.1      7.694     10.002
REMARK  3 active torsions:
REMARK  status: ('A' for Active; 'I' for Inactive)
REMARK    1  A    between atoms: C_2  and  C_10 
REMARK    2  A    between atoms: C_5  and  N_7 
REMARK    3  A    between atoms: C_17  and  O_20 
ROOT
HETATM    1  C   UNK N   1      34.970  15.005  10.576  0.00  0.00     0.085 A 
HETATM    2  S   UNK N   1      35.379  14.439   9.063  0.00  0.00    -0.069 SA
HETATM    3  C   UNK N   1      34.660  15.643   8.202  0.00  0.00     0.036 A 
HETATM    4  C   UNK N   1      34.084  16.512   9.129  0.00  0.00     0.050 A 
HETATM    5  N   UNK N   1      34.255  16.163  10.451  0.00  0.00    -0.349 N 
ATOM      6  HN  UNK N   1      33.893  16.701  11.238  1.00  0.00     0.166 HD
HETATM    7  C   UNK N   1      34.579  15.847   6.832  0.00  0.00     0.057 A 
HETATM    8  C   UNK N   1      33.886  16.982   6.381  0.00  0.00     0.067 A 
HETATM    9  C   UNK N   1      33.298  17.874   7.306  0.00  0.00     0.039 A 
HETATM   10  C   UNK N   1      33.395  17.641   8.691  0.00  0.00     0.034 A 
ENDROOT
BRANCH   1  11
HETATM   11  C   UNK N   1      35.315  14.374  11.859  0.00  0.00     0.001 A 
HETATM   12  C   UNK N   1      36.083  15.067  12.804  0.00  0.00     0.059 A 
HETATM   13  C   UNK N   1      36.405  14.474  14.029  0.00  0.00     0.143 A 
HETATM   14  C   UNK N   1      35.956  13.179  14.320  0.00  0.00     0.066 A 
HETATM   15  F   UNK N   1      37.149  15.159  14.932  0.00  0.00    -0.204 F 
HETATM   16  C   UNK N   1      35.191  12.483  13.371  0.00  0.00     0.033 A 
HETATM   17  C   UNK N   1      34.874  13.078  12.147  0.00  0.00     0.017 A 
BRANCH  14  18
HETATM   18  N   UNK N   1      36.277  12.591  15.569  0.00  0.00    -0.392 N 
HETATM   19  C   UNK N   1      35.455  12.783  16.737  0.00  0.00     0.146 C 
HETATM   20  H   UNK N   1      37.086  12.034  15.641  0.00  0.00     0.159 HD
ENDBRANCH  14  18
ENDBRANCH   1  11
BRANCH   8  21
HETATM   21  O   UNK N   1      33.783  17.221   5.064  0.00  0.00    -0.361 OA
HETATM   22  H   UNK N   1      33.152  17.837   4.748  0.00  0.00     0.217 HD
ENDBRANCH   8  21
TORSDOF 3
ENDMDL
MODEL 3
REMARK VINA RESULT:      -6.1      7.950     10.569
REMARK  3 active torsions:
REMARK  status: ('A' for Active; 'I' for Inactive)
REMARK    1  A    between atoms: C_2  and  C_10 
REMARK    2  A    between atoms: C_5  and  N_7 
REMARK    3  A    between atoms: C_17  and  O_20 
ROOT
HETATM    1  C   UNK N   1      34.954  14.635  11.502  0.00  0.00     0.085 A 
HETATM    2  S   UNK N   1      35.666  16.051  10.991  0.00  0.00    -0.069 SA
HETATM    3  C   UNK N   1      34.718  16.279   9.665  0.00  0.00     0.036 A 
HETATM    4  C   UNK N   1      33.818  15.214   9.625  0.00  0.00     0.050 A 
HETATM    5  N   UNK N   1      33.944  14.297  10.646  0.00  0.00    -0.349 N 
ATOM      6  HN  UNK N   1      33.357  13.468  10.749  1.00  0.00     0.166 HD
HETATM    7  C   UNK N   1      34.727  17.289   8.713  0.00  0.00     0.057 A 
HETATM    8  C   UNK N   1      33.784  17.216   7.675  0.00  0.00     0.067 A 
HETATM    9  C   UNK N   1      32.865  16.144   7.619  0.00  0.00     0.039 A 
HETATM   10  C   UNK N   1      32.879  15.133   8.600  0.00  0.00     0.034 A 
ENDROOT
BRANCH   1  11
HETATM   11  C   UNK N   1      35.335  13.853  12.689  0.00  0.00     0.001 A 
HETATM   12  C   UNK N   1      36.218  14.390  13.636  0.00  0.00     0.059 A 
HETATM   13  C   UNK N   1      36.575  13.654  14.770  0.00  0.00     0.143 A 
HETATM   14  C   UNK N   1      36.047  12.371  14.967  0.00  0.00     0.066 A 
HETATM   15  F   UNK N   1      37.431  14.188  15.676  0.00  0.00    -0.204 F 
HETATM   16  C   UNK N   1      35.166  11.832  14.016  0.00  0.00     0.033 A 
HETATM   17  C   UNK N   1      34.814  12.569  12.883  0.00  0.00     0.017 A 
BRANCH  14  18
HETATM   18  N   UNK N   1      36.404  11.637  16.126  0.00  0.00    -0.392 N 
HETATM   19  C   UNK N   1      35.527  11.529  17.263  0.00  0.00     0.146 C 
HETATM   20  H   UNK N   1      37.280  11.187  16.155  0.00  0.00     0.159 HD
ENDBRANCH  14  18
ENDBRANCH   1  11
BRANCH   8  21
HETATM   21  O   UNK N   1      33.756  18.171   6.731  0.00  0.00    -0.361 OA
HETATM   22  H   UNK N   1      33.384  19.009   6.924  0.00  0.00     0.217 HD
ENDBRANCH   8  21
TORSDOF 3
ENDMDL
MODEL 4
REMARK VINA RESULT:      -6.1     11.446     14.075
REMARK  3 active torsions:
REMARK  status: ('A' for Active; 'I' for Inactive)
REMARK    1  A    between atoms: C_2  and  C_10 
REMARK    2  A    between atoms: C_5  and  N_7 
REMARK    3  A    between atoms: C_17  and  O_20 
ROOT
HETATM    1  C   UNK N   1      35.414  12.617  15.117  0.00  0.00     0.085 A 
HETATM    2  S   UNK N   1      34.867  11.668  13.862  0.00  0.00    -0.069 SA
HETATM    3  C   UNK N   1      35.149  12.754  12.658  0.00  0.00     0.036 A 
HETATM    4  C   UNK N   1      35.688  13.891  13.259  0.00  0.00     0.050 A 
HETATM    5  N   UNK N   1      35.839  13.820  14.627  0.00  0.00    -0.349 N 
ATOM      6  HN  UNK N   1      36.220  14.571  15.203  1.00  0.00     0.166 HD
HETATM    7  C   UNK N   1      34.931  12.661  11.290  0.00  0.00     0.057 A 
HETATM    8  C   UNK N   1      35.274  13.768  10.498  0.00  0.00     0.067 A 
HETATM    9  C   UNK N   1      35.821  14.928  11.091  0.00  0.00     0.039 A 
HETATM   10  C   UNK N   1      36.032  14.995  12.482  0.00  0.00     0.034 A 
ENDROOT
BRANCH   1  11
HETATM   11  C   UNK N   1      35.445  12.239  16.538  0.00  0.00     0.001 A 
HETATM   12  C   UNK N   1      35.047  13.154  17.523  0.00  0.00     0.059 A 
HETATM   13  C   UNK N   1      35.067  12.795  18.874  0.00  0.00     0.143 A 
HETATM   14  C   UNK N   1      35.483  11.511  19.252  0.00  0.00     0.066 A 
HETATM   15  F   UNK N   1      34.679  13.693  19.813  0.00  0.00    -0.204 F 
HETATM   16  C   UNK N   1      35.885  10.597  18.266  0.00  0.00     0.033 A 
HETATM   17  C   UNK N   1      35.867  10.960  16.917  0.00  0.00     0.017 A 
BRANCH  14  18
HETATM   18  N   UNK N   1      35.487  11.153  20.623  0.00  0.00    -0.392 N 
HETATM   19  C   UNK N   1      34.926   9.910  21.089  0.00  0.00     0.146 C 
HETATM   20  H   UNK N   1      35.884  11.772  21.278  0.00  0.00     0.159 HD
ENDBRANCH  14  18
ENDBRANCH   1  11
BRANCH   8  21
HETATM   21  O   UNK N   1      35.080  13.724   9.170  0.00  0.00    -0.361 OA
HETATM   22  H   UNK N   1      34.579  14.393   8.748  0.00  0.00     0.217 HD
ENDBRANCH   8  21
TORSDOF 3
ENDMDL
MODEL 5
REMARK VINA RESULT:      -6.0     13.004     13.759
REMARK  3 active torsions:
REMARK  status: ('A' for Active; 'I' for Inactive)
REMARK    1  A    between atoms: C_2  and  C_10 
REMARK    2  A    between atoms: C_5  and  N_7 
REMARK    3  A    between atoms: C_17  and  O_20 
ROOT
HETATM    1  C   UNK N   1      27.707  23.598  -5.950  0.00  0.00     0.085 A 
HETATM    2  S   UNK N   1      28.061  24.315  -4.489  0.00  0.00    -0.069 SA
HETATM    3  C   UNK N   1      26.970  25.542  -4.603  0.00  0.00     0.036 A 
HETATM    4  C   UNK N   1      26.311  25.382  -5.822  0.00  0.00     0.050 A 
HETATM    5  N   UNK N   1      26.715  24.301  -6.575  0.00  0.00    -0.349 N 
ATOM      6  HN  UNK N   1      26.325  24.056  -7.485  1.00  0.00     0.166 HD
HETATM    7  C   UNK N   1      26.684  26.579  -3.726  0.00  0.00     0.057 A 
HETATM    8  C   UNK N   1      25.686  27.493  -4.100  0.00  0.00     0.067 A 
HETATM    9  C   UNK N   1      25.007  27.346  -5.331  0.00  0.00     0.039 A 
HETATM   10  C   UNK N   1      25.319  26.284  -6.201  0.00  0.00     0.034 A 
ENDROOT
BRANCH   1  11
HETATM   11  C   UNK N   1      28.348  22.394  -6.502  0.00  0.00     0.001 A 
HETATM   12  C   UNK N   1      29.467  21.836  -5.869  0.00  0.00     0.059 A 
HETATM   13  C   UNK N   1      30.073  20.686  -6.386  0.00  0.00     0.143 A 
HETATM   14  C   UNK N   1      29.560  20.082  -7.542  0.00  0.00     0.066 A 
HETATM   15  F   UNK N   1      31.155  20.159  -5.762  0.00  0.00    -0.204 F 
HETATM   16  C   UNK N   1      28.441  20.645  -8.177  0.00  0.00     0.033 A 
HETATM   17  C   UNK N   1      27.841  21.795  -7.660  0.00  0.00     0.017 A 
BRANCH  14  18
HETATM   18  N   UNK N   1      30.172  18.910  -8.050  0.00  0.00    -0.392 N 
HETATM   19  C   UNK N   1      30.045  18.518  -9.431  0.00  0.00     0.146 C 
HETATM   20  H   UNK N   1      30.701  18.345  -7.441  0.00  0.00     0.159 HD
ENDBRANCH  14  18
ENDBRANCH   1  11
BRANCH   8  21
HETATM   21  O   UNK N   1      25.375  28.513  -3.283  0.00  0.00    -0.361 OA
HETATM   22  H   UNK N   1      24.543  28.936  -3.359  0.00  0.00     0.217 HD
ENDBRANCH   8  21
TORSDOF 3
ENDMDL
MODEL 6
REMARK VINA RESULT:      -6.0      2.247      2.830
REMARK  3 active torsions:
REMARK  status: ('A' for Active; 'I' for Inactive)
REMARK    1  A    between atoms: C_2  and  C_10 
REMARK    2  A    between atoms: C_5  and  N_7 
REMARK    3  A    between atoms: C_17  and  O_20 
ROOT
HETATM    1  C   UNK N   1      28.221  18.190   4.977  0.00  0.00     0.085 A 
HETATM    2  S   UNK N   1      26.743  17.513   5.339  0.00  0.00    -0.069 SA
HETATM    3  C   UNK N   1      25.826  18.568   4.470  0.00  0.00     0.036 A 
HETATM    4  C   UNK N   1      26.706  19.474   3.879  0.00  0.00     0.050 A 
HETATM    5  N   UNK N   1      28.040  19.268   4.157  0.00  0.00    -0.349 N 
ATOM      6  HN  UNK N   1      28.798  19.848   3.796  1.00  0.00     0.166 HD
HETATM    7  C   UNK N   1      24.451  18.634   4.294  0.00  0.00     0.057 A 
HETATM    8  C   UNK N   1      23.946  19.664   3.483  0.00  0.00     0.067 A 
HETATM    9  C   UNK N   1      24.823  20.591   2.877  0.00  0.00     0.039 A 
HETATM   10  C   UNK N   1      26.215  20.499   3.074  0.00  0.00     0.034 A 
ENDROOT
BRANCH   1  11
HETATM   11  C   UNK N   1      29.530  17.717   5.453  0.00  0.00     0.001 A 
HETATM   12  C   UNK N   1      30.633  17.700   4.589  0.00  0.00     0.059 A 
HETATM   13  C   UNK N   1      31.882  17.260   5.041  0.00  0.00     0.143 A 
HETATM   14  C   UNK N   1      32.036  16.835   6.367  0.00  0.00     0.066 A 
HETATM   15  F   UNK N   1      32.938  17.251   4.192  0.00  0.00    -0.204 F 
HETATM   16  C   UNK N   1      30.930  16.847   7.231  0.00  0.00     0.033 A 
HETATM   17  C   UNK N   1      29.684  17.284   6.775  0.00  0.00     0.017 A 
BRANCH  14  18
HETATM   18  N   UNK N   1      33.308  16.403   6.820  0.00  0.00    -0.392 N 
HETATM   19  C   UNK N   1      34.282  17.321   7.352  0.00  0.00     0.146 C 
HETATM   20  H   UNK N   1      33.533  15.445   6.769  0.00  0.00     0.159 HD
ENDBRANCH  14  18
ENDBRANCH   1  11
BRANCH   8  21
HETATM   21  O   UNK N   1      22.622  19.768   3.284  0.00  0.00    -0.361 OA
HETATM   22  H   UNK N   1      22.175  19.128   2.766  0.00  0.00     0.217 HD
ENDBRANCH   8  21
TORSDOF 3
ENDMDL
MODEL 7
REMARK VINA RESULT:      -6.0      7.382      9.635
REMARK  3 active torsions:
REMARK  status: ('A' for Active; 'I' for Inactive)
REMARK    1  A    between atoms: C_2  and  C_10 
REMARK    2  A    between atoms: C_5  and  N_7 
REMARK    3  A    between atoms: C_17  and  O_20 
ROOT
HETATM    1  C   UNK N   1      21.844  15.467   6.899  0.00  0.00     0.085 A 
HETATM    2  S   UNK N   1      23.079  14.366   7.091  0.00  0.00    -0.069 SA
HETATM    3  C   UNK N   1      22.480  13.632   8.437  0.00  0.00     0.036 A 
HETATM    4  C   UNK N   1      21.277  14.269   8.741  0.00  0.00     0.050 A 
HETATM    5  N   UNK N   1      20.917  15.290   7.888  0.00  0.00    -0.349 N 
ATOM      6  HN  UNK N   1      20.066  15.844   7.983  1.00  0.00     0.166 HD
HETATM    7  C   UNK N   1      22.988  12.586   9.195  0.00  0.00     0.057 A 
HETATM    8  C   UNK N   1      22.243  12.166  10.309  0.00  0.00     0.067 A 
HETATM    9  C   UNK N   1      21.022  12.800  10.632  0.00  0.00     0.039 A 
HETATM   10  C   UNK N   1      20.532  13.860   9.845  0.00  0.00     0.034 A 
ENDROOT
BRANCH   1  11
HETATM   11  C   UNK N   1      21.744  16.480   5.837  0.00  0.00     0.001 A 
HETATM   12  C   UNK N   1      20.565  16.605   5.088  0.00  0.00     0.059 A 
HETATM   13  C   UNK N   1      20.463  17.574   4.084  0.00  0.00     0.143 A 
HETATM   14  C   UNK N   1      21.542  18.429   3.823  0.00  0.00     0.066 A 
HETATM   15  F   UNK N   1      19.317  17.681   3.369  0.00  0.00    -0.204 F 
HETATM   16  C   UNK N   1      22.724  18.300   4.571  0.00  0.00     0.033 A 
HETATM   17  C   UNK N   1      22.823  17.329   5.571  0.00  0.00     0.017 A 
BRANCH  14  18
HETATM   18  N   UNK N   1      21.425  19.415   2.813  0.00  0.00    -0.392 N 
HETATM   19  C   UNK N   1      20.701  20.643   3.024  0.00  0.00     0.146 C 
HETATM   20  H   UNK N   1      21.851  19.257   1.939  0.00  0.00     0.159 HD
ENDBRANCH  14  18
ENDBRANCH   1  11
BRANCH   8  21
HETATM   21  O   UNK N   1      22.695  11.158  11.072  0.00  0.00    -0.361 OA
HETATM   22  H   UNK N   1      22.381  11.057  11.949  0.00  0.00     0.217 HD
ENDBRANCH   8  21
TORSDOF 3
ENDMDL
MODEL 8
REMARK VINA RESULT:      -5.9      4.179      7.724
REMARK  3 active torsions:
REMARK  status: ('A' for Active; 'I' for Inactive)
REMARK    1  A    between atoms: C_2  and  C_10 
REMARK    2  A    between atoms: C_5  and  N_7 
REMARK    3  A    between atoms: C_17  and  O_20 
ROOT
HETATM    1  C   UNK N   1      28.386  18.158   5.027  0.00  0.00     0.085 A 
HETATM    2  S   UNK N   1      28.675  17.556   6.553  0.00  0.00    -0.069 SA
HETATM    3  C   UNK N   1      30.265  17.198   6.324  0.00  0.00     0.036 A 
HETATM    4  C   UNK N   1      30.575  17.563   5.013  0.00  0.00     0.050 A 
HETATM    5  N   UNK N   1      29.534  18.099   4.288  0.00  0.00    -0.349 N 
ATOM      6  HN  UNK N   1      29.609  18.412   3.320  1.00  0.00     0.166 HD
HETATM    7  C   UNK N   1      31.198  16.642   7.188  0.00  0.00     0.057 A 
HETATM    8  C   UNK N   1      32.502  16.449   6.704  0.00  0.00     0.067 A 
HETATM    9  C   UNK N   1      32.833  16.813   5.380  0.00  0.00     0.039 A 
HETATM   10  C   UNK N   1      31.866  17.374   4.524  0.00  0.00     0.034 A 
ENDROOT
BRANCH   1  11
HETATM   11  C   UNK N   1      27.102  18.680   4.531  0.00  0.00     0.001 A 
HETATM   12  C   UNK N   1      27.075  19.768   3.648  0.00  0.00     0.059 A 
HETATM   13  C   UNK N   1      25.858  20.260   3.166  0.00  0.00     0.143 A 
HETATM   14  C   UNK N   1      24.654  19.663   3.565  0.00  0.00     0.066 A 
HETATM   15  F   UNK N   1      25.849  21.312   2.313  0.00  0.00    -0.204 F 
HETATM   16  C   UNK N   1      24.682  18.576   4.454  0.00  0.00     0.033 A 
HETATM   17  C   UNK N   1      25.900  18.090   4.935  0.00  0.00     0.017 A 
BRANCH  14  18
HETATM   18  N   UNK N   1      23.426  20.160   3.063  0.00  0.00    -0.392 N 
HETATM   19  C   UNK N   1      22.161  19.565   3.410  0.00  0.00     0.146 C 
HETATM   20  H   UNK N   1      23.438  20.936   2.456  0.00  0.00     0.159 HD
ENDBRANCH  14  18
ENDBRANCH   1  11
BRANCH   8  21
HETATM   21  O   UNK N   1      33.438  15.914   7.505  0.00  0.00    -0.361 OA
HETATM   22  H   UNK N   1      33.265  15.804   8.419  0.00  0.00     0.217 HD
ENDBRANCH   8  21
TORSDOF 3
ENDMDL
MODEL 9
REMARK VINA RESULT:      -5.7     12.009     14.543
REMARK  3 active torsions:
REMARK  status: ('A' for Active; 'I' for Inactive)
REMARK    1  A    between atoms: C_2  and  C_10 
REMARK    2  A    between atoms: C_5  and  N_7 
REMARK    3  A    between atoms: C_17  and  O_20 
ROOT
HETATM    1  C   UNK N   1      35.546  12.784  15.653  0.00  0.00     0.085 A 
HETATM    2  S   UNK N   1      36.339  14.176  15.197  0.00  0.00    -0.069 SA
HETATM    3  C   UNK N   1      36.061  14.039  13.581  0.00  0.00     0.036 A 
HETATM    4  C   UNK N   1      35.325  12.868  13.397  0.00  0.00     0.050 A 
HETATM    5  N   UNK N   1      35.034  12.167  14.547  0.00  0.00    -0.349 N 
ATOM      6  HN  UNK N   1      34.505  11.295  14.569  1.00  0.00     0.166 HD
HETATM    7  C   UNK N   1      36.438  14.861  12.528  0.00  0.00     0.057 A 
HETATM    8  C   UNK N   1      36.052  14.481  11.232  0.00  0.00     0.067 A 
HETATM    9  C   UNK N   1      35.306  13.298  11.028  0.00  0.00     0.039 A 
HETATM   10  C   UNK N   1      34.937  12.483  12.115  0.00  0.00     0.034 A 
ENDROOT
BRANCH   1  11
HETATM   11  C   UNK N   1      35.405  12.279  17.028  0.00  0.00     0.001 A 
HETATM   12  C   UNK N   1      35.368  10.899  17.274  0.00  0.00     0.059 A 
HETATM   13  C   UNK N   1      35.243  10.415  18.580  0.00  0.00     0.143 A 
HETATM   14  C   UNK N   1      35.158  11.312  19.654  0.00  0.00     0.066 A 
HETATM   15  F   UNK N   1      35.209   9.078  18.800  0.00  0.00    -0.204 F 
HETATM   16  C   UNK N   1      35.191  12.693  19.406  0.00  0.00     0.033 A 
HETATM   17  C   UNK N   1      35.313  13.173  18.100  0.00  0.00     0.017 A 
BRANCH  14  18
HETATM   18  N   UNK N   1      35.046  10.812  20.975  0.00  0.00    -0.392 N 
HETATM   19  C   UNK N   1      33.799  10.317  21.502  0.00  0.00     0.146 C 
HETATM   20  H   UNK N   1      35.844  10.802  21.552  0.00  0.00     0.159 HD
ENDBRANCH  14  18
ENDBRANCH   1  11
BRANCH   8  21
HETATM   21  O   UNK N   1      36.394  15.245  10.183  0.00  0.00    -0.361 OA
HETATM   22  H   UNK N   1      36.630  14.845   9.370  0.00  0.00     0.217 HD
ENDBRANCH   8  21
TORSDOF 3
ENDMDL
