REMARK  1 active torsions:
REMARK  status: ('A' for Active; 'I' for Inactive)
REMARK    1  A    between atoms: Al_1  and  H_13 
ROOT
HETATM    1  O   UNK N   1      -1.713  -4.824   0.000  0.00  0.00    -0.565 OA
HETATM    2  S   UNK N   1      -0.806  -3.368   0.000  0.00  0.00     0.261 S 
HETATM    3  O   UNK N   1       0.108  -1.915   0.000  0.00  0.00    -0.565 OA
HETATM    4  O   UNK N   1       0.651  -3.834   0.000  0.00  0.00    -0.565 OA
HETATM    5  O   UNK N   1      -1.866  -2.252   0.000  0.00  0.00    -0.565 OA
ENDROOT
TORSDOF 1
