MODEL 1
REMARK VINA RESULT:      -8.8      0.000      0.000
REMARK  5 active torsions:
REMARK  status: ('A' for Active; 'I' for Inactive)
REMARK    1  A    between atoms: C_2  and  C_3 
REMARK       I    between atoms: C_3  and  N_5 
REMARK    2  A    between atoms: C_9  and  N_11 
REMARK    3  A    between atoms: C_20  and  O_23 
REMARK    4  A    between atoms: O_23  and  C_24 
REMARK    5  A    between atoms: C_30  and  N_36 
ROOT
HETATM    1  N   UNK N   1      34.696  12.937   9.712  0.00  0.00    -0.269 N 
HETATM    2  C   UNK N   1      35.997  13.175   9.949  0.00  0.00     0.140 A 
HETATM    3  C   UNK N   1      36.394  12.493  11.049  0.00  0.00     0.082 A 
HETATM    4  C   UNK N   1      35.236  11.815  11.467  0.00  0.00     0.076 A 
HETATM    5  N   UNK N   1      34.221  12.126  10.636  0.00  0.00    -0.295 N 
ATOM      6  HN  UNK N   1      33.259  11.793  10.707  1.00  0.00     0.187 HD
HETATM    7  C   UNK N   1      35.047  11.026  12.665  0.00  0.00    -0.007 C 
HETATM    8  C   UNK N   1      33.818  11.079  13.351  0.00  0.00     0.016 C 
HETATM    9  C   UNK N   1      33.746  10.630  14.676  0.00  0.00     0.038 C 
HETATM   10  C   UNK N   1      34.903  10.124  15.279  0.00  0.00     0.076 C 
HETATM   11  C   UNK N   1      36.061   9.930  14.509  0.00  0.00     0.038 C 
HETATM   12  C   UNK N   1      36.134  10.397  13.229  0.00  0.00     0.016 C 
HETATM   13  C   UNK N   1      37.719  12.664  11.497  0.00  0.00     0.116 A 
HETATM   14  N   UNK N   1      38.539  13.498  10.792  0.00  0.00    -0.338 N 
ATOM     15  HN  UNK N   1      39.501  13.634  11.103  1.00  0.00     0.168 HD
HETATM   16  C   UNK N   1      38.098  14.155   9.676  0.00  0.00     0.183 A 
HETATM   17  N   UNK N   1      36.813  13.995   9.248  0.00  0.00    -0.337 N 
ATOM     18  HN  UNK N   1      36.474  14.484   8.419  1.00  0.00     0.168 HD
ENDROOT
BRANCH  13  19
HETATM   19  N   UNK N   1      38.213  12.042  12.659  0.00  0.00    -0.385 N 
HETATM   20  H   UNK N   1      38.200  12.519  13.519  0.00  0.00     0.157 HD
HETATM   21  H   UNK N   1      38.573  11.126  12.611  0.00  0.00     0.157 HD
ENDBRANCH  13  19
BRANCH   1  22
HETATM   22  C   UNK N   1      33.935  13.487   8.619  0.00  0.00     0.128 C 
HETATM   23  C   UNK N   1      33.379  12.478   7.622  0.00  0.00     0.030 C 
HETATM   24  C   UNK N   1      32.839  13.264   6.415  0.00  0.00     0.022 C 
HETATM   25  C   UNK N   1      31.921  14.435   6.829  0.00  0.00     0.126 C 
HETATM   26  N   UNK N   1      32.473  15.135   7.978  0.00  0.00    -0.347 N 
HETATM   27  C   UNK N   1      32.851  16.452   7.976  0.00  0.00     0.242 C 
HETATM   28  C   UNK N   1      32.800  14.339   9.118  0.00  0.00     0.153 C 
HETATM   29  O   UNK N   1      33.317  16.941   8.998  0.00  0.00    -0.268 OA
BRANCH  27  30
HETATM   30  C   UNK N   1      32.782  17.326   6.783  0.00  0.00     0.064 C 
HETATM   31  C   UNK N   1      33.721  17.394   5.845  0.00  0.00     0.017 C 
ENDBRANCH  27  30
ENDBRANCH   1  22
BRANCH  10  32
HETATM   32  O   UNK N   1      34.989   9.954  16.621  0.00  0.00    -0.311 OA
BRANCH  32  33
HETATM   33  C   UNK N   1      35.218  11.071  17.361  0.00  0.00     0.076 A 
HETATM   34  C   UNK N   1      35.176  12.327  16.761  0.00  0.00     0.037 A 
HETATM   35  C   UNK N   1      35.158  13.476  17.559  0.00  0.00     0.003 A 
HETATM   36  C   UNK N   1      35.181  13.372  18.955  0.00  0.00     0.000 A 
HETATM   37  C   UNK N   1      35.262  12.119  19.562  0.00  0.00     0.003 A 
HETATM   38  C   UNK N   1      35.277  10.973  18.771  0.00  0.00     0.037 A 
ENDBRANCH  32  33
ENDBRANCH  10  32
TORSDOF 5
ENDMDL
MODEL 2
REMARK VINA RESULT:      -8.4      4.912      8.813
REMARK  5 active torsions:
REMARK  status: ('A' for Active; 'I' for Inactive)
REMARK    1  A    between atoms: C_2  and  C_3 
REMARK       I    between atoms: C_3  and  N_5 
REMARK    2  A    between atoms: C_9  and  N_11 
REMARK    3  A    between atoms: C_20  and  O_23 
REMARK    4  A    between atoms: O_23  and  C_24 
REMARK    5  A    between atoms: C_30  and  N_36 
ROOT
HETATM    1  N   UNK N   1      28.870  17.808   6.491  0.00  0.00    -0.269 N 
HETATM    2  C   UNK N   1      28.988  16.650   5.821  0.00  0.00     0.140 A 
HETATM    3  C   UNK N   1      30.043  15.950   6.299  0.00  0.00     0.082 A 
HETATM    4  C   UNK N   1      30.562  16.767   7.318  0.00  0.00     0.076 A 
HETATM    5  N   UNK N   1      29.829  17.896   7.390  0.00  0.00    -0.295 N 
ATOM      6  HN  UNK N   1      29.987  18.677   8.028  1.00  0.00     0.187 HD
HETATM    7  C   UNK N   1      31.768  16.570   8.093  0.00  0.00    -0.007 C 
HETATM    8  C   UNK N   1      32.564  17.679   8.441  0.00  0.00     0.016 C 
HETATM    9  C   UNK N   1      33.888  17.478   8.853  0.00  0.00     0.038 C 
HETATM   10  C   UNK N   1      34.380  16.169   8.922  0.00  0.00     0.076 C 
HETATM   11  C   UNK N   1      33.505  15.087   8.732  0.00  0.00     0.038 C 
HETATM   12  C   UNK N   1      32.226  15.289   8.301  0.00  0.00     0.016 C 
HETATM   13  C   UNK N   1      30.369  14.727   5.678  0.00  0.00     0.116 A 
HETATM   14  N   UNK N   1      29.596  14.305   4.635  0.00  0.00    -0.338 N 
ATOM     15  HN  UNK N   1      29.819  13.422   4.173  1.00  0.00     0.168 HD
HETATM   16  C   UNK N   1      28.529  15.039   4.195  0.00  0.00     0.183 A 
HETATM   17  N   UNK N   1      28.219  16.225   4.791  0.00  0.00    -0.337 N 
ATOM     18  HN  UNK N   1      27.428  16.781   4.467  1.00  0.00     0.168 HD
ENDROOT
BRANCH  13  19
HETATM   19  N   UNK N   1      31.477  13.951   6.066  0.00  0.00    -0.385 N 
HETATM   20  H   UNK N   1      32.391  14.276   5.900  0.00  0.00     0.157 HD
HETATM   21  H   UNK N   1      31.338  13.080   6.505  0.00  0.00     0.157 HD
ENDBRANCH  13  19
BRANCH   1  22
HETATM   22  C   UNK N   1      27.854  18.803   6.260  0.00  0.00     0.128 C 
HETATM   23  C   UNK N   1      27.855  19.989   7.216  0.00  0.00     0.030 C 
HETATM   24  C   UNK N   1      26.562  20.785   6.975  0.00  0.00     0.022 C 
HETATM   25  C   UNK N   1      26.313  21.078   5.479  0.00  0.00     0.126 C 
HETATM   26  N   UNK N   1      26.622  19.909   4.671  0.00  0.00    -0.347 N 
HETATM   27  C   UNK N   1      25.713  19.241   3.893  0.00  0.00     0.242 C 
HETATM   28  C   UNK N   1      27.914  19.327   4.851  0.00  0.00     0.153 C 
HETATM   29  O   UNK N   1      26.077  18.257   3.260  0.00  0.00    -0.268 OA
BRANCH  27  30
HETATM   30  C   UNK N   1      24.280  19.605   3.806  0.00  0.00     0.064 C 
HETATM   31  C   UNK N   1      23.770  20.441   2.906  0.00  0.00     0.017 C 
ENDBRANCH  27  30
ENDBRANCH   1  22
BRANCH  10  32
HETATM   32  O   UNK N   1      35.707  15.913   9.018  0.00  0.00    -0.311 OA
BRANCH  32  33
HETATM   33  C   UNK N   1      36.125  15.297  10.157  0.00  0.00     0.076 A 
HETATM   34  C   UNK N   1      35.728  15.785  11.399  0.00  0.00     0.037 A 
HETATM   35  C   UNK N   1      35.944  15.014  12.547  0.00  0.00     0.003 A 
HETATM   36  C   UNK N   1      36.553  13.757  12.454  0.00  0.00     0.000 A 
HETATM   37  C   UNK N   1      36.988  13.279  11.218  0.00  0.00     0.003 A 
HETATM   38  C   UNK N   1      36.772  14.043  10.073  0.00  0.00     0.037 A 
ENDBRANCH  32  33
ENDBRANCH  10  32
TORSDOF 5
ENDMDL
MODEL 3
REMARK VINA RESULT:      -8.3      2.190      9.534
REMARK  5 active torsions:
REMARK  status: ('A' for Active; 'I' for Inactive)
REMARK    1  A    between atoms: C_2  and  C_3 
REMARK       I    between atoms: C_3  and  N_5 
REMARK    2  A    between atoms: C_9  and  N_11 
REMARK    3  A    between atoms: C_20  and  O_23 
REMARK    4  A    between atoms: O_23  and  C_24 
REMARK    5  A    between atoms: C_30  and  N_36 
ROOT
HETATM    1  N   UNK N   1      35.342  13.301  12.087  0.00  0.00    -0.269 N 
HETATM    2  C   UNK N   1      34.778  12.401  11.265  0.00  0.00     0.140 A 
HETATM    3  C   UNK N   1      34.628  12.940  10.032  0.00  0.00     0.082 A 
HETATM    4  C   UNK N   1      35.148  14.239  10.161  0.00  0.00     0.076 A 
HETATM    5  N   UNK N   1      35.556  14.424  11.432  0.00  0.00    -0.295 N 
ATOM      6  HN  UNK N   1      35.960  15.278  11.817  1.00  0.00     0.187 HD
HETATM    7  C   UNK N   1      35.136  15.306   9.183  0.00  0.00    -0.007 C 
HETATM    8  C   UNK N   1      34.930  16.635   9.602  0.00  0.00     0.016 C 
HETATM    9  C   UNK N   1      34.551  17.605   8.664  0.00  0.00     0.038 C 
HETATM   10  C   UNK N   1      34.403  17.224   7.325  0.00  0.00     0.076 C 
HETATM   11  C   UNK N   1      34.783  15.933   6.923  0.00  0.00     0.038 C 
HETATM   12  C   UNK N   1      35.121  14.985   7.845  0.00  0.00     0.016 C 
HETATM   13  C   UNK N   1      33.992  12.166   9.039  0.00  0.00     0.116 A 
HETATM   14  N   UNK N   1      33.573  10.909   9.368  0.00  0.00    -0.338 N 
ATOM     15  HN  UNK N   1      33.111  10.336   8.661  1.00  0.00     0.168 HD
HETATM   16  C   UNK N   1      33.760  10.400  10.624  0.00  0.00     0.183 A 
HETATM   17  N   UNK N   1      34.367  11.152  11.586  0.00  0.00    -0.337 N 
ATOM     18  HN  UNK N   1      34.508  10.783  12.527  1.00  0.00     0.168 HD
ENDROOT
BRANCH  13  19
HETATM   19  N   UNK N   1      33.742  12.653   7.743  0.00  0.00    -0.385 N 
HETATM   20  H   UNK N   1      33.443  12.040   7.034  0.00  0.00     0.157 HD
HETATM   21  H   UNK N   1      33.866  13.610   7.545  0.00  0.00     0.157 HD
ENDBRANCH  13  19
BRANCH   1  22
HETATM   22  C   UNK N   1      35.661  13.075  13.474  0.00  0.00     0.128 C 
HETATM   23  C   UNK N   1      36.480  14.165  14.154  0.00  0.00     0.030 C 
HETATM   24  C   UNK N   1      36.933  13.625  15.521  0.00  0.00     0.022 C 
HETATM   25  C   UNK N   1      35.773  12.999  16.328  0.00  0.00     0.126 C 
HETATM   26  N   UNK N   1      34.923  12.197  15.462  0.00  0.00    -0.347 N 
HETATM   27  C   UNK N   1      34.720  10.849  15.606  0.00  0.00     0.242 C 
HETATM   28  C   UNK N   1      34.418  12.836  14.288  0.00  0.00     0.153 C 
HETATM   29  O   UNK N   1      33.993  10.267  14.811  0.00  0.00    -0.268 OA
BRANCH  27  30
HETATM   30  C   UNK N   1      35.377  10.025  16.645  0.00  0.00     0.064 C 
HETATM   31  C   UNK N   1      34.808   9.667  17.793  0.00  0.00     0.017 C 
ENDBRANCH  27  30
ENDBRANCH   1  22
BRANCH  10  32
HETATM   32  O   UNK N   1      33.763  18.013   6.429  0.00  0.00    -0.311 OA
BRANCH  32  33
HETATM   33  C   UNK N   1      32.760  17.432   5.717  0.00  0.00     0.076 A 
HETATM   34  C   UNK N   1      31.584  17.045   6.355  0.00  0.00     0.037 A 
HETATM   35  C   UNK N   1      30.467  16.688   5.592  0.00  0.00     0.003 A 
HETATM   36  C   UNK N   1      30.523  16.718   4.193  0.00  0.00     0.000 A 
HETATM   37  C   UNK N   1      31.709  17.067   3.548  0.00  0.00     0.003 A 
HETATM   38  C   UNK N   1      32.822  17.426   4.304  0.00  0.00     0.037 A 
ENDBRANCH  32  33
ENDBRANCH  10  32
TORSDOF 5
ENDMDL
MODEL 4
REMARK VINA RESULT:      -8.3      8.159     12.663
REMARK  5 active torsions:
REMARK  status: ('A' for Active; 'I' for Inactive)
REMARK    1  A    between atoms: C_2  and  C_3 
REMARK       I    between atoms: C_3  and  N_5 
REMARK    2  A    between atoms: C_9  and  N_11 
REMARK    3  A    between atoms: C_20  and  O_23 
REMARK    4  A    between atoms: O_23  and  C_24 
REMARK    5  A    between atoms: C_30  and  N_36 
ROOT
HETATM    1  N   UNK N   1      24.553  17.596   4.904  0.00  0.00    -0.269 N 
HETATM    2  C   UNK N   1      25.132  18.585   4.205  0.00  0.00     0.140 A 
HETATM    3  C   UNK N   1      26.440  18.677   4.540  0.00  0.00     0.082 A 
HETATM    4  C   UNK N   1      26.620  17.665   5.498  0.00  0.00     0.076 A 
HETATM    5  N   UNK N   1      25.442  17.041   5.703  0.00  0.00    -0.295 N 
ATOM      6  HN  UNK N   1      25.271  16.277   6.357  1.00  0.00     0.187 HD
HETATM    7  C   UNK N   1      27.799  17.384   6.288  0.00  0.00    -0.007 C 
HETATM    8  C   UNK N   1      27.660  16.974   7.629  0.00  0.00     0.016 C 
HETATM    9  C   UNK N   1      28.759  17.058   8.495  0.00  0.00     0.038 C 
HETATM   10  C   UNK N   1      29.975  17.534   7.994  0.00  0.00     0.076 C 
HETATM   11  C   UNK N   1      30.116  17.769   6.616  0.00  0.00     0.038 C 
HETATM   12  C   UNK N   1      29.036  17.715   5.784  0.00  0.00     0.016 C 
HETATM   13  C   UNK N   1      27.208  19.705   3.953  0.00  0.00     0.116 A 
HETATM   14  N   UNK N   1      26.596  20.544   3.068  0.00  0.00    -0.338 N 
ATOM     15  HN  UNK N   1      27.138  21.293   2.635  1.00  0.00     0.168 HD
HETATM   16  C   UNK N   1      25.274  20.403   2.747  0.00  0.00     0.183 A 
HETATM   17  N   UNK N   1      24.530  19.415   3.321  0.00  0.00    -0.337 N 
ATOM     18  HN  UNK N   1      23.542  19.304   3.091  1.00  0.00     0.168 HD
ENDROOT
BRANCH  13  19
HETATM   19  N   UNK N   1      28.561  19.917   4.275  0.00  0.00    -0.385 N 
HETATM   20  H   UNK N   1      28.816  20.652   4.879  0.00  0.00     0.157 HD
HETATM   21  H   UNK N   1      29.255  19.330   3.896  0.00  0.00     0.157 HD
ENDBRANCH  13  19
BRANCH   1  22
HETATM   22  C   UNK N   1      23.170  17.203   4.802  0.00  0.00     0.128 C 
HETATM   23  C   UNK N   1      22.763  15.983   5.619  0.00  0.00     0.030 C 
HETATM   24  C   UNK N   1      21.348  15.574   5.176  0.00  0.00     0.022 C 
HETATM   25  C   UNK N   1      20.368  16.768   5.142  0.00  0.00     0.126 C 
HETATM   26  N   UNK N   1      21.010  17.941   4.572  0.00  0.00    -0.347 N 
HETATM   27  C   UNK N   1      20.598  18.572   3.427  0.00  0.00     0.242 C 
HETATM   28  C   UNK N   1      22.252  18.340   5.155  0.00  0.00     0.153 C 
HETATM   29  O   UNK N   1      21.221  19.548   3.026  0.00  0.00    -0.268 OA
BRANCH  27  30
HETATM   30  C   UNK N   1      19.462  18.111   2.597  0.00  0.00     0.064 C 
HETATM   31  C   UNK N   1      19.585  17.407   1.476  0.00  0.00     0.017 C 
ENDBRANCH  27  30
ENDBRANCH   1  22
BRANCH  10  32
HETATM   32  O   UNK N   1      30.980  17.922   8.816  0.00  0.00    -0.311 OA
BRANCH  32  33
HETATM   33  C   UNK N   1      32.204  17.379   8.576  0.00  0.00     0.076 A 
HETATM   34  C   UNK N   1      32.380  15.999   8.638  0.00  0.00     0.037 A 
HETATM   35  C   UNK N   1      33.560  15.429   8.148  0.00  0.00     0.003 A 
HETATM   36  C   UNK N   1      34.562  16.235   7.595  0.00  0.00     0.000 A 
HETATM   37  C   UNK N   1      34.409  17.621   7.565  0.00  0.00     0.003 A 
HETATM   38  C   UNK N   1      33.235  18.192   8.050  0.00  0.00     0.037 A 
ENDBRANCH  32  33
ENDBRANCH  10  32
TORSDOF 5
ENDMDL
MODEL 5
REMARK VINA RESULT:      -8.2      2.040      9.202
REMARK  5 active torsions:
REMARK  status: ('A' for Active; 'I' for Inactive)
REMARK    1  A    between atoms: C_2  and  C_3 
REMARK       I    between atoms: C_3  and  N_5 
REMARK    2  A    between atoms: C_9  and  N_11 
REMARK    3  A    between atoms: C_20  and  O_23 
REMARK    4  A    between atoms: O_23  and  C_24 
REMARK    5  A    between atoms: C_30  and  N_36 
ROOT
HETATM    1  N   UNK N   1      34.943  13.055  11.599  0.00  0.00    -0.269 N 
HETATM    2  C   UNK N   1      35.833  12.764  10.636  0.00  0.00     0.140 A 
HETATM    3  C   UNK N   1      35.681  13.619   9.598  0.00  0.00     0.082 A 
HETATM    4  C   UNK N   1      34.629  14.460  10.000  0.00  0.00     0.076 A 
HETATM    5  N   UNK N   1      34.197  14.072  11.217  0.00  0.00    -0.295 N 
ATOM      6  HN  UNK N   1      33.433  14.491  11.748  1.00  0.00     0.187 HD
HETATM    7  C   UNK N   1      33.964  15.488   9.229  0.00  0.00    -0.007 C 
HETATM    8  C   UNK N   1      32.575  15.676   9.367  0.00  0.00     0.016 C 
HETATM    9  C   UNK N   1      31.872  16.388   8.385  0.00  0.00     0.038 C 
HETATM   10  C   UNK N   1      32.581  16.909   7.297  0.00  0.00     0.076 C 
HETATM   11  C   UNK N   1      33.984  16.848   7.285  0.00  0.00     0.038 C 
HETATM   12  C   UNK N   1      34.658  16.127   8.227  0.00  0.00     0.016 C 
HETATM   13  C   UNK N   1      36.488  13.434   8.457  0.00  0.00     0.116 A 
HETATM   14  N   UNK N   1      37.392  12.411   8.463  0.00  0.00    -0.338 N 
ATOM     15  HN  UNK N   1      37.983  12.263   7.644  1.00  0.00     0.168 HD
HETATM   16  C   UNK N   1      37.522  11.580   9.542  0.00  0.00     0.183 A 
HETATM   17  N   UNK N   1      36.735  11.755  10.641  0.00  0.00    -0.337 N 
ATOM     18  HN  UNK N   1      36.822  11.138  11.449  1.00  0.00     0.168 HD
ENDROOT
BRANCH  13  19
HETATM   19  N   UNK N   1      36.370  14.236   7.307  0.00  0.00    -0.385 N 
HETATM   20  H   UNK N   1      37.111  14.823   7.035  0.00  0.00     0.157 HD
HETATM   21  H   UNK N   1      35.543  14.210   6.772  0.00  0.00     0.157 HD
ENDBRANCH  13  19
BRANCH   1  22
HETATM   22  C   UNK N   1      34.819  12.359  12.855  0.00  0.00     0.128 C 
HETATM   23  C   UNK N   1      34.250  10.948  12.780  0.00  0.00     0.030 C 
HETATM   24  C   UNK N   1      33.953  10.487  14.217  0.00  0.00     0.022 C 
HETATM   25  C   UNK N   1      35.140  10.725  15.175  0.00  0.00     0.126 C 
HETATM   26  N   UNK N   1      35.745  12.025  14.927  0.00  0.00    -0.347 N 
HETATM   27  C   UNK N   1      35.806  13.041  15.845  0.00  0.00     0.242 C 
HETATM   28  C   UNK N   1      36.135  12.305  13.581  0.00  0.00     0.153 C 
HETATM   29  O   UNK N   1      36.328  14.102  15.527  0.00  0.00    -0.268 OA
BRANCH  27  30
HETATM   30  C   UNK N   1      35.225  12.957  17.204  0.00  0.00     0.064 C 
HETATM   31  C   UNK N   1      35.266  13.938  18.101  0.00  0.00     0.017 C 
ENDBRANCH  27  30
ENDBRANCH   1  22
BRANCH  10  32
HETATM   32  O   UNK N   1      31.949  17.340   6.178  0.00  0.00    -0.311 OA
BRANCH  32  33
HETATM   33  C   UNK N   1      32.121  16.590   5.056  0.00  0.00     0.076 A 
HETATM   34  C   UNK N   1      32.808  17.115   3.965  0.00  0.00     0.037 A 
HETATM   35  C   UNK N   1      33.204  16.269   2.923  0.00  0.00     0.003 A 
HETATM   36  C   UNK N   1      32.916  14.900   2.972  0.00  0.00     0.000 A 
HETATM   37  C   UNK N   1      32.195  14.374   4.043  0.00  0.00     0.003 A 
HETATM   38  C   UNK N   1      31.801  15.213   5.083  0.00  0.00     0.037 A 
ENDBRANCH  32  33
ENDBRANCH  10  32
TORSDOF 5
ENDMDL
MODEL 6
REMARK VINA RESULT:      -8.1      6.048     10.010
REMARK  5 active torsions:
REMARK  status: ('A' for Active; 'I' for Inactive)
REMARK    1  A    between atoms: C_2  and  C_3 
REMARK       I    between atoms: C_3  and  N_5 
REMARK    2  A    between atoms: C_9  and  N_11 
REMARK    3  A    between atoms: C_20  and  O_23 
REMARK    4  A    between atoms: O_23  and  C_24 
REMARK    5  A    between atoms: C_30  and  N_36 
ROOT
HETATM    1  N   UNK N   1      28.618  18.134   5.744  0.00  0.00    -0.269 N 
HETATM    2  C   UNK N   1      28.752  17.894   7.058  0.00  0.00     0.140 A 
HETATM    3  C   UNK N   1      30.030  17.538   7.330  0.00  0.00     0.082 A 
HETATM    4  C   UNK N   1      30.670  17.581   6.080  0.00  0.00     0.076 A 
HETATM    5  N   UNK N   1      29.771  17.932   5.138  0.00  0.00    -0.295 N 
ATOM      6  HN  UNK N   1      29.950  18.026   4.138  1.00  0.00     0.187 HD
HETATM    7  C   UNK N   1      32.021  17.178   5.755  0.00  0.00    -0.007 C 
HETATM    8  C   UNK N   1      32.283  16.537   4.528  0.00  0.00     0.016 C 
HETATM    9  C   UNK N   1      33.478  15.824   4.362  0.00  0.00     0.038 C 
HETATM   10  C   UNK N   1      34.390  15.783   5.422  0.00  0.00     0.076 C 
HETATM   11  C   UNK N   1      34.168  16.574   6.561  0.00  0.00     0.038 C 
HETATM   12  C   UNK N   1      32.990  17.241   6.730  0.00  0.00     0.016 C 
HETATM   13  C   UNK N   1      30.355  17.183   8.655  0.00  0.00     0.116 A 
HETATM   14  N   UNK N   1      29.370  17.231   9.599  0.00  0.00    -0.338 N 
ATOM     15  HN  UNK N   1      29.589  16.977  10.563  1.00  0.00     0.168 HD
HETATM   16  C   UNK N   1      28.095  17.613   9.281  0.00  0.00     0.183 A 
HETATM   17  N   UNK N   1      27.779  17.947   7.997  0.00  0.00    -0.337 N 
ATOM     18  HN  UNK N   1      26.830  18.229   7.750  1.00  0.00     0.168 HD
ENDROOT
BRANCH  13  19
HETATM   19  N   UNK N   1      31.640  16.749   9.029  0.00  0.00    -0.385 N 
HETATM   20  H   UNK N   1      32.437  17.235   8.718  0.00  0.00     0.157 HD
HETATM   21  H   UNK N   1      31.743  15.956   9.605  0.00  0.00     0.157 HD
ENDBRANCH  13  19
BRANCH   1  22
HETATM   22  C   UNK N   1      27.399  18.545   5.093  0.00  0.00     0.128 C 
HETATM   23  C   UNK N   1      27.518  19.736   4.150  0.00  0.00     0.030 C 
HETATM   24  C   UNK N   1      26.093  20.176   3.772  0.00  0.00     0.022 C 
HETATM   25  C   UNK N   1      25.207  18.995   3.318  0.00  0.00     0.126 C 
HETATM   26  N   UNK N   1      25.419  17.838   4.174  0.00  0.00    -0.347 N 
HETATM   27  C   UNK N   1      24.450  17.257   4.949  0.00  0.00     0.242 C 
HETATM   28  C   UNK N   1      26.770  17.404   4.342  0.00  0.00     0.153 C 
HETATM   29  O   UNK N   1      24.740  16.291   5.644  0.00  0.00    -0.268 OA
BRANCH  27  30
HETATM   30  C   UNK N   1      23.061  17.761   5.043  0.00  0.00     0.064 C 
HETATM   31  C   UNK N   1      22.182  17.377   5.964  0.00  0.00     0.017 C 
ENDBRANCH  27  30
ENDBRANCH   1  22
BRANCH  10  32
HETATM   32  O   UNK N   1      35.407  14.888   5.451  0.00  0.00    -0.311 OA
BRANCH  32  33
HETATM   33  C   UNK N   1      35.365  13.952   6.437  0.00  0.00     0.076 A 
HETATM   34  C   UNK N   1      36.286  13.995   7.480  0.00  0.00     0.037 A 
HETATM   35  C   UNK N   1      36.087  13.199   8.613  0.00  0.00     0.003 A 
HETATM   36  C   UNK N   1      34.969  12.361   8.705  0.00  0.00     0.000 A 
HETATM   37  C   UNK N   1      34.063  12.285   7.648  0.00  0.00     0.003 A 
HETATM   38  C   UNK N   1      34.256  13.078   6.520  0.00  0.00     0.037 A 
ENDBRANCH  32  33
ENDBRANCH  10  32
TORSDOF 5
ENDMDL
MODEL 7
REMARK VINA RESULT:      -8.1      3.574     10.030
REMARK  5 active torsions:
REMARK  status: ('A' for Active; 'I' for Inactive)
REMARK    1  A    between atoms: C_2  and  C_3 
REMARK       I    between atoms: C_3  and  N_5 
REMARK    2  A    between atoms: C_9  and  N_11 
REMARK    3  A    between atoms: C_20  and  O_23 
REMARK    4  A    between atoms: O_23  and  C_24 
REMARK    5  A    between atoms: C_30  and  N_36 
ROOT
HETATM    1  N   UNK N   1      34.858  15.037   9.626  0.00  0.00    -0.269 N 
HETATM    2  C   UNK N   1      35.358  14.819   8.399  0.00  0.00     0.140 A 
HETATM    3  C   UNK N   1      34.567  15.407   7.471  0.00  0.00     0.082 A 
HETATM    4  C   UNK N   1      33.544  16.006   8.225  0.00  0.00     0.076 A 
HETATM    5  N   UNK N   1      33.749  15.743   9.531  0.00  0.00    -0.295 N 
ATOM      6  HN  UNK N   1      33.154  16.038  10.306  1.00  0.00     0.187 HD
HETATM    7  C   UNK N   1      32.354  16.673   7.742  0.00  0.00    -0.007 C 
HETATM    8  C   UNK N   1      31.136  16.517   8.433  0.00  0.00     0.016 C 
HETATM    9  C   UNK N   1      29.932  16.837   7.793  0.00  0.00     0.038 C 
HETATM   10  C   UNK N   1      29.975  17.321   6.480  0.00  0.00     0.076 C 
HETATM   11  C   UNK N   1      31.214  17.622   5.891  0.00  0.00     0.038 C 
HETATM   12  C   UNK N   1      32.382  17.280   6.507  0.00  0.00     0.016 C 
HETATM   13  C   UNK N   1      34.895  15.236   6.111  0.00  0.00     0.116 A 
HETATM   14  N   UNK N   1      36.001  14.499   5.799  0.00  0.00    -0.338 N 
ATOM     15  HN  UNK N   1      36.252  14.365   4.819  1.00  0.00     0.168 HD
HETATM   16  C   UNK N   1      36.781  13.936   6.772  0.00  0.00     0.183 A 
HETATM   17  N   UNK N   1      36.458  14.094   8.088  0.00  0.00    -0.337 N 
ATOM     18  HN  UNK N   1      37.031  13.675   8.820  1.00  0.00     0.168 HD
ENDROOT
BRANCH  13  19
HETATM   19  N   UNK N   1      34.109  15.762   5.069  0.00  0.00    -0.385 N 
HETATM   20  H   UNK N   1      34.431  16.530   4.545  0.00  0.00     0.157 HD
HETATM   21  H   UNK N   1      33.233  15.361   4.864  0.00  0.00     0.157 HD
ENDBRANCH  13  19
BRANCH   1  22
HETATM   22  C   UNK N   1      35.440  14.569  10.858  0.00  0.00     0.128 C 
HETATM   23  C   UNK N   1      35.444  15.563  12.013  0.00  0.00     0.030 C 
HETATM   24  C   UNK N   1      36.328  14.980  13.128  0.00  0.00     0.022 C 
HETATM   25  C   UNK N   1      35.981  13.511  13.456  0.00  0.00     0.126 C 
HETATM   26  N   UNK N   1      35.741  12.758  12.235  0.00  0.00    -0.347 N 
HETATM   27  C   UNK N   1      36.483  11.679  11.830  0.00  0.00     0.242 C 
HETATM   28  C   UNK N   1      34.782  13.299  11.325  0.00  0.00     0.153 C 
HETATM   29  O   UNK N   1      36.202  11.124  10.775  0.00  0.00    -0.268 OA
BRANCH  27  30
HETATM   30  C   UNK N   1      37.656  11.163  12.570  0.00  0.00     0.064 C 
HETATM   31  C   UNK N   1      37.708   9.976  13.166  0.00  0.00     0.017 C 
ENDBRANCH  27  30
ENDBRANCH   1  22
BRANCH  10  32
HETATM   32  O   UNK N   1      28.867  17.367   5.703  0.00  0.00    -0.311 OA
BRANCH  32  33
HETATM   33  C   UNK N   1      28.315  18.595   5.505  0.00  0.00     0.076 A 
HETATM   34  C   UNK N   1      27.918  18.984   4.228  0.00  0.00     0.037 A 
HETATM   35  C   UNK N   1      27.128  20.127   4.067  0.00  0.00     0.003 A 
HETATM   36  C   UNK N   1      26.732  20.880   5.179  0.00  0.00     0.000 A 
HETATM   37  C   UNK N   1      27.158  20.518   6.456  0.00  0.00     0.003 A 
HETATM   38  C   UNK N   1      27.943  19.379   6.621  0.00  0.00     0.037 A 
ENDBRANCH  32  33
ENDBRANCH  10  32
TORSDOF 5
ENDMDL
MODEL 8
REMARK VINA RESULT:      -8.0      2.771      4.746
REMARK  5 active torsions:
REMARK  status: ('A' for Active; 'I' for Inactive)
REMARK    1  A    between atoms: C_2  and  C_3 
REMARK       I    between atoms: C_3  and  N_5 
REMARK    2  A    between atoms: C_9  and  N_11 
REMARK    3  A    between atoms: C_20  and  O_23 
REMARK    4  A    between atoms: O_23  and  C_24 
REMARK    5  A    between atoms: C_30  and  N_36 
ROOT
HETATM    1  N   UNK N   1      34.083  14.907   6.506  0.00  0.00    -0.269 N 
HETATM    2  C   UNK N   1      33.858  15.955   7.315  0.00  0.00     0.140 A 
HETATM    3  C   UNK N   1      34.558  15.806   8.464  0.00  0.00     0.082 A 
HETATM    4  C   UNK N   1      35.234  14.586   8.296  0.00  0.00     0.076 A 
HETATM    5  N   UNK N   1      34.904  14.063   7.098  0.00  0.00    -0.295 N 
ATOM      6  HN  UNK N   1      35.232  13.175   6.716  1.00  0.00     0.187 HD
HETATM    7  C   UNK N   1      36.039  13.871   9.263  0.00  0.00    -0.007 C 
HETATM    8  C   UNK N   1      35.988  12.464   9.311  0.00  0.00     0.016 C 
HETATM    9  C   UNK N   1      36.455  11.794  10.450  0.00  0.00     0.038 C 
HETATM   10  C   UNK N   1      36.978  12.548  11.507  0.00  0.00     0.076 C 
HETATM   11  C   UNK N   1      37.168  13.930  11.348  0.00  0.00     0.038 C 
HETATM   12  C   UNK N   1      36.683  14.580  10.250  0.00  0.00     0.016 C 
HETATM   13  C   UNK N   1      34.402  16.780   9.471  0.00  0.00     0.116 A 
HETATM   14  N   UNK N   1      33.564  17.831   9.232  0.00  0.00    -0.338 N 
ATOM     15  HN  UNK N   1      33.440  18.544   9.951  1.00  0.00     0.168 HD
HETATM   16  C   UNK N   1      32.888  17.949   8.048  0.00  0.00     0.183 A 
HETATM   17  N   UNK N   1      33.033  17.002   7.078  0.00  0.00    -0.337 N 
ATOM     18  HN  UNK N   1      32.530  17.079   6.194  1.00  0.00     0.168 HD
ENDROOT
BRANCH  13  19
HETATM   19  N   UNK N   1      35.045  16.689  10.720  0.00  0.00    -0.385 N 
HETATM   20  H   UNK N   1      34.604  17.033  11.529  0.00  0.00     0.157 HD
HETATM   21  H   UNK N   1      35.938  16.279  10.785  0.00  0.00     0.157 HD
ENDBRANCH  13  19
BRANCH   1  22
HETATM   22  C   UNK N   1      33.513  14.730   5.196  0.00  0.00     0.128 C 
HETATM   23  C   UNK N   1      34.504  14.475   4.067  0.00  0.00     0.030 C 
HETATM   24  C   UNK N   1      33.736  14.577   2.738  0.00  0.00     0.022 C 
HETATM   25  C   UNK N   1      32.432  13.749   2.740  0.00  0.00     0.126 C 
HETATM   26  N   UNK N   1      31.735  13.895   4.008  0.00  0.00    -0.347 N 
HETATM   27  C   UNK N   1      30.481  14.429   4.147  0.00  0.00     0.242 C 
HETATM   28  C   UNK N   1      32.490  13.626   5.190  0.00  0.00     0.153 C 
HETATM   29  O   UNK N   1      29.990  14.518   5.266  0.00  0.00    -0.268 OA
BRANCH  27  30
HETATM   30  C   UNK N   1      29.685  14.965   3.020  0.00  0.00     0.064 C 
HETATM   31  C   UNK N   1      29.517  16.260   2.766  0.00  0.00     0.017 C 
ENDBRANCH  27  30
ENDBRANCH   1  22
BRANCH  10  32
HETATM   32  O   UNK N   1      37.169  12.011  12.736  0.00  0.00    -0.311 OA
BRANCH  32  33
HETATM   33  C   UNK N   1      36.268  12.356  13.695  0.00  0.00     0.076 A 
HETATM   34  C   UNK N   1      35.018  11.742  13.730  0.00  0.00     0.037 A 
HETATM   35  C   UNK N   1      34.198  11.907  14.852  0.00  0.00     0.003 A 
HETATM   36  C   UNK N   1      34.625  12.681  15.937  0.00  0.00     0.000 A 
HETATM   37  C   UNK N   1      35.859  13.329  15.892  0.00  0.00     0.003 A 
HETATM   38  C   UNK N   1      36.679  13.166  14.779  0.00  0.00     0.037 A 
ENDBRANCH  32  33
ENDBRANCH  10  32
TORSDOF 5
ENDMDL
MODEL 9
REMARK VINA RESULT:      -8.0      8.111     12.682
REMARK  5 active torsions:
REMARK  status: ('A' for Active; 'I' for Inactive)
REMARK    1  A    between atoms: C_2  and  C_3 
REMARK       I    between atoms: C_3  and  N_5 
REMARK    2  A    between atoms: C_9  and  N_11 
REMARK    3  A    between atoms: C_20  and  O_23 
REMARK    4  A    between atoms: O_23  and  C_24 
REMARK    5  A    between atoms: C_30  and  N_36 
ROOT
HETATM    1  N   UNK N   1      24.212  17.446   4.950  0.00  0.00    -0.269 N 
HETATM    2  C   UNK N   1      24.713  18.481   4.256  0.00  0.00     0.140 A 
HETATM    3  C   UNK N   1      26.030  18.624   4.535  0.00  0.00     0.082 A 
HETATM    4  C   UNK N   1      26.299  17.594   5.452  0.00  0.00     0.076 A 
HETATM    5  N   UNK N   1      25.161  16.910   5.691  0.00  0.00    -0.295 N 
ATOM      6  HN  UNK N   1      25.055  16.121   6.328  1.00  0.00     0.187 HD
HETATM    7  C   UNK N   1      27.524  17.344   6.180  0.00  0.00    -0.007 C 
HETATM    8  C   UNK N   1      27.466  16.890   7.512  0.00  0.00     0.016 C 
HETATM    9  C   UNK N   1      28.599  16.999   8.330  0.00  0.00     0.038 C 
HETATM   10  C   UNK N   1      29.768  17.546   7.790  0.00  0.00     0.076 C 
HETATM   11  C   UNK N   1      29.835  17.827   6.416  0.00  0.00     0.038 C 
HETATM   12  C   UNK N   1      28.721  17.747   5.632  0.00  0.00     0.016 C 
HETATM   13  C   UNK N   1      26.722  19.702   3.947  0.00  0.00     0.116 A 
HETATM   14  N   UNK N   1      26.034  20.538   3.116  0.00  0.00    -0.338 N 
ATOM     15  HN  UNK N   1      26.520  21.324   2.684  1.00  0.00     0.168 HD
HETATM   16  C   UNK N   1      24.706  20.345   2.851  0.00  0.00     0.183 A 
HETATM   17  N   UNK N   1      24.034  19.307   3.427  0.00  0.00    -0.337 N 
ATOM     18  HN  UNK N   1      23.043  19.158   3.238  1.00  0.00     0.168 HD
ENDROOT
BRANCH  13  19
HETATM   19  N   UNK N   1      28.078  19.968   4.215  0.00  0.00    -0.385 N 
HETATM   20  H   UNK N   1      28.706  19.226   4.372  0.00  0.00     0.157 HD
HETATM   21  H   UNK N   1      28.401  20.898   4.244  0.00  0.00     0.157 HD
ENDBRANCH  13  19
BRANCH   1  22
HETATM   22  C   UNK N   1      22.845  16.992   4.897  0.00  0.00     0.128 C 
HETATM   23  C   UNK N   1      22.316  16.634   3.514  0.00  0.00     0.030 C 
HETATM   24  C   UNK N   1      20.795  16.434   3.633  0.00  0.00     0.022 C 
HETATM   25  C   UNK N   1      20.407  15.507   4.806  0.00  0.00     0.126 C 
HETATM   26  N   UNK N   1      21.206  15.809   5.983  0.00  0.00    -0.347 N 
HETATM   27  C   UNK N   1      20.694  16.246   7.177  0.00  0.00     0.242 C 
HETATM   28  C   UNK N   1      22.624  15.818   5.811  0.00  0.00     0.153 C 
HETATM   29  O   UNK N   1      21.460  16.484   8.103  0.00  0.00    -0.268 OA
BRANCH  27  30
HETATM   30  C   UNK N   1      19.255  16.504   7.410  0.00  0.00     0.064 C 
HETATM   31  C   UNK N   1      18.736  16.874   8.577  0.00  0.00     0.017 C 
ENDBRANCH  27  30
ENDBRANCH   1  22
BRANCH  10  32
HETATM   32  O   UNK N   1      30.791  17.955   8.578  0.00  0.00    -0.311 OA
BRANCH  32  33
HETATM   33  C   UNK N   1      32.007  17.395   8.335  0.00  0.00     0.076 A 
HETATM   34  C   UNK N   1      33.101  18.204   8.041  0.00  0.00     0.037 A 
HETATM   35  C   UNK N   1      34.388  17.655   8.043  0.00  0.00     0.003 A 
HETATM   36  C   UNK N   1      34.582  16.300   8.340  0.00  0.00     0.000 A 
HETATM   37  C   UNK N   1      33.487  15.477   8.598  0.00  0.00     0.003 A 
HETATM   38  C   UNK N   1      32.205  16.020   8.599  0.00  0.00     0.037 A 
ENDBRANCH  32  33
ENDBRANCH  10  32
TORSDOF 5
ENDMDL
