MODEL 1
REMARK VINA RESULT:      -8.7      0.000      0.000
REMARK  5 active torsions:
REMARK  status: ('A' for Active; 'I' for Inactive)
REMARK    1  A    between atoms: C_15  and  C_14 
REMARK    2  A    between atoms: C_21  and  C_14 
REMARK    3  A    between atoms: C_23  and  C_16 
REMARK    4  A    between atoms: C_24  and  C_19 
REMARK    5  A    between atoms: O_32  and  C_22 
REMARK       I    between atoms: N_30  and  C_23 
REMARK       I    between atoms: N_31  and  C_24 
ROOT
HETATM    1  C   UNK N   1      24.819  20.369   3.103  0.00  0.00     0.010 C 
HETATM    2  C   UNK N   1      23.478  20.257   2.830  0.00  0.00     0.044 C 
HETATM    3  C   UNK N   1      24.613  18.766   4.902  0.00  0.00     0.027 C 
HETATM    4  C   UNK N   1      25.417  19.567   4.076  0.00  0.00    -0.051 C 
HETATM    5  C   UNK N   1      23.213  18.725   4.712  0.00  0.00     0.071 C 
HETATM    6  C   UNK N   1      22.682  19.420   3.587  0.00  0.00     0.132 C 
HETATM    7  F   UNK N   1      21.430  19.248   3.138  0.00  0.00    -0.205 F 
ENDROOT
BRANCH   4   8
HETATM    8  C   UNK N   1      26.919  19.514   4.148  0.00  0.00     0.098 C 
BRANCH   8   9
HETATM    9  C   UNK N   1      27.438  19.300   5.572  0.00  0.00     0.041 A 
HETATM   10  C   UNK N   1      28.470  18.393   5.840  0.00  0.00     0.003 A 
HETATM   11  C   UNK N   1      29.132  17.714   4.809  0.00  0.00     0.014 A 
HETATM   12  C   UNK N   1      28.830  18.147   7.184  0.00  0.00     0.028 A 
HETATM   13  C   UNK N   1      30.153  16.808   5.110  0.00  0.00     0.001 A 
HETATM   14  C   UNK N   1      30.505  16.564   6.441  0.00  0.00     0.001 A 
HETATM   15  C   UNK N   1      29.843  17.228   7.477  0.00  0.00     0.017 A 
HETATM   16  C   UNK N   1      28.154  18.817   8.209  0.00  0.00     0.166 A 
HETATM   17  N   UNK N   1      27.190  19.713   7.890  0.00  0.00    -0.279 N 
HETATM   18  N   UNK N   1      26.852  19.945   6.625  0.00  0.00    -0.302 N 
ATOM     19  HN  UNK N   1      26.714  20.220   8.636  1.00  0.00     0.189 HD
ATOM     20  HN  UNK N   1      26.125  20.633   6.433  1.00  0.00     0.186 HD
BRANCH  16  21
HETATM   21  O   UNK N   1      28.445  18.586   9.500  0.00  0.00    -0.344 OA
HETATM   22  H   UNK N   1      29.320  18.642   9.828  0.00  0.00     0.219 HD
ENDBRANCH  16  21
ENDBRANCH   8   9
ENDBRANCH   4   8
BRANCH   5  23
HETATM   23  C   UNK N   1      22.381  17.896   5.662  0.00  0.00     0.257 C 
HETATM   24  N   UNK N   1      22.280  16.526   5.582  0.00  0.00    -0.345 N 
HETATM   25  C   UNK N   1      21.570  15.766   6.590  0.00  0.00     0.146 C 
HETATM   26  C   UNK N   1      22.851  15.757   4.504  0.00  0.00     0.146 C 
HETATM   27  C   UNK N   1      22.547  14.748   7.201  0.00  0.00     0.145 C 
HETATM   28  N   UNK N   1      23.298  14.061   6.156  0.00  0.00    -0.349 N 
HETATM   29  C   UNK N   1      23.904  14.842   5.110  0.00  0.00     0.145 C 
HETATM   30  C   UNK N   1      23.462  12.708   6.144  0.00  0.00     0.224 C 
HETATM   31  O   UNK N   1      24.165  12.187   5.287  0.00  0.00    -0.273 OA
HETATM   32  O   UNK N   1      21.729  18.486   6.515  0.00  0.00    -0.267 OA
BRANCH  30  33
HETATM   33  C   UNK N   1      22.817  11.829   7.174  0.00  0.00     0.078 A 
HETATM   34  C   UNK N   1      23.821  11.542   8.280  0.00  0.00     0.015 A 
HETATM   35  C   UNK N   1      23.540  10.493   7.234  0.00  0.00     0.015 A 
ENDBRANCH  30  33
ENDBRANCH   5  23
TORSDOF 5
ENDMDL
MODEL 2
REMARK VINA RESULT:      -8.7     10.047     13.870
REMARK  5 active torsions:
REMARK  status: ('A' for Active; 'I' for Inactive)
REMARK    1  A    between atoms: C_15  and  C_14 
REMARK    2  A    between atoms: C_21  and  C_14 
REMARK    3  A    between atoms: C_23  and  C_16 
REMARK    4  A    between atoms: C_24  and  C_19 
REMARK    5  A    between atoms: O_32  and  C_22 
REMARK       I    between atoms: N_30  and  C_23 
REMARK       I    between atoms: N_31  and  C_24 
ROOT
HETATM    1  C   UNK N   1      36.795  11.883  12.983  0.00  0.00     0.010 C 
HETATM    2  C   UNK N   1      37.649  12.202  11.957  0.00  0.00     0.044 C 
HETATM    3  C   UNK N   1      35.334  13.709  12.369  0.00  0.00     0.027 C 
HETATM    4  C   UNK N   1      35.592  12.570  13.147  0.00  0.00    -0.051 C 
HETATM    5  C   UNK N   1      36.258  14.123  11.383  0.00  0.00     0.071 C 
HETATM    6  C   UNK N   1      37.377  13.278  11.135  0.00  0.00     0.132 C 
HETATM    7  F   UNK N   1      38.174  13.405  10.063  0.00  0.00    -0.205 F 
ENDROOT
BRANCH   4   8
HETATM    8  C   UNK N   1      34.562  12.012  14.093  0.00  0.00     0.098 C 
BRANCH   8   9
HETATM    9  C   UNK N   1      34.907  12.266  15.563  0.00  0.00     0.041 A 
HETATM   10  C   UNK N   1      35.116  11.206  16.453  0.00  0.00     0.003 A 
HETATM   11  C   UNK N   1      35.110   9.874  16.017  0.00  0.00     0.014 A 
HETATM   12  C   UNK N   1      35.315  11.493  17.822  0.00  0.00     0.028 A 
HETATM   13  C   UNK N   1      35.313   8.838  16.933  0.00  0.00     0.001 A 
HETATM   14  C   UNK N   1      35.506   9.125  18.288  0.00  0.00     0.001 A 
HETATM   15  C   UNK N   1      35.503  10.449  18.733  0.00  0.00     0.017 A 
HETATM   16  C   UNK N   1      35.304  12.825  18.251  0.00  0.00     0.166 A 
HETATM   17  N   UNK N   1      35.137  13.812  17.341  0.00  0.00    -0.279 N 
HETATM   18  N   UNK N   1      34.951  13.541  16.052  0.00  0.00    -0.302 N 
ATOM     19  HN  UNK N   1      35.154  14.784  17.650  1.00  0.00     0.189 HD
ATOM     20  HN  UNK N   1      34.836  14.318  15.402  1.00  0.00     0.186 HD
BRANCH  16  21
HETATM   21  O   UNK N   1      35.457  13.137  19.549  0.00  0.00    -0.344 OA
HETATM   22  H   UNK N   1      34.834  13.663  20.009  0.00  0.00     0.219 HD
ENDBRANCH  16  21
ENDBRANCH   8   9
ENDBRANCH   4   8
BRANCH   5  23
HETATM   23  C   UNK N   1      35.967  15.388  10.610  0.00  0.00     0.257 C 
HETATM   24  N   UNK N   1      35.249  15.410   9.436  0.00  0.00    -0.345 N 
HETATM   25  C   UNK N   1      34.891  16.660   8.798  0.00  0.00     0.146 C 
HETATM   26  C   UNK N   1      34.817  14.214   8.756  0.00  0.00     0.146 C 
HETATM   27  C   UNK N   1      33.360  16.716   8.673  0.00  0.00     0.145 C 
HETATM   28  N   UNK N   1      32.838  15.453   8.160  0.00  0.00    -0.349 N 
HETATM   29  C   UNK N   1      33.296  14.223   8.750  0.00  0.00     0.145 C 
HETATM   30  C   UNK N   1      31.919  15.399   7.155  0.00  0.00     0.224 C 
HETATM   31  O   UNK N   1      31.456  14.317   6.813  0.00  0.00    -0.273 OA
HETATM   32  O   UNK N   1      36.438  16.438  11.032  0.00  0.00    -0.267 OA
BRANCH  30  33
HETATM   33  C   UNK N   1      31.437  16.637   6.462  0.00  0.00     0.078 A 
HETATM   34  C   UNK N   1      30.122  17.076   7.088  0.00  0.00     0.015 A 
HETATM   35  C   UNK N   1      30.116  16.355   5.764  0.00  0.00     0.015 A 
ENDBRANCH  30  33
ENDBRANCH   5  23
TORSDOF 5
ENDMDL
MODEL 3
REMARK VINA RESULT:      -8.6      7.627     11.408
REMARK  5 active torsions:
REMARK  status: ('A' for Active; 'I' for Inactive)
REMARK    1  A    between atoms: C_15  and  C_14 
REMARK    2  A    between atoms: C_21  and  C_14 
REMARK    3  A    between atoms: C_23  and  C_16 
REMARK    4  A    between atoms: C_24  and  C_19 
REMARK    5  A    between atoms: O_32  and  C_22 
REMARK       I    between atoms: N_30  and  C_23 
REMARK       I    between atoms: N_31  and  C_24 
ROOT
HETATM    1  C   UNK N   1      35.637  15.921  11.176  0.00  0.00     0.010 C 
HETATM    2  C   UNK N   1      35.263  17.106  10.591  0.00  0.00     0.044 C 
HETATM    3  C   UNK N   1      35.284  14.750   9.090  0.00  0.00     0.027 C 
HETATM    4  C   UNK N   1      35.737  14.754  10.419  0.00  0.00    -0.051 C 
HETATM    5  C   UNK N   1      34.786  15.935   8.503  0.00  0.00     0.071 C 
HETATM    6  C   UNK N   1      34.881  17.136   9.264  0.00  0.00     0.132 C 
HETATM    7  F   UNK N   1      34.701  18.358   8.740  0.00  0.00    -0.205 F 
ENDROOT
BRANCH   4   8
HETATM    8  C   UNK N   1      36.416  13.554  11.023  0.00  0.00     0.098 C 
BRANCH   8   9
HETATM    9  C   UNK N   1      35.545  12.838  12.057  0.00  0.00     0.041 A 
HETATM   10  C   UNK N   1      35.709  13.067  13.428  0.00  0.00     0.003 A 
HETATM   11  C   UNK N   1      36.609  14.028  13.906  0.00  0.00     0.014 A 
HETATM   12  C   UNK N   1      34.961  12.293  14.344  0.00  0.00     0.028 A 
HETATM   13  C   UNK N   1      36.756  14.227  15.282  0.00  0.00     0.001 A 
HETATM   14  C   UNK N   1      36.017  13.458  16.186  0.00  0.00     0.001 A 
HETATM   15  C   UNK N   1      35.125  12.490  15.719  0.00  0.00     0.017 A 
HETATM   16  C   UNK N   1      34.074  11.325  13.859  0.00  0.00     0.166 A 
HETATM   17  N   UNK N   1      33.927  11.172  12.523  0.00  0.00    -0.279 N 
HETATM   18  N   UNK N   1      34.631  11.902  11.662  0.00  0.00    -0.302 N 
ATOM     19  HN  UNK N   1      33.263  10.484  12.170  1.00  0.00     0.189 HD
ATOM     20  HN  UNK N   1      34.481  11.757  10.663  1.00  0.00     0.186 HD
BRANCH  16  21
HETATM   21  O   UNK N   1      33.370  10.548  14.698  0.00  0.00    -0.344 OA
HETATM   22  H   UNK N   1      32.858  10.907  15.395  0.00  0.00     0.219 HD
ENDBRANCH  16  21
ENDBRANCH   8   9
ENDBRANCH   4   8
BRANCH   5  23
HETATM   23  C   UNK N   1      34.255  15.871   7.090  0.00  0.00     0.257 C 
HETATM   24  N   UNK N   1      32.913  15.834   6.787  0.00  0.00    -0.345 N 
HETATM   25  C   UNK N   1      32.452  15.898   5.415  0.00  0.00     0.146 C 
HETATM   26  C   UNK N   1      31.883  15.718   7.790  0.00  0.00     0.146 C 
HETATM   27  C   UNK N   1      31.519  17.112   5.277  0.00  0.00     0.145 C 
HETATM   28  N   UNK N   1      30.562  17.156   6.378  0.00  0.00    -0.349 N 
HETATM   29  C   UNK N   1      31.044  16.985   7.723  0.00  0.00     0.145 C 
HETATM   30  C   UNK N   1      29.231  17.371   6.178  0.00  0.00     0.224 C 
HETATM   31  O   UNK N   1      28.481  17.475   7.141  0.00  0.00    -0.273 OA
HETATM   32  O   UNK N   1      35.068  15.802   6.176  0.00  0.00    -0.267 OA
BRANCH  30  33
HETATM   33  C   UNK N   1      28.654  17.508   4.802  0.00  0.00     0.078 A 
HETATM   34  C   UNK N   1      28.229  18.952   4.583  0.00  0.00     0.015 A 
HETATM   35  C   UNK N   1      27.189  17.905   4.895  0.00  0.00     0.015 A 
ENDBRANCH  30  33
ENDBRANCH   5  23
TORSDOF 5
ENDMDL
MODEL 4
REMARK VINA RESULT:      -8.6      7.632     11.445
REMARK  5 active torsions:
REMARK  status: ('A' for Active; 'I' for Inactive)
REMARK    1  A    between atoms: C_15  and  C_14 
REMARK    2  A    between atoms: C_21  and  C_14 
REMARK    3  A    between atoms: C_23  and  C_16 
REMARK    4  A    between atoms: C_24  and  C_19 
REMARK    5  A    between atoms: O_32  and  C_22 
REMARK       I    between atoms: N_30  and  C_23 
REMARK       I    between atoms: N_31  and  C_24 
ROOT
HETATM    1  C   UNK N   1      33.801  15.307   6.908  0.00  0.00     0.010 C 
HETATM    2  C   UNK N   1      34.756  14.366   7.204  0.00  0.00     0.044 C 
HETATM    3  C   UNK N   1      34.272  16.471   8.975  0.00  0.00     0.027 C 
HETATM    4  C   UNK N   1      33.608  16.411   7.740  0.00  0.00    -0.051 C 
HETATM    5  C   UNK N   1      35.175  15.450   9.350  0.00  0.00     0.071 C 
HETATM    6  C   UNK N   1      35.470  14.446   8.383  0.00  0.00     0.132 C 
HETATM    7  F   UNK N   1      36.493  13.587   8.501  0.00  0.00    -0.205 F 
ENDROOT
BRANCH   4   8
HETATM    8  C   UNK N   1      32.765  17.554   7.243  0.00  0.00     0.098 C 
BRANCH   8   9
HETATM    9  C   UNK N   1      31.360  17.562   7.850  0.00  0.00     0.041 A 
HETATM   10  C   UNK N   1      30.250  17.121   7.119  0.00  0.00     0.003 A 
HETATM   11  C   UNK N   1      30.391  16.568   5.840  0.00  0.00     0.014 A 
HETATM   12  C   UNK N   1      28.962  17.260   7.684  0.00  0.00     0.028 A 
HETATM   13  C   UNK N   1      29.262  16.145   5.133  0.00  0.00     0.001 A 
HETATM   14  C   UNK N   1      27.988  16.286   5.692  0.00  0.00     0.001 A 
HETATM   15  C   UNK N   1      27.837  16.847   6.963  0.00  0.00     0.017 A 
HETATM   16  C   UNK N   1      28.829  17.827   8.956  0.00  0.00     0.166 A 
HETATM   17  N   UNK N   1      29.939  18.201   9.634  0.00  0.00    -0.279 N 
HETATM   18  N   UNK N   1      31.151  18.069   9.102  0.00  0.00    -0.302 N 
ATOM     19  HN  UNK N   1      29.844  18.592  10.571  1.00  0.00     0.189 HD
ATOM     20  HN  UNK N   1      31.960  18.357   9.653  1.00  0.00     0.186 HD
BRANCH  16  21
HETATM   21  O   UNK N   1      27.619  18.006   9.513  0.00  0.00    -0.344 OA
HETATM   22  H   UNK N   1      27.462  17.839  10.421  0.00  0.00     0.219 HD
ENDBRANCH  16  21
ENDBRANCH   8   9
ENDBRANCH   4   8
BRANCH   5  23
HETATM   23  C   UNK N   1      35.820  15.525  10.714  0.00  0.00     0.257 C 
HETATM   24  N   UNK N   1      35.518  14.662  11.743  0.00  0.00    -0.345 N 
HETATM   25  C   UNK N   1      36.253  14.697  12.990  0.00  0.00     0.146 C 
HETATM   26  C   UNK N   1      34.460  13.686  11.665  0.00  0.00     0.146 C 
HETATM   27  C   UNK N   1      36.874  13.309  13.221  0.00  0.00     0.145 C 
HETATM   28  N   UNK N   1      35.893  12.257  12.975  0.00  0.00    -0.349 N 
HETATM   29  C   UNK N   1      35.106  12.312  11.771  0.00  0.00     0.145 C 
HETATM   30  C   UNK N   1      35.709  11.215  13.834  0.00  0.00     0.224 C 
HETATM   31  O   UNK N   1      34.927  10.318  13.543  0.00  0.00    -0.273 OA
HETATM   32  O   UNK N   1      36.618  16.432  10.920  0.00  0.00    -0.267 OA
BRANCH  30  33
HETATM   33  C   UNK N   1      36.458  11.122  15.129  0.00  0.00     0.078 A 
HETATM   34  C   UNK N   1      37.587  10.114  14.977  0.00  0.00     0.015 A 
HETATM   35  C   UNK N   1      36.325   9.719  15.700  0.00  0.00     0.015 A 
ENDBRANCH  30  33
ENDBRANCH   5  23
TORSDOF 5
ENDMDL
MODEL 5
REMARK VINA RESULT:      -8.5      5.362      9.493
REMARK  5 active torsions:
REMARK  status: ('A' for Active; 'I' for Inactive)
REMARK    1  A    between atoms: C_15  and  C_14 
REMARK    2  A    between atoms: C_21  and  C_14 
REMARK    3  A    between atoms: C_23  and  C_16 
REMARK    4  A    between atoms: C_24  and  C_19 
REMARK    5  A    between atoms: O_32  and  C_22 
REMARK       I    between atoms: N_30  and  C_23 
REMARK       I    between atoms: N_31  and  C_24 
ROOT
HETATM    1  C   UNK N   1      30.405  16.691   5.110  0.00  0.00     0.010 C 
HETATM    2  C   UNK N   1      31.692  17.037   4.780  0.00  0.00     0.044 C 
HETATM    3  C   UNK N   1      30.899  16.996   7.457  0.00  0.00     0.027 C 
HETATM    4  C   UNK N   1      29.970  16.750   6.434  0.00  0.00    -0.051 C 
HETATM    5  C   UNK N   1      32.255  17.241   7.146  0.00  0.00     0.071 C 
HETATM    6  C   UNK N   1      32.604  17.351   5.769  0.00  0.00     0.132 C 
HETATM    7  F   UNK N   1      33.777  17.840   5.341  0.00  0.00    -0.205 F 
ENDROOT
BRANCH   4   8
HETATM    8  C   UNK N   1      28.496  16.642   6.718  0.00  0.00     0.098 C 
BRANCH   8   9
HETATM    9  C   UNK N   1      27.795  18.002   6.741  0.00  0.00     0.041 A 
HETATM   10  C   UNK N   1      27.109  18.485   5.620  0.00  0.00     0.003 A 
HETATM   11  C   UNK N   1      26.956  17.706   4.466  0.00  0.00     0.014 A 
HETATM   12  C   UNK N   1      26.580  19.795   5.655  0.00  0.00     0.028 A 
HETATM   13  C   UNK N   1      26.274  18.221   3.360  0.00  0.00     0.001 A 
HETATM   14  C   UNK N   1      25.755  19.519   3.396  0.00  0.00     0.001 A 
HETATM   15  C   UNK N   1      25.911  20.307   4.539  0.00  0.00     0.017 A 
HETATM   16  C   UNK N   1      26.749  20.572   6.807  0.00  0.00     0.166 A 
HETATM   17  N   UNK N   1      27.388  20.041   7.876  0.00  0.00    -0.279 N 
HETATM   18  N   UNK N   1      27.884  18.807   7.842  0.00  0.00    -0.302 N 
ATOM     19  HN  UNK N   1      27.489  20.598   8.724  1.00  0.00     0.189 HD
ATOM     20  HN  UNK N   1      28.350  18.446   8.674  1.00  0.00     0.186 HD
BRANCH  16  21
HETATM   21  O   UNK N   1      26.290  21.833   6.867  0.00  0.00    -0.344 OA
HETATM   22  H   UNK N   1      25.822  22.155   7.611  0.00  0.00     0.219 HD
ENDBRANCH  16  21
ENDBRANCH   8   9
ENDBRANCH   4   8
BRANCH   5  23
HETATM   23  C   UNK N   1      33.231  17.441   8.282  0.00  0.00     0.257 C 
HETATM   24  N   UNK N   1      33.641  16.425   9.115  0.00  0.00    -0.345 N 
HETATM   25  C   UNK N   1      34.671  16.642  10.111  0.00  0.00     0.146 C 
HETATM   26  C   UNK N   1      33.081  15.098   9.072  0.00  0.00     0.146 C 
HETATM   27  C   UNK N   1      35.818  15.654   9.839  0.00  0.00     0.145 C 
HETATM   28  N   UNK N   1      35.297  14.312   9.599  0.00  0.00    -0.349 N 
HETATM   29  C   UNK N   1      34.202  14.147   8.680  0.00  0.00     0.145 C 
HETATM   30  C   UNK N   1      35.822  13.208  10.201  0.00  0.00     0.224 C 
HETATM   31  O   UNK N   1      35.399  12.096   9.908  0.00  0.00    -0.273 OA
HETATM   32  O   UNK N   1      33.636  18.578   8.494  0.00  0.00    -0.267 OA
BRANCH  30  33
HETATM   33  C   UNK N   1      36.930  13.312  11.206  0.00  0.00     0.078 A 
HETATM   34  C   UNK N   1      38.252  13.005  10.521  0.00  0.00     0.015 A 
HETATM   35  C   UNK N   1      37.594  11.956  11.381  0.00  0.00     0.015 A 
ENDBRANCH  30  33
ENDBRANCH   5  23
TORSDOF 5
ENDMDL
MODEL 6
REMARK VINA RESULT:      -8.5      5.743      9.940
REMARK  5 active torsions:
REMARK  status: ('A' for Active; 'I' for Inactive)
REMARK    1  A    between atoms: C_15  and  C_14 
REMARK    2  A    between atoms: C_21  and  C_14 
REMARK    3  A    between atoms: C_23  and  C_16 
REMARK    4  A    between atoms: C_24  and  C_19 
REMARK    5  A    between atoms: O_32  and  C_22 
REMARK       I    between atoms: N_30  and  C_23 
REMARK       I    between atoms: N_31  and  C_24 
ROOT
HETATM    1  C   UNK N   1      30.657  16.945   5.844  0.00  0.00     0.010 C 
HETATM    2  C   UNK N   1      31.934  17.062   5.353  0.00  0.00     0.044 C 
HETATM    3  C   UNK N   1      31.457  17.341   8.091  0.00  0.00     0.027 C 
HETATM    4  C   UNK N   1      30.390  17.169   7.195  0.00  0.00    -0.051 C 
HETATM    5  C   UNK N   1      32.790  17.349   7.621  0.00  0.00     0.071 C 
HETATM    6  C   UNK N   1      32.989  17.302   6.211  0.00  0.00     0.132 C 
HETATM    7  F   UNK N   1      34.165  17.571   5.623  0.00  0.00    -0.205 F 
ENDROOT
BRANCH   4   8
HETATM    8  C   UNK N   1      28.959  17.312   7.638  0.00  0.00     0.098 C 
BRANCH   8   9
HETATM    9  C   UNK N   1      27.987  17.457   6.464  0.00  0.00     0.041 A 
HETATM   10  C   UNK N   1      27.485  18.708   6.087  0.00  0.00     0.003 A 
HETATM   11  C   UNK N   1      27.922  19.887   6.706  0.00  0.00     0.014 A 
HETATM   12  C   UNK N   1      26.502  18.773   5.075  0.00  0.00     0.028 A 
HETATM   13  C   UNK N   1      27.396  21.121   6.312  0.00  0.00     0.001 A 
HETATM   14  C   UNK N   1      26.420  21.181   5.313  0.00  0.00     0.001 A 
HETATM   15  C   UNK N   1      25.970  20.011   4.698  0.00  0.00     0.017 A 
HETATM   16  C   UNK N   1      26.060  17.590   4.472  0.00  0.00     0.166 A 
HETATM   17  N   UNK N   1      26.608  16.411   4.849  0.00  0.00    -0.279 N 
HETATM   18  N   UNK N   1      27.534  16.351   5.801  0.00  0.00    -0.302 N 
ATOM     19  HN  UNK N   1      26.303  15.551   4.392  1.00  0.00     0.189 HD
ATOM     20  HN  UNK N   1      27.923  15.441   6.047  1.00  0.00     0.186 HD
BRANCH  16  21
HETATM   21  O   UNK N   1      25.104  17.607   3.529  0.00  0.00    -0.344 OA
HETATM   22  H   UNK N   1      24.741  18.407   3.205  0.00  0.00     0.219 HD
ENDBRANCH  16  21
ENDBRANCH   8   9
ENDBRANCH   4   8
BRANCH   5  23
HETATM   23  C   UNK N   1      33.908  17.478   8.628  0.00  0.00     0.257 C 
HETATM   24  N   UNK N   1      34.198  16.513   9.565  0.00  0.00    -0.345 N 
HETATM   25  C   UNK N   1      35.357  16.628  10.426  0.00  0.00     0.146 C 
HETATM   26  C   UNK N   1      33.382  15.342   9.766  0.00  0.00     0.146 C 
HETATM   27  C   UNK N   1      36.244  15.390  10.208  0.00  0.00     0.145 C 
HETATM   28  N   UNK N   1      35.440  14.172  10.215  0.00  0.00    -0.349 N 
HETATM   29  C   UNK N   1      34.237  14.131   9.426  0.00  0.00     0.145 C 
HETATM   30  C   UNK N   1      35.799  13.066  10.927  0.00  0.00     0.224 C 
HETATM   31  O   UNK N   1      35.130  12.043  10.838  0.00  0.00    -0.273 OA
HETATM   32  O   UNK N   1      34.555  18.519   8.634  0.00  0.00    -0.267 OA
BRANCH  30  33
HETATM   33  C   UNK N   1      37.011  13.057  11.808  0.00  0.00     0.078 A 
HETATM   34  C   UNK N   1      38.181  12.468  11.035  0.00  0.00     0.015 A 
HETATM   35  C   UNK N   1      37.457  11.625  12.054  0.00  0.00     0.015 A 
ENDBRANCH  30  33
ENDBRANCH   5  23
TORSDOF 5
ENDMDL
MODEL 7
REMARK VINA RESULT:      -8.3      3.686      6.438
REMARK  5 active torsions:
REMARK  status: ('A' for Active; 'I' for Inactive)
REMARK    1  A    between atoms: C_15  and  C_14 
REMARK    2  A    between atoms: C_21  and  C_14 
REMARK    3  A    between atoms: C_23  and  C_16 
REMARK    4  A    between atoms: C_24  and  C_19 
REMARK    5  A    between atoms: O_32  and  C_22 
REMARK       I    between atoms: N_30  and  C_23 
REMARK       I    between atoms: N_31  and  C_24 
ROOT
HETATM    1  C   UNK N   1      29.571  17.173   7.850  0.00  0.00     0.010 C 
HETATM    2  C   UNK N   1      28.632  18.113   8.196  0.00  0.00     0.044 C 
HETATM    3  C   UNK N   1      29.363  17.786   5.521  0.00  0.00     0.027 C 
HETATM    4  C   UNK N   1      30.010  17.058   6.531  0.00  0.00    -0.051 C 
HETATM    5  C   UNK N   1      28.314  18.676   5.843  0.00  0.00     0.071 C 
HETATM    6  C   UNK N   1      28.034  18.890   7.224  0.00  0.00     0.132 C 
HETATM    7  F   UNK N   1      27.264  19.892   7.674  0.00  0.00    -0.205 F 
ENDROOT
BRANCH   4   8
HETATM    8  C   UNK N   1      31.229  16.224   6.244  0.00  0.00     0.098 C 
BRANCH   8   9
HETATM    9  C   UNK N   1      32.419  16.585   7.137  0.00  0.00     0.041 A 
HETATM   10  C   UNK N   1      32.980  15.647   8.012  0.00  0.00     0.003 A 
HETATM   11  C   UNK N   1      32.539  14.317   8.040  0.00  0.00     0.014 A 
HETATM   12  C   UNK N   1      33.999  16.065   8.898  0.00  0.00     0.028 A 
HETATM   13  C   UNK N   1      33.115  13.408   8.931  0.00  0.00     0.001 A 
HETATM   14  C   UNK N   1      34.120  13.824   9.809  0.00  0.00     0.001 A 
HETATM   15  C   UNK N   1      34.559  15.150   9.797  0.00  0.00     0.017 A 
HETATM   16  C   UNK N   1      34.423  17.397   8.875  0.00  0.00     0.166 A 
HETATM   17  N   UNK N   1      33.872  18.252   7.982  0.00  0.00    -0.279 N 
HETATM   18  N   UNK N   1      32.915  17.858   7.147  0.00  0.00    -0.302 N 
ATOM     19  HN  UNK N   1      34.199  19.218   7.948  1.00  0.00     0.189 HD
ATOM     20  HN  UNK N   1      32.534  18.535   6.486  1.00  0.00     0.186 HD
BRANCH  16  21
HETATM   21  O   UNK N   1      35.366  17.841   9.724  0.00  0.00    -0.344 OA
HETATM   22  H   UNK N   1      35.920  18.565   9.514  0.00  0.00     0.219 HD
ENDBRANCH  16  21
ENDBRANCH   8   9
ENDBRANCH   4   8
BRANCH   5  23
HETATM   23  C   UNK N   1      27.607  19.395   4.717  0.00  0.00     0.257 C 
HETATM   24  N   UNK N   1      26.447  18.935   4.137  0.00  0.00    -0.345 N 
HETATM   25  C   UNK N   1      25.741  19.722   3.146  0.00  0.00     0.146 C 
HETATM   26  C   UNK N   1      25.862  17.656   4.453  0.00  0.00     0.146 C 
HETATM   27  C   UNK N   1      24.312  19.970   3.657  0.00  0.00     0.145 C 
HETATM   28  N   UNK N   1      23.726  18.735   4.169  0.00  0.00    -0.349 N 
HETATM   29  C   UNK N   1      24.499  17.923   5.072  0.00  0.00     0.145 C 
HETATM   30  C   UNK N   1      22.467  18.333   3.837  0.00  0.00     0.224 C 
HETATM   31  O   UNK N   1      21.993  17.328   4.354  0.00  0.00    -0.273 OA
HETATM   32  O   UNK N   1      28.125  20.412   4.274  0.00  0.00    -0.267 OA
BRANCH  30  33
HETATM   33  C   UNK N   1      21.627  19.103   2.864  0.00  0.00     0.078 A 
HETATM   34  C   UNK N   1      20.637  19.963   3.635  0.00  0.00     0.015 A 
HETATM   35  C   UNK N   1      20.172  18.680   2.993  0.00  0.00     0.015 A 
ENDBRANCH  30  33
ENDBRANCH   5  23
TORSDOF 5
ENDMDL
MODEL 8
REMARK VINA RESULT:      -8.2      3.417      7.901
REMARK  5 active torsions:
REMARK  status: ('A' for Active; 'I' for Inactive)
REMARK    1  A    between atoms: C_15  and  C_14 
REMARK    2  A    between atoms: C_21  and  C_14 
REMARK    3  A    between atoms: C_23  and  C_16 
REMARK    4  A    between atoms: C_24  and  C_19 
REMARK    5  A    between atoms: O_32  and  C_22 
REMARK       I    between atoms: N_30  and  C_23 
REMARK       I    between atoms: N_31  and  C_24 
ROOT
HETATM    1  C   UNK N   1      23.524  19.755   3.391  0.00  0.00     0.010 C 
HETATM    2  C   UNK N   1      24.707  20.396   3.116  0.00  0.00     0.044 C 
HETATM    3  C   UNK N   1      24.727  17.773   4.075  0.00  0.00     0.027 C 
HETATM    4  C   UNK N   1      23.520  18.478   3.952  0.00  0.00    -0.051 C 
HETATM    5  C   UNK N   1      25.947  18.373   3.689  0.00  0.00     0.071 C 
HETATM    6  C   UNK N   1      25.910  19.743   3.298  0.00  0.00     0.132 C 
HETATM    7  F   UNK N   1      27.008  20.503   3.169  0.00  0.00    -0.205 F 
ENDROOT
BRANCH   4   8
HETATM    8  C   UNK N   1      22.229  17.930   4.498  0.00  0.00     0.098 C 
BRANCH   8   9
HETATM    9  C   UNK N   1      21.238  17.541   3.398  0.00  0.00     0.041 A 
HETATM   10  C   UNK N   1      21.378  16.345   2.684  0.00  0.00     0.003 A 
HETATM   11  C   UNK N   1      22.372  15.413   3.008  0.00  0.00     0.014 A 
HETATM   12  C   UNK N   1      20.506  16.090   1.602  0.00  0.00     0.028 A 
HETATM   13  C   UNK N   1      22.491  14.232   2.270  0.00  0.00     0.001 A 
HETATM   14  C   UNK N   1      21.630  13.984   1.197  0.00  0.00     0.001 A 
HETATM   15  C   UNK N   1      20.642  14.912   0.860  0.00  0.00     0.017 A 
HETATM   16  C   UNK N   1      19.525  17.033   1.275  0.00  0.00     0.166 A 
HETATM   17  N   UNK N   1      19.410  18.155   2.024  0.00  0.00    -0.279 N 
HETATM   18  N   UNK N   1      20.230  18.393   3.043  0.00  0.00    -0.302 N 
ATOM     19  HN  UNK N   1      18.679  18.830   1.801  1.00  0.00     0.189 HD
ATOM     20  HN  UNK N   1      20.101  19.248   3.584  1.00  0.00     0.186 HD
BRANCH  16  21
HETATM   21  O   UNK N   1      18.699  16.842   0.233  0.00  0.00    -0.344 OA
HETATM   22  H   UNK N   1      18.760  16.086  -0.316  0.00  0.00     0.219 HD
ENDBRANCH  16  21
ENDBRANCH   8   9
ENDBRANCH   4   8
BRANCH   5  23
HETATM   23  C   UNK N   1      27.214  17.556   3.783  0.00  0.00     0.257 C 
HETATM   24  N   UNK N   1      28.234  17.839   4.662  0.00  0.00    -0.345 N 
HETATM   25  C   UNK N   1      29.373  16.954   4.800  0.00  0.00     0.146 C 
HETATM   26  C   UNK N   1      28.255  19.021   5.488  0.00  0.00     0.146 C 
HETATM   27  C   UNK N   1      29.456  16.503   6.268  0.00  0.00     0.145 C 
HETATM   28  N   UNK N   1      29.296  17.641   7.167  0.00  0.00    -0.349 N 
HETATM   29  C   UNK N   1      28.212  18.560   6.937  0.00  0.00     0.145 C 
HETATM   30  C   UNK N   1      30.125  17.854   8.228  0.00  0.00     0.224 C 
HETATM   31  O   UNK N   1      29.901  18.781   8.998  0.00  0.00    -0.273 OA
HETATM   32  O   UNK N   1      27.352  16.623   3.001  0.00  0.00    -0.267 OA
BRANCH  30  33
HETATM   33  C   UNK N   1      31.302  16.966   8.498  0.00  0.00     0.078 A 
HETATM   34  C   UNK N   1      32.568  17.809   8.505  0.00  0.00     0.015 A 
HETATM   35  C   UNK N   1      32.235  16.971   7.297  0.00  0.00     0.015 A 
ENDBRANCH  30  33
ENDBRANCH   5  23
TORSDOF 5
ENDMDL
MODEL 9
REMARK VINA RESULT:      -8.1      1.844      2.346
REMARK  5 active torsions:
REMARK  status: ('A' for Active; 'I' for Inactive)
REMARK    1  A    between atoms: C_15  and  C_14 
REMARK    2  A    between atoms: C_21  and  C_14 
REMARK    3  A    between atoms: C_23  and  C_16 
REMARK    4  A    between atoms: C_24  and  C_19 
REMARK    5  A    between atoms: O_32  and  C_22 
REMARK       I    between atoms: N_30  and  C_23 
REMARK       I    between atoms: N_31  and  C_24 
ROOT
HETATM    1  C   UNK N   1      23.116  20.390   2.630  0.00  0.00     0.010 C 
HETATM    2  C   UNK N   1      21.755  20.220   2.706  0.00  0.00     0.044 C 
HETATM    3  C   UNK N   1      23.430  18.911   4.517  0.00  0.00     0.027 C 
HETATM    4  C   UNK N   1      23.970  19.675   3.470  0.00  0.00    -0.051 C 
HETATM    5  C   UNK N   1      22.030  18.816   4.683  0.00  0.00     0.071 C 
HETATM    6  C   UNK N   1      21.208  19.415   3.685  0.00  0.00     0.132 C 
HETATM    7  F   UNK N   1      19.893  19.176   3.572  0.00  0.00    -0.205 F 
ENDROOT
BRANCH   4   8
HETATM    8  C   UNK N   1      25.444  19.670   3.171  0.00  0.00     0.098 C 
BRANCH   8   9
HETATM    9  C   UNK N   1      26.197  18.560   3.909  0.00  0.00     0.041 A 
HETATM   10  C   UNK N   1      26.850  18.809   5.121  0.00  0.00     0.003 A 
HETATM   11  C   UNK N   1      26.765  20.055   5.755  0.00  0.00     0.014 A 
HETATM   12  C   UNK N   1      27.627  17.781   5.701  0.00  0.00     0.028 A 
HETATM   13  C   UNK N   1      27.437  20.274   6.962  0.00  0.00     0.001 A 
HETATM   14  C   UNK N   1      28.208  19.257   7.531  0.00  0.00     0.001 A 
HETATM   15  C   UNK N   1      28.308  18.014   6.901  0.00  0.00     0.017 A 
HETATM   16  C   UNK N   1      27.719  16.544   5.054  0.00  0.00     0.166 A 
HETATM   17  N   UNK N   1      27.035  16.346   3.903  0.00  0.00    -0.279 N 
HETATM   18  N   UNK N   1      26.303  17.314   3.359  0.00  0.00    -0.302 N 
ATOM     19  HN  UNK N   1      27.083  15.436   3.445  1.00  0.00     0.189 HD
ATOM     20  HN  UNK N   1      25.799  17.117   2.495  1.00  0.00     0.186 HD
BRANCH  16  21
HETATM   21  O   UNK N   1      28.474  15.553   5.557  0.00  0.00    -0.344 OA
HETATM   22  H   UNK N   1      28.849  15.600   6.414  0.00  0.00     0.219 HD
ENDBRANCH  16  21
ENDBRANCH   8   9
ENDBRANCH   4   8
BRANCH   5  23
HETATM   23  C   UNK N   1      21.495  18.031   5.857  0.00  0.00     0.257 C 
HETATM   24  N   UNK N   1      21.425  16.657   5.881  0.00  0.00    -0.345 N 
HETATM   25  C   UNK N   1      21.021  15.947   7.077  0.00  0.00     0.146 C 
HETATM   26  C   UNK N   1      21.730  15.834   4.736  0.00  0.00     0.146 C 
HETATM   27  C   UNK N   1      22.155  14.987   7.473  0.00  0.00     0.145 C 
HETATM   28  N   UNK N   1      22.640  14.252   6.310  0.00  0.00    -0.349 N 
HETATM   29  C   UNK N   1      22.933  14.979   5.103  0.00  0.00     0.145 C 
HETATM   30  C   UNK N   1      22.841  12.904   6.331  0.00  0.00     0.224 C 
HETATM   31  O   UNK N   1      23.322  12.345   5.352  0.00  0.00    -0.273 OA
HETATM   32  O   UNK N   1      21.061  18.660   6.815  0.00  0.00    -0.267 OA
BRANCH  30  33
HETATM   33  C   UNK N   1      22.510  12.078   7.537  0.00  0.00     0.078 A 
HETATM   34  C   UNK N   1      23.772  11.873   8.360  0.00  0.00     0.015 A 
HETATM   35  C   UNK N   1      23.263  10.759   7.481  0.00  0.00     0.015 A 
ENDBRANCH  30  33
ENDBRANCH   5  23
TORSDOF 5
ENDMDL
