MODEL 1
REMARK VINA RESULT:      -5.0      0.000      0.000
REMARK  4 active torsions:
REMARK  status: ('A' for Active; 'I' for Inactive)
REMARK    1  A    between atoms: O_1  and  C_6 
REMARK    2  A    between atoms: O_2  and  C_8 
REMARK    3  A    between atoms: C_3  and  C_4 
REMARK    4  A    between atoms: C_4  and  C_10 
ROOT
HETATM    1  C   UNK N   1      21.645  13.170  10.244  0.00  0.00    -0.052 A 
HETATM    2  C   UNK N   1      22.796  13.507   9.543  0.00  0.00     0.047 A 
HETATM    3  C   UNK N   1      24.056  13.027   9.939  0.00  0.00     0.101 A 
HETATM    4  C   UNK N   1      21.739  12.334  11.370  0.00  0.00     0.010 A 
HETATM    5  C   UNK N   1      24.140  12.194  11.064  0.00  0.00     0.099 A 
HETATM    6  C   UNK N   1      22.990  11.848  11.777  0.00  0.00     0.040 A 
ENDROOT
BRANCH   1   7
HETATM    7  C   UNK N   1      20.350  13.732   9.742  0.00  0.00     0.065 C 
BRANCH   7   8
HETATM    8  C   UNK N   1      20.472  14.708   8.622  0.00  0.00    -0.032 C 
HETATM    9  C   UNK N   1      20.110  15.969   8.826  0.00  0.00     0.007 C 
ENDBRANCH   7   8
ENDBRANCH   1   7
BRANCH   3  10
HETATM   10  O   UNK N   1      25.168  13.361   9.250  0.00  0.00    -0.353 OA
HETATM   11  C   UNK N   1      25.154  13.668   7.906  0.00  0.00     0.210 C 
ENDBRANCH   3  10
BRANCH   5  12
HETATM   12  O   UNK N   1      25.340  11.722  11.462  0.00  0.00    -0.358 OA
HETATM   13  H   UNK N   1      26.114  12.229  11.319  0.00  0.00     0.217 HD
ENDBRANCH   5  12
TORSDOF 4
ENDMDL
MODEL 2
REMARK VINA RESULT:      -4.9     12.692     14.632
REMARK  4 active torsions:
REMARK  status: ('A' for Active; 'I' for Inactive)
REMARK    1  A    between atoms: O_1  and  C_6 
REMARK    2  A    between atoms: O_2  and  C_8 
REMARK    3  A    between atoms: C_3  and  C_4 
REMARK    4  A    between atoms: C_4  and  C_10 
ROOT
HETATM    1  C   UNK N   1      35.235  11.836  16.543  0.00  0.00    -0.052 A 
HETATM    2  C   UNK N   1      35.270  13.189  16.857  0.00  0.00     0.047 A 
HETATM    3  C   UNK N   1      35.286  13.627  18.191  0.00  0.00     0.101 A 
HETATM    4  C   UNK N   1      35.215  10.886  17.578  0.00  0.00     0.010 A 
HETATM    5  C   UNK N   1      35.265  12.671  19.218  0.00  0.00     0.099 A 
HETATM    6  C   UNK N   1      35.230  11.308  18.915  0.00  0.00     0.040 A 
ENDROOT
BRANCH   1   7
HETATM    7  C   UNK N   1      35.221  11.472  15.089  0.00  0.00     0.065 C 
BRANCH   7   8
HETATM    8  C   UNK N   1      33.881  11.130  14.532  0.00  0.00    -0.032 C 
HETATM    9  C   UNK N   1      33.813  10.427  13.408  0.00  0.00     0.007 C 
ENDBRANCH   7   8
ENDBRANCH   1   7
BRANCH   3  10
HETATM   10  O   UNK N   1      35.320  14.944  18.485  0.00  0.00    -0.353 OA
HETATM   11  C   UNK N   1      36.287  15.797  17.996  0.00  0.00     0.210 C 
ENDBRANCH   3  10
BRANCH   5  12
HETATM   12  O   UNK N   1      35.280  13.069  20.507  0.00  0.00    -0.358 OA
HETATM   13  H   UNK N   1      36.095  13.216  20.943  0.00  0.00     0.217 HD
ENDBRANCH   5  12
TORSDOF 4
ENDMDL
MODEL 3
REMARK VINA RESULT:      -4.9     12.971     15.173
REMARK  4 active torsions:
REMARK  status: ('A' for Active; 'I' for Inactive)
REMARK    1  A    between atoms: O_1  and  C_6 
REMARK    2  A    between atoms: O_2  and  C_8 
REMARK    3  A    between atoms: C_3  and  C_4 
REMARK    4  A    between atoms: C_4  and  C_10 
ROOT
HETATM    1  C   UNK N   1      35.542  11.666  16.938  0.00  0.00    -0.052 A 
HETATM    2  C   UNK N   1      35.521  10.899  18.096  0.00  0.00     0.047 A 
HETATM    3  C   UNK N   1      35.293  11.485  19.353  0.00  0.00     0.101 A 
HETATM    4  C   UNK N   1      35.332  13.053  17.021  0.00  0.00     0.010 A 
HETATM    5  C   UNK N   1      35.084  12.870  19.426  0.00  0.00     0.099 A 
HETATM    6  C   UNK N   1      35.103  13.651  18.269  0.00  0.00     0.040 A 
ENDROOT
BRANCH   1   7
HETATM    7  C   UNK N   1      35.794  10.947  15.647  0.00  0.00     0.065 C 
BRANCH   7   8
HETATM    8  C   UNK N   1      34.654  10.130  15.142  0.00  0.00    -0.032 C 
HETATM    9  C   UNK N   1      33.614  10.747  14.593  0.00  0.00     0.007 C 
ENDBRANCH   7   8
ENDBRANCH   1   7
BRANCH   3  10
HETATM   10  O   UNK N   1      35.274  10.730  20.472  0.00  0.00    -0.353 OA
HETATM   11  C   UNK N   1      34.173  10.000  20.866  0.00  0.00     0.210 C 
ENDBRANCH   3  10
BRANCH   5  12
HETATM   12  O   UNK N   1      34.863  13.454  20.623  0.00  0.00    -0.358 OA
HETATM   13  H   UNK N   1      35.303  13.138  21.387  0.00  0.00     0.217 HD
ENDBRANCH   5  12
TORSDOF 4
ENDMDL
MODEL 4
REMARK VINA RESULT:      -4.8     18.301     20.289
REMARK  4 active torsions:
REMARK  status: ('A' for Active; 'I' for Inactive)
REMARK    1  A    between atoms: O_1  and  C_6 
REMARK    2  A    between atoms: O_2  and  C_8 
REMARK    3  A    between atoms: C_3  and  C_4 
REMARK    4  A    between atoms: C_4  and  C_10 
ROOT
HETATM    1  C   UNK N   1      26.040  27.790  -4.081  0.00  0.00    -0.052 A 
HETATM    2  C   UNK N   1      26.448  26.639  -3.418  0.00  0.00     0.047 A 
HETATM    3  C   UNK N   1      26.198  25.363  -3.952  0.00  0.00     0.101 A 
HETATM    4  C   UNK N   1      25.364  27.679  -5.308  0.00  0.00     0.010 A 
HETATM    5  C   UNK N   1      25.522  25.263  -5.177  0.00  0.00     0.099 A 
HETATM    6  C   UNK N   1      25.107  26.412  -5.853  0.00  0.00     0.040 A 
ENDROOT
BRANCH   1   7
HETATM    7  C   UNK N   1      26.354  29.102  -3.430  0.00  0.00     0.065 C 
BRANCH   7   8
HETATM    8  C   UNK N   1      26.648  30.223  -4.367  0.00  0.00    -0.032 C 
HETATM    9  C   UNK N   1      27.903  30.426  -4.754  0.00  0.00     0.007 C 
ENDBRANCH   7   8
ENDBRANCH   1   7
BRANCH   3  10
HETATM   10  O   UNK N   1      26.600  24.252  -3.299  0.00  0.00    -0.353 OA
HETATM   11  C   UNK N   1      27.927  23.907  -3.152  0.00  0.00     0.210 C 
ENDBRANCH   3  10
BRANCH   5  12
HETATM   12  O   UNK N   1      25.271  24.048  -5.708  0.00  0.00    -0.358 OA
HETATM   13  H   UNK N   1      25.283  23.287  -5.162  0.00  0.00     0.217 HD
ENDBRANCH   5  12
TORSDOF 4
ENDMDL
MODEL 5
REMARK VINA RESULT:      -4.7      8.007     10.078
REMARK  4 active torsions:
REMARK  status: ('A' for Active; 'I' for Inactive)
REMARK    1  A    between atoms: O_1  and  C_6 
REMARK    2  A    between atoms: O_2  and  C_8 
REMARK    3  A    between atoms: C_3  and  C_4 
REMARK    4  A    between atoms: C_4  and  C_10 
ROOT
HETATM    1  C   UNK N   1      22.271  19.312   3.352  0.00  0.00    -0.052 A 
HETATM    2  C   UNK N   1      21.591  18.173   3.765  0.00  0.00     0.047 A 
HETATM    3  C   UNK N   1      20.236  17.978   3.449  0.00  0.00     0.101 A 
HETATM    4  C   UNK N   1      21.593  20.290   2.605  0.00  0.00     0.010 A 
HETATM    5  C   UNK N   1      19.568  18.960   2.702  0.00  0.00     0.099 A 
HETATM    6  C   UNK N   1      20.240  20.110   2.281  0.00  0.00     0.040 A 
ENDROOT
BRANCH   1   7
HETATM    7  C   UNK N   1      23.714  19.426   3.741  0.00  0.00     0.065 C 
BRANCH   7   8
HETATM    8  C   UNK N   1      24.484  20.481   3.024  0.00  0.00    -0.032 C 
HETATM    9  C   UNK N   1      25.809  20.397   2.987  0.00  0.00     0.007 C 
ENDBRANCH   7   8
ENDBRANCH   1   7
BRANCH   3  10
HETATM   10  O   UNK N   1      19.586  16.867   3.855  0.00  0.00    -0.353 OA
HETATM   11  C   UNK N   1      19.932  15.600   3.435  0.00  0.00     0.210 C 
ENDBRANCH   3  10
BRANCH   5  12
HETATM   12  O   UNK N   1      18.266  18.794   2.386  0.00  0.00    -0.358 OA
HETATM   13  H   UNK N   1      17.823  18.005   2.628  0.00  0.00     0.217 HD
ENDBRANCH   5  12
TORSDOF 4
ENDMDL
MODEL 6
REMARK VINA RESULT:      -4.7     21.569     23.382
REMARK  4 active torsions:
REMARK  status: ('A' for Active; 'I' for Inactive)
REMARK    1  A    between atoms: O_1  and  C_6 
REMARK    2  A    between atoms: O_2  and  C_8 
REMARK    3  A    between atoms: C_3  and  C_4 
REMARK    4  A    between atoms: C_4  and  C_10 
ROOT
HETATM    1  C   UNK N   1      41.994  21.891   2.575  0.00  0.00    -0.052 A 
HETATM    2  C   UNK N   1      42.683  23.098   2.549  0.00  0.00     0.047 A 
HETATM    3  C   UNK N   1      43.975  23.211   3.088  0.00  0.00     0.101 A 
HETATM    4  C   UNK N   1      42.599  20.761   3.151  0.00  0.00     0.010 A 
HETATM    5  C   UNK N   1      44.571  22.077   3.661  0.00  0.00     0.099 A 
HETATM    6  C   UNK N   1      43.888  20.859   3.694  0.00  0.00     0.040 A 
ENDROOT
BRANCH   1   7
HETATM    7  C   UNK N   1      40.622  21.874   1.974  0.00  0.00     0.065 C 
BRANCH   7   8
HETATM    8  C   UNK N   1      40.191  20.564   1.410  0.00  0.00    -0.032 C 
HETATM    9  C   UNK N   1      40.179  20.403   0.092  0.00  0.00     0.007 C 
ENDBRANCH   7   8
ENDBRANCH   1   7
BRANCH   3  10
HETATM   10  O   UNK N   1      44.635  24.388   3.057  0.00  0.00    -0.353 OA
HETATM   11  C   UNK N   1      45.435  24.772   2.002  0.00  0.00     0.210 C 
ENDBRANCH   3  10
BRANCH   5  12
HETATM   12  O   UNK N   1      45.811  22.162   4.186  0.00  0.00    -0.358 OA
HETATM   13  H   UNK N   1      46.257  21.387   4.464  0.00  0.00     0.217 HD
ENDBRANCH   5  12
TORSDOF 4
ENDMDL
MODEL 7
REMARK VINA RESULT:      -4.7      7.357      9.559
REMARK  4 active torsions:
REMARK  status: ('A' for Active; 'I' for Inactive)
REMARK    1  A    between atoms: O_1  and  C_6 
REMARK    2  A    between atoms: O_2  and  C_8 
REMARK    3  A    between atoms: C_3  and  C_4 
REMARK    4  A    between atoms: C_4  and  C_10 
ROOT
HETATM    1  C   UNK N   1      31.033  17.474   7.568  0.00  0.00    -0.052 A 
HETATM    2  C   UNK N   1      29.850  17.016   7.003  0.00  0.00     0.047 A 
HETATM    3  C   UNK N   1      28.608  17.262   7.613  0.00  0.00     0.101 A 
HETATM    4  C   UNK N   1      30.991  18.197   8.773  0.00  0.00     0.010 A 
HETATM    5  C   UNK N   1      28.576  17.983   8.815  0.00  0.00     0.099 A 
HETATM    6  C   UNK N   1      29.759  18.449   9.394  0.00  0.00     0.040 A 
ENDROOT
BRANCH   1   7
HETATM    7  C   UNK N   1      32.305  17.161   6.840  0.00  0.00     0.065 C 
BRANCH   7   8
HETATM    8  C   UNK N   1      32.154  16.901   5.380  0.00  0.00    -0.032 C 
HETATM    9  C   UNK N   1      32.896  17.594   4.524  0.00  0.00     0.007 C 
ENDBRANCH   7   8
ENDBRANCH   1   7
BRANCH   3  10
HETATM   10  O   UNK N   1      27.465  16.812   7.054  0.00  0.00    -0.353 OA
HETATM   11  C   UNK N   1      27.353  16.507   5.714  0.00  0.00     0.210 C 
ENDBRANCH   3  10
BRANCH   5  12
HETATM   12  O   UNK N   1      27.395  18.231   9.419  0.00  0.00    -0.358 OA
HETATM   13  H   UNK N   1      26.812  18.872   9.064  0.00  0.00     0.217 HD
ENDBRANCH   5  12
TORSDOF 4
ENDMDL
MODEL 8
REMARK VINA RESULT:      -4.6     17.534     18.667
REMARK  4 active torsions:
REMARK  status: ('A' for Active; 'I' for Inactive)
REMARK    1  A    between atoms: O_1  and  C_6 
REMARK    2  A    between atoms: O_2  and  C_8 
REMARK    3  A    between atoms: C_3  and  C_4 
REMARK    4  A    between atoms: C_4  and  C_10 
ROOT
HETATM    1  C   UNK N   1      29.972  21.549  -5.429  0.00  0.00    -0.052 A 
HETATM    2  C   UNK N   1      29.281  22.676  -5.000  0.00  0.00     0.047 A 
HETATM    3  C   UNK N   1      29.448  23.180  -3.699  0.00  0.00     0.101 A 
HETATM    4  C   UNK N   1      30.853  20.900  -4.548  0.00  0.00     0.010 A 
HETATM    5  C   UNK N   1      30.330  22.525  -2.827  0.00  0.00     0.099 A 
HETATM    6  C   UNK N   1      31.029  21.391  -3.247  0.00  0.00     0.040 A 
ENDROOT
BRANCH   1   7
HETATM    7  C   UNK N   1      29.725  21.091  -6.834  0.00  0.00     0.065 C 
BRANCH   7   8
HETATM    8  C   UNK N   1      30.162  19.698  -7.135  0.00  0.00    -0.032 C 
HETATM    9  C   UNK N   1      29.308  18.869  -7.725  0.00  0.00     0.007 C 
ENDBRANCH   7   8
ENDBRANCH   1   7
BRANCH   3  10
HETATM   10  O   UNK N   1      28.772  24.276  -3.292  0.00  0.00    -0.353 OA
HETATM   11  C   UNK N   1      27.401  24.390  -3.388  0.00  0.00     0.210 C 
ENDBRANCH   3  10
BRANCH   5  12
HETATM   12  O   UNK N   1      30.505  22.992  -1.573  0.00  0.00    -0.358 OA
HETATM   13  H   UNK N   1      31.358  23.247  -1.283  0.00  0.00     0.217 HD
ENDBRANCH   5  12
TORSDOF 4
ENDMDL
MODEL 9
REMARK VINA RESULT:      -4.5      8.241     10.221
REMARK  4 active torsions:
REMARK  status: ('A' for Active; 'I' for Inactive)
REMARK    1  A    between atoms: O_1  and  C_6 
REMARK    2  A    between atoms: O_2  and  C_8 
REMARK    3  A    between atoms: C_3  and  C_4 
REMARK    4  A    between atoms: C_4  and  C_10 
ROOT
HETATM    1  C   UNK N   1      25.086  19.872   3.502  0.00  0.00    -0.052 A 
HETATM    2  C   UNK N   1      24.059  20.644   2.974  0.00  0.00     0.047 A 
HETATM    3  C   UNK N   1      22.716  20.246   3.085  0.00  0.00     0.101 A 
HETATM    4  C   UNK N   1      24.779  18.669   4.161  0.00  0.00     0.010 A 
HETATM    5  C   UNK N   1      22.420  19.043   3.744  0.00  0.00     0.099 A 
HETATM    6  C   UNK N   1      23.443  18.258   4.279  0.00  0.00     0.040 A 
ENDROOT
BRANCH   1   7
HETATM    7  C   UNK N   1      26.484  20.383   3.331  0.00  0.00     0.065 C 
BRANCH   7   8
HETATM    8  C   UNK N   1      27.410  20.093   4.462  0.00  0.00    -0.032 C 
HETATM    9  C   UNK N   1      27.410  20.901   5.517  0.00  0.00     0.007 C 
ENDBRANCH   7   8
ENDBRANCH   1   7
BRANCH   3  10
HETATM   10  O   UNK N   1      21.727  21.005   2.568  0.00  0.00    -0.353 OA
HETATM   11  C   UNK N   1      21.072  20.687   1.397  0.00  0.00     0.210 C 
ENDBRANCH   3  10
BRANCH   5  12
HETATM   12  O   UNK N   1      21.137  18.641   3.863  0.00  0.00    -0.358 OA
HETATM   13  H   UNK N   1      20.919  17.933   4.436  0.00  0.00     0.217 HD
ENDBRANCH   5  12
TORSDOF 4
ENDMDL
