MODEL 1
REMARK VINA RESULT:      -6.1      0.000      0.000
REMARK  6 active torsions:
REMARK  status: ('A' for Active; 'I' for Inactive)
REMARK    1  A    between atoms: C_16  and  C_15 
REMARK    2  A    between atoms: N_22  and  C_15 
REMARK    3  A    between atoms: O_23  and  C_16 
REMARK    4  A    between atoms: C_20  and  C_17 
REMARK    5  A    between atoms: C_20  and  C_18 
REMARK    6  A    between atoms: O_23  and  C_20 
ROOT
HETATM    1  C   UNK N   1      35.846  12.434  15.056  0.00  0.00     0.187 C 
ENDROOT
BRANCH   1   2
HETATM    2  C   UNK N   1      35.624  12.346  16.560  0.00  0.00    -0.025 A 
HETATM    3  C   UNK N   1      35.731  11.148  17.280  0.00  0.00     0.010 A 
HETATM    4  C   UNK N   1      35.542  11.127  18.665  0.00  0.00     0.001 A 
HETATM    5  C   UNK N   1      35.241  12.309  19.345  0.00  0.00     0.000 A 
HETATM    6  C   UNK N   1      35.132  13.509  18.640  0.00  0.00     0.001 A 
HETATM    7  C   UNK N   1      35.328  13.528  17.256  0.00  0.00     0.010 A 
ENDBRANCH   1   2
BRANCH   1   8
HETATM    8  C   UNK N   1      35.497  11.260  14.148  0.00  0.00    -0.025 A 
HETATM    9  C   UNK N   1      36.440  10.317  13.718  0.00  0.00     0.012 A 
HETATM   10  C   UNK N   1      36.067   9.269  12.868  0.00  0.00     0.024 A 
HETATM   11  C   UNK N   1      34.742   9.157  12.443  0.00  0.00     0.034 A 
HETATM   12  C   UNK N   1      33.792  10.086  12.868  0.00  0.00     0.024 A 
HETATM   13 Cl   UNK N   1      34.274   7.852  11.374  0.00  0.00    -0.084 Cl
HETATM   14  C   UNK N   1      34.167  11.135  13.714  0.00  0.00     0.012 A 
ENDBRANCH   1   8
BRANCH   1  15
HETATM   15  O   UNK N   1      35.298  13.619  14.550  0.00  0.00    -0.375 OA
BRANCH  15  16
HETATM   16  C   UNK N   1      36.340  14.174  13.800  0.00  0.00     0.199 C 
BRANCH  16  17
HETATM   17  C   UNK N   1      35.840  14.826  12.514  0.00  0.00     0.298 C 
BRANCH  17  18
HETATM   18  N   UNK N   1      36.149  14.054  11.312  0.00  0.00     0.090 N 
HETATM   19  C   UNK N   1      37.280  13.158  11.576  0.00  0.00     0.272 C 
HETATM   20  C   UNK N   1      37.604  12.345  10.326  0.00  0.00     0.030 C 
HETATM   21  C   UNK N   1      36.394  11.493   9.964  0.00  0.00     0.003 C 
HETATM   22  C   UNK N   1      35.162  12.377   9.801  0.00  0.00     0.030 C 
HETATM   23  C   UNK N   1      34.965  13.231  11.053  0.00  0.00     0.272 C 
ENDBRANCH  17  18
ENDBRANCH  16  17
ENDBRANCH  15  16
ENDBRANCH   1  15
TORSDOF 6
ENDMDL
MODEL 2
REMARK VINA RESULT:      -6.0      9.398     12.757
REMARK  6 active torsions:
REMARK  status: ('A' for Active; 'I' for Inactive)
REMARK    1  A    between atoms: C_16  and  C_15 
REMARK    2  A    between atoms: N_22  and  C_15 
REMARK    3  A    between atoms: O_23  and  C_16 
REMARK    4  A    between atoms: C_20  and  C_17 
REMARK    5  A    between atoms: C_20  and  C_18 
REMARK    6  A    between atoms: O_23  and  C_20 
ROOT
HETATM    1  C   UNK N   1      29.527  17.841   5.490  0.00  0.00     0.187 C 
ENDROOT
BRANCH   1   2
HETATM    2  C   UNK N   1      30.599  17.144   4.664  0.00  0.00    -0.025 A 
HETATM    3  C   UNK N   1      31.775  17.780   4.243  0.00  0.00     0.010 A 
HETATM    4  C   UNK N   1      32.739  17.084   3.506  0.00  0.00     0.001 A 
HETATM    5  C   UNK N   1      32.533  15.742   3.181  0.00  0.00     0.000 A 
HETATM    6  C   UNK N   1      31.367  15.097   3.594  0.00  0.00     0.001 A 
HETATM    7  C   UNK N   1      30.407  15.793   4.336  0.00  0.00     0.010 A 
ENDBRANCH   1   2
BRANCH   1   8
HETATM    8  C   UNK N   1      28.274  18.401   4.824  0.00  0.00    -0.025 A 
HETATM    9  C   UNK N   1      27.267  17.591   4.283  0.00  0.00     0.012 A 
HETATM   10  C   UNK N   1      26.147  18.160   3.665  0.00  0.00     0.024 A 
HETATM   11  C   UNK N   1      26.026  19.548   3.587  0.00  0.00     0.034 A 
HETATM   12  C   UNK N   1      27.020  20.366   4.126  0.00  0.00     0.024 A 
HETATM   13 Cl   UNK N   1      24.630  20.262   2.808  0.00  0.00    -0.084 Cl
HETATM   14  C   UNK N   1      28.140  19.796   4.739  0.00  0.00     0.012 A 
ENDBRANCH   1   8
BRANCH   1  15
HETATM   15  O   UNK N   1      29.181  17.062   6.600  0.00  0.00    -0.375 OA
BRANCH  15  16
HETATM   16  C   UNK N   1      29.806  17.711   7.670  0.00  0.00     0.199 C 
BRANCH  16  17
HETATM   17  C   UNK N   1      30.465  16.728   8.634  0.00  0.00     0.298 C 
BRANCH  17  18
HETATM   18  N   UNK N   1      31.920  16.668   8.499  0.00  0.00     0.090 N 
HETATM   19  C   UNK N   1      32.282  15.700   7.458  0.00  0.00     0.272 C 
HETATM   20  C   UNK N   1      33.800  15.638   7.310  0.00  0.00     0.030 C 
HETATM   21  C   UNK N   1      34.311  17.009   6.886  0.00  0.00     0.003 C 
HETATM   22  C   UNK N   1      33.849  18.070   7.879  0.00  0.00     0.030 C 
HETATM   23  C   UNK N   1      32.332  18.000   8.048  0.00  0.00     0.272 C 
ENDBRANCH  17  18
ENDBRANCH  16  17
ENDBRANCH  15  16
ENDBRANCH   1  15
TORSDOF 6
ENDMDL
MODEL 3
REMARK VINA RESULT:      -5.8     20.503     23.773
REMARK  6 active torsions:
REMARK  status: ('A' for Active; 'I' for Inactive)
REMARK    1  A    between atoms: C_16  and  C_15 
REMARK    2  A    between atoms: N_22  and  C_15 
REMARK    3  A    between atoms: O_23  and  C_16 
REMARK    4  A    between atoms: C_20  and  C_17 
REMARK    5  A    between atoms: C_20  and  C_18 
REMARK    6  A    between atoms: O_23  and  C_20 
ROOT
HETATM    1  C   UNK N   1      29.891  24.682  -3.886  0.00  0.00     0.187 C 
ENDROOT
BRANCH   1   2
HETATM    2  C   UNK N   1      28.492  24.359  -4.394  0.00  0.00    -0.025 A 
HETATM    3  C   UNK N   1      27.343  24.477  -3.599  0.00  0.00     0.010 A 
HETATM    4  C   UNK N   1      26.079  24.191  -4.124  0.00  0.00     0.001 A 
HETATM    5  C   UNK N   1      25.952  23.780  -5.453  0.00  0.00     0.000 A 
HETATM    6  C   UNK N   1      27.088  23.658  -6.255  0.00  0.00     0.001 A 
HETATM    7  C   UNK N   1      28.351  23.951  -5.730  0.00  0.00     0.010 A 
ENDBRANCH   1   2
BRANCH   1   8
HETATM    8  C   UNK N   1      30.957  23.595  -3.801  0.00  0.00    -0.025 A 
HETATM    9  C   UNK N   1      30.956  22.595  -2.820  0.00  0.00     0.012 A 
HETATM   10  C   UNK N   1      31.973  21.634  -2.778  0.00  0.00     0.024 A 
HETATM   11  C   UNK N   1      33.000  21.667  -3.723  0.00  0.00     0.034 A 
HETATM   12  C   UNK N   1      33.011  22.655  -4.708  0.00  0.00     0.024 A 
HETATM   13 Cl   UNK N   1      34.277  20.470  -3.668  0.00  0.00    -0.084 Cl
HETATM   14  C   UNK N   1      31.996  23.617  -4.746  0.00  0.00     0.012 A 
ENDBRANCH   1   8
BRANCH   1  15
HETATM   15  O   UNK N   1      30.399  25.812  -4.538  0.00  0.00    -0.375 OA
BRANCH  15  16
HETATM   16  C   UNK N   1      29.942  26.880  -3.759  0.00  0.00     0.199 C 
BRANCH  16  17
HETATM   17  C   UNK N   1      29.685  28.132  -4.593  0.00  0.00     0.298 C 
BRANCH  17  18
HETATM   18  N   UNK N   1      28.265  28.430  -4.771  0.00  0.00     0.090 N 
HETATM   19  C   UNK N   1      27.685  27.509  -5.755  0.00  0.00     0.272 C 
HETATM   20  C   UNK N   1      26.201  27.813  -5.941  0.00  0.00     0.030 C 
HETATM   21  C   UNK N   1      25.484  27.608  -4.612  0.00  0.00     0.003 C 
HETATM   22  C   UNK N   1      26.138  28.458  -3.528  0.00  0.00     0.030 C 
HETATM   23  C   UNK N   1      27.638  28.169  -3.473  0.00  0.00     0.272 C 
ENDBRANCH  17  18
ENDBRANCH  16  17
ENDBRANCH  15  16
ENDBRANCH   1  15
TORSDOF 6
ENDMDL
MODEL 4
REMARK VINA RESULT:      -5.8      8.127     11.314
REMARK  6 active torsions:
REMARK  status: ('A' for Active; 'I' for Inactive)
REMARK    1  A    between atoms: C_16  and  C_15 
REMARK    2  A    between atoms: N_22  and  C_15 
REMARK    3  A    between atoms: O_23  and  C_16 
REMARK    4  A    between atoms: C_20  and  C_17 
REMARK    5  A    between atoms: C_20  and  C_18 
REMARK    6  A    between atoms: O_23  and  C_20 
ROOT
HETATM    1  C   UNK N   1      31.128  16.659   7.763  0.00  0.00     0.187 C 
ENDROOT
BRANCH   1   2
HETATM    2  C   UNK N   1      31.086  16.496   6.249  0.00  0.00    -0.025 A 
HETATM    3  C   UNK N   1      31.683  17.405   5.365  0.00  0.00     0.010 A 
HETATM    4  C   UNK N   1      31.636  17.193   3.983  0.00  0.00     0.001 A 
HETATM    5  C   UNK N   1      30.987  16.068   3.472  0.00  0.00     0.000 A 
HETATM    6  C   UNK N   1      30.389  15.155   4.342  0.00  0.00     0.001 A 
HETATM    7  C   UNK N   1      30.442  15.365   5.723  0.00  0.00     0.010 A 
ENDBRANCH   1   2
BRANCH   1   8
HETATM    8  C   UNK N   1      32.434  16.475   8.529  0.00  0.00    -0.025 A 
HETATM    9  C   UNK N   1      33.447  17.442   8.561  0.00  0.00     0.012 A 
HETATM   10  C   UNK N   1      34.635  17.210   9.265  0.00  0.00     0.024 A 
HETATM   11  C   UNK N   1      34.815  16.004   9.945  0.00  0.00     0.034 A 
HETATM   12  C   UNK N   1      33.813  15.034   9.925  0.00  0.00     0.024 A 
HETATM   13 Cl   UNK N   1      36.302  15.709  10.820  0.00  0.00    -0.084 Cl
HETATM   14  C   UNK N   1      32.628  15.266   9.218  0.00  0.00     0.012 A 
ENDBRANCH   1   8
BRANCH   1  15
HETATM   15  O   UNK N   1      30.506  17.854   8.143  0.00  0.00    -0.375 OA
BRANCH  15  16
HETATM   16  C   UNK N   1      29.228  17.451   8.544  0.00  0.00     0.199 C 
BRANCH  16  17
HETATM   17  C   UNK N   1      28.165  18.496   8.215  0.00  0.00     0.298 C 
BRANCH  17  18
HETATM   18  N   UNK N   1      28.301  19.060   6.874  0.00  0.00     0.090 N 
HETATM   19  C   UNK N   1      27.860  18.079   5.876  0.00  0.00     0.272 C 
HETATM   20  C   UNK N   1      27.996  18.666   4.474  0.00  0.00     0.030 C 
HETATM   21  C   UNK N   1      27.103  19.896   4.364  0.00  0.00     0.003 C 
HETATM   22  C   UNK N   1      27.447  20.892   5.465  0.00  0.00     0.030 C 
HETATM   23  C   UNK N   1      27.386  20.203   6.828  0.00  0.00     0.272 C 
ENDBRANCH  17  18
ENDBRANCH  16  17
ENDBRANCH  15  16
ENDBRANCH   1  15
TORSDOF 6
ENDMDL
MODEL 5
REMARK VINA RESULT:      -5.7      2.287      3.218
REMARK  6 active torsions:
REMARK  status: ('A' for Active; 'I' for Inactive)
REMARK    1  A    between atoms: C_16  and  C_15 
REMARK    2  A    between atoms: N_22  and  C_15 
REMARK    3  A    between atoms: O_23  and  C_16 
REMARK    4  A    between atoms: C_20  and  C_17 
REMARK    5  A    between atoms: C_20  and  C_18 
REMARK    6  A    between atoms: O_23  and  C_20 
ROOT
HETATM    1  C   UNK N   1      36.152  12.922  14.430  0.00  0.00     0.187 C 
ENDROOT
BRANCH   1   2
HETATM    2  C   UNK N   1      36.305  13.854  15.625  0.00  0.00    -0.025 A 
HETATM    3  C   UNK N   1      37.144  14.977  15.617  0.00  0.00     0.010 A 
HETATM    4  C   UNK N   1      37.227  15.814  16.735  0.00  0.00     0.001 A 
HETATM    5  C   UNK N   1      36.471  15.533  17.874  0.00  0.00     0.000 A 
HETATM    6  C   UNK N   1      35.631  14.419  17.894  0.00  0.00     0.001 A 
HETATM    7  C   UNK N   1      35.545  13.586  16.774  0.00  0.00     0.010 A 
ENDBRANCH   1   2
BRANCH   1   8
HETATM    8  C   UNK N   1      36.203  11.409  14.613  0.00  0.00    -0.025 A 
HETATM    9  C   UNK N   1      35.061  10.598  14.614  0.00  0.00     0.012 A 
HETATM   10  C   UNK N   1      35.166   9.216  14.807  0.00  0.00     0.024 A 
HETATM   11  C   UNK N   1      36.420   8.634  14.999  0.00  0.00     0.034 A 
HETATM   12  C   UNK N   1      37.566   9.429  14.996  0.00  0.00     0.024 A 
HETATM   13 Cl   UNK N   1      36.553   6.906  15.247  0.00  0.00    -0.084 Cl
HETATM   14  C   UNK N   1      37.459  10.811  14.807  0.00  0.00     0.012 A 
ENDBRANCH   1   8
BRANCH   1  15
HETATM   15  O   UNK N   1      35.034  13.283  13.669  0.00  0.00    -0.375 OA
BRANCH  15  16
HETATM   16  C   UNK N   1      35.561  13.516  12.394  0.00  0.00     0.199 C 
BRANCH  16  17
HETATM   17  C   UNK N   1      35.750  15.004  12.113  0.00  0.00     0.298 C 
BRANCH  17  18
HETATM   18  N   UNK N   1      34.765  15.549  11.180  0.00  0.00     0.090 N 
HETATM   19  C   UNK N   1      35.409  16.523  10.291  0.00  0.00     0.272 C 
HETATM   20  C   UNK N   1      34.385  17.090   9.312  0.00  0.00     0.030 C 
HETATM   21  C   UNK N   1      33.834  15.955   8.459  0.00  0.00     0.003 C 
HETATM   22  C   UNK N   1      33.264  14.858   9.353  0.00  0.00     0.030 C 
HETATM   23  C   UNK N   1      34.316  14.415  10.369  0.00  0.00     0.272 C 
ENDBRANCH  17  18
ENDBRANCH  16  17
ENDBRANCH  15  16
ENDBRANCH   1  15
TORSDOF 6
ENDMDL
MODEL 6
REMARK VINA RESULT:      -5.7     24.194     27.820
REMARK  6 active torsions:
REMARK  status: ('A' for Active; 'I' for Inactive)
REMARK    1  A    between atoms: C_16  and  C_15 
REMARK    2  A    between atoms: N_22  and  C_15 
REMARK    3  A    between atoms: O_23  and  C_16 
REMARK    4  A    between atoms: C_20  and  C_17 
REMARK    5  A    between atoms: C_20  and  C_18 
REMARK    6  A    between atoms: O_23  and  C_20 
ROOT
HETATM    1  C   UNK N   1      26.401  25.752  -8.670  0.00  0.00     0.187 C 
ENDROOT
BRANCH   1   2
HETATM    2  C   UNK N   1      25.981  26.269 -10.040  0.00  0.00    -0.025 A 
HETATM    3  C   UNK N   1      24.652  26.265 -10.485  0.00  0.00     0.010 A 
HETATM    4  C   UNK N   1      24.319  26.776 -11.744  0.00  0.00     0.001 A 
HETATM    5  C   UNK N   1      25.317  27.293 -12.572  0.00  0.00     0.000 A 
HETATM    6  C   UNK N   1      26.644  27.303 -12.141  0.00  0.00     0.001 A 
HETATM    7  C   UNK N   1      26.974  26.797 -10.880  0.00  0.00     0.010 A 
ENDBRANCH   1   2
BRANCH   1   8
HETATM    8  C   UNK N   1      26.383  26.671  -7.453  0.00  0.00    -0.025 A 
HETATM    9  C   UNK N   1      27.415  27.571  -7.157  0.00  0.00     0.012 A 
HETATM   10  C   UNK N   1      27.355  28.377  -6.014  0.00  0.00     0.024 A 
HETATM   11  C   UNK N   1      26.255  28.289  -5.158  0.00  0.00     0.034 A 
HETATM   12  C   UNK N   1      25.218  27.400  -5.444  0.00  0.00     0.024 A 
HETATM   13 Cl   UNK N   1      26.181  29.291  -3.725  0.00  0.00    -0.084 Cl
HETATM   14  C   UNK N   1      25.282  26.593  -6.584  0.00  0.00     0.012 A 
ENDBRANCH   1   8
BRANCH   1  15
HETATM   15  O   UNK N   1      25.746  24.549  -8.380  0.00  0.00    -0.375 OA
BRANCH  15  16
HETATM   16  C   UNK N   1      26.791  23.649  -8.147  0.00  0.00     0.199 C 
BRANCH  16  17
HETATM   17  C   UNK N   1      26.527  22.762  -6.933  0.00  0.00     0.298 C 
BRANCH  17  18
HETATM   18  N   UNK N   1      27.264  23.177  -5.740  0.00  0.00     0.090 N 
HETATM   19  C   UNK N   1      28.353  24.083  -6.120  0.00  0.00     0.272 C 
HETATM   20  C   UNK N   1      29.121  24.523  -4.877  0.00  0.00     0.030 C 
HETATM   21  C   UNK N   1      28.174  25.275  -3.950  0.00  0.00     0.003 C 
HETATM   22  C   UNK N   1      26.961  24.409  -3.628  0.00  0.00     0.030 C 
HETATM   23  C   UNK N   1      26.307  23.927  -4.923  0.00  0.00     0.272 C 
ENDBRANCH  17  18
ENDBRANCH  16  17
ENDBRANCH  15  16
ENDBRANCH   1  15
TORSDOF 6
ENDMDL
MODEL 7
REMARK VINA RESULT:      -5.6      9.730     12.389
REMARK  6 active torsions:
REMARK  status: ('A' for Active; 'I' for Inactive)
REMARK    1  A    between atoms: C_16  and  C_15 
REMARK    2  A    between atoms: N_22  and  C_15 
REMARK    3  A    between atoms: O_23  and  C_16 
REMARK    4  A    between atoms: C_20  and  C_17 
REMARK    5  A    between atoms: C_20  and  C_18 
REMARK    6  A    between atoms: O_23  and  C_20 
ROOT
HETATM    1  C   UNK N   1      28.939  17.654   5.435  0.00  0.00     0.187 C 
ENDROOT
BRANCH   1   2
HETATM    2  C   UNK N   1      29.073  17.732   6.950  0.00  0.00    -0.025 A 
HETATM    3  C   UNK N   1      27.977  17.654   7.820  0.00  0.00     0.010 A 
HETATM    4  C   UNK N   1      28.159  17.706   9.206  0.00  0.00     0.001 A 
HETATM    5  C   UNK N   1      29.444  17.840   9.735  0.00  0.00     0.000 A 
HETATM    6  C   UNK N   1      30.544  17.918   8.880  0.00  0.00     0.001 A 
HETATM    7  C   UNK N   1      30.360  17.860   7.495  0.00  0.00     0.010 A 
ENDBRANCH   1   2
BRANCH   1   8
HETATM    8  C   UNK N   1      27.846  18.431   4.710  0.00  0.00    -0.025 A 
HETATM    9  C   UNK N   1      27.869  19.824   4.556  0.00  0.00     0.012 A 
HETATM   10  C   UNK N   1      26.827  20.488   3.898  0.00  0.00     0.024 A 
HETATM   11  C   UNK N   1      25.752  19.759   3.386  0.00  0.00     0.034 A 
HETATM   12  C   UNK N   1      25.718  18.371   3.529  0.00  0.00     0.024 A 
HETATM   13 Cl   UNK N   1      24.444  20.587   2.570  0.00  0.00    -0.084 Cl
HETATM   14  C   UNK N   1      26.759  17.710   4.190  0.00  0.00     0.012 A 
ENDBRANCH   1   8
BRANCH   1  15
HETATM   15  O   UNK N   1      30.179  17.873   4.823  0.00  0.00    -0.375 OA
BRANCH  15  16
HETATM   16  C   UNK N   1      30.450  16.661   4.178  0.00  0.00     0.199 C 
BRANCH  16  17
HETATM   17  C   UNK N   1      31.909  16.556   3.741  0.00  0.00     0.298 C 
BRANCH  17  18
HETATM   18  N   UNK N   1      32.785  15.999   4.771  0.00  0.00     0.090 N 
HETATM   19  C   UNK N   1      33.350  17.084   5.581  0.00  0.00     0.272 C 
HETATM   20  C   UNK N   1      34.261  16.507   6.661  0.00  0.00     0.030 C 
HETATM   21  C   UNK N   1      33.438  15.607   7.573  0.00  0.00     0.003 C 
HETATM   22  C   UNK N   1      32.730  14.535   6.751  0.00  0.00     0.030 C 
HETATM   23  C   UNK N   1      31.921  15.187   5.631  0.00  0.00     0.272 C 
ENDBRANCH  17  18
ENDBRANCH  16  17
ENDBRANCH  15  16
ENDBRANCH   1  15
TORSDOF 6
ENDMDL
MODEL 8
REMARK VINA RESULT:      -5.6     10.138     13.138
REMARK  6 active torsions:
REMARK  status: ('A' for Active; 'I' for Inactive)
REMARK    1  A    between atoms: C_16  and  C_15 
REMARK    2  A    between atoms: N_22  and  C_15 
REMARK    3  A    between atoms: O_23  and  C_16 
REMARK    4  A    between atoms: C_20  and  C_17 
REMARK    5  A    between atoms: C_20  and  C_18 
REMARK    6  A    between atoms: O_23  and  C_20 
ROOT
HETATM    1  C   UNK N   1      28.738  17.342   6.216  0.00  0.00     0.187 C 
ENDROOT
BRANCH   1   2
HETATM    2  C   UNK N   1      28.037  18.566   5.642  0.00  0.00    -0.025 A 
HETATM    3  C   UNK N   1      27.725  18.702   4.282  0.00  0.00     0.010 A 
HETATM    4  C   UNK N   1      27.057  19.837   3.812  0.00  0.00     0.001 A 
HETATM    5  C   UNK N   1      26.697  20.852   4.701  0.00  0.00     0.000 A 
HETATM    6  C   UNK N   1      27.002  20.730   6.058  0.00  0.00     0.001 A 
HETATM    7  C   UNK N   1      27.664  19.591   6.527  0.00  0.00     0.010 A 
ENDBRANCH   1   2
BRANCH   1   8
HETATM    8  C   UNK N   1      30.194  17.419   6.664  0.00  0.00    -0.025 A 
HETATM    9  C   UNK N   1      31.274  17.186   5.803  0.00  0.00     0.012 A 
HETATM   10  C   UNK N   1      32.591  17.250   6.275  0.00  0.00     0.024 A 
HETATM   11  C   UNK N   1      32.835  17.551   7.616  0.00  0.00     0.034 A 
HETATM   12  C   UNK N   1      31.768  17.790   8.483  0.00  0.00     0.024 A 
HETATM   13 Cl   UNK N   1      34.480  17.625   8.209  0.00  0.00    -0.084 Cl
HETATM   14  C   UNK N   1      30.453  17.722   8.011  0.00  0.00     0.012 A 
ENDBRANCH   1   8
BRANCH   1  15
HETATM   15  O   UNK N   1      27.953  16.752   7.213  0.00  0.00    -0.375 OA
BRANCH  15  16
HETATM   16  C   UNK N   1      27.029  15.983   6.497  0.00  0.00     0.199 C 
BRANCH  16  17
HETATM   17  C   UNK N   1      27.708  14.907   5.654  0.00  0.00     0.298 C 
BRANCH  17  18
HETATM   18  N   UNK N   1      27.038  14.660   4.378  0.00  0.00     0.090 N 
HETATM   19  C   UNK N   1      25.845  15.508   4.272  0.00  0.00     0.272 C 
HETATM   20  C   UNK N   1      25.145  15.258   2.939  0.00  0.00     0.030 C 
HETATM   21  C   UNK N   1      26.095  15.624   1.806  0.00  0.00     0.003 C 
HETATM   22  C   UNK N   1      27.402  14.853   1.949  0.00  0.00     0.030 C 
HETATM   23  C   UNK N   1      27.988  15.075   3.343  0.00  0.00     0.272 C 
ENDBRANCH  17  18
ENDBRANCH  16  17
ENDBRANCH  15  16
ENDBRANCH   1  15
TORSDOF 6
ENDMDL
MODEL 9
REMARK VINA RESULT:      -5.5      1.864      2.674
REMARK  6 active torsions:
REMARK  status: ('A' for Active; 'I' for Inactive)
REMARK    1  A    between atoms: C_16  and  C_15 
REMARK    2  A    between atoms: N_22  and  C_15 
REMARK    3  A    between atoms: O_23  and  C_16 
REMARK    4  A    between atoms: C_20  and  C_17 
REMARK    5  A    between atoms: C_20  and  C_18 
REMARK    6  A    between atoms: O_23  and  C_20 
ROOT
HETATM    1  C   UNK N   1      36.148  12.975  14.400  0.00  0.00     0.187 C 
ENDROOT
BRANCH   1   2
HETATM    2  C   UNK N   1      36.278  13.850  15.640  0.00  0.00    -0.025 A 
HETATM    3  C   UNK N   1      37.146  14.947  15.715  0.00  0.00     0.010 A 
HETATM    4  C   UNK N   1      37.207  15.733  16.870  0.00  0.00     0.001 A 
HETATM    5  C   UNK N   1      36.398  15.425  17.966  0.00  0.00     0.000 A 
HETATM    6  C   UNK N   1      35.529  14.335  17.904  0.00  0.00     0.001 A 
HETATM    7  C   UNK N   1      35.465  13.554  16.746  0.00  0.00     0.010 A 
ENDBRANCH   1   2
BRANCH   1   8
HETATM    8  C   UNK N   1      36.315  11.462  14.496  0.00  0.00    -0.025 A 
HETATM    9  C   UNK N   1      35.237  10.580  14.643  0.00  0.00     0.012 A 
HETATM   10  C   UNK N   1      35.451   9.200  14.746  0.00  0.00     0.024 A 
HETATM   11  C   UNK N   1      36.750   8.693  14.700  0.00  0.00     0.034 A 
HETATM   12  C   UNK N   1      37.833   9.560  14.549  0.00  0.00     0.024 A 
HETATM   13 Cl   UNK N   1      37.021   6.969  14.836  0.00  0.00    -0.084 Cl
HETATM   14  C   UNK N   1      37.617  10.939  14.451  0.00  0.00     0.012 A 
ENDBRANCH   1   8
BRANCH   1  15
HETATM   15  O   UNK N   1      34.980  13.292  13.698  0.00  0.00    -0.375 OA
BRANCH  15  16
HETATM   16  C   UNK N   1      35.449  13.899  12.528  0.00  0.00     0.199 C 
BRANCH  16  17
HETATM   17  C   UNK N   1      34.905  13.224  11.272  0.00  0.00     0.298 C 
BRANCH  17  18
HETATM   18  N   UNK N   1      35.883  12.372  10.599  0.00  0.00     0.090 N 
HETATM   19  C   UNK N   1      37.238  12.738  11.029  0.00  0.00     0.272 C 
HETATM   20  C   UNK N   1      38.263  11.847  10.333  0.00  0.00     0.030 C 
HETATM   21  C   UNK N   1      38.010  10.398  10.730  0.00  0.00     0.003 C 
HETATM   22  C   UNK N   1      36.569  10.013  10.412  0.00  0.00     0.030 C 
HETATM   23  C   UNK N   1      35.608  11.009  11.061  0.00  0.00     0.272 C 
ENDBRANCH  17  18
ENDBRANCH  16  17
ENDBRANCH  15  16
ENDBRANCH   1  15
TORSDOF 6
ENDMDL
