MODEL 1
REMARK VINA RESULT:      -7.6      0.000      0.000
REMARK  4 active torsions:
REMARK  status: ('A' for Active; 'I' for Inactive)
REMARK    1  A    between atoms: C_1  and  O_2 
REMARK    2  A    between atoms: C_3  and  C_1 
REMARK    3  A    between atoms: C_20  and  C_3 
REMARK    4  A    between atoms: C_15  and  O_22 
ROOT
HETATM    1  C   UNK N   1      32.849  21.129  -3.102  0.00  0.00     0.052 C 
HETATM    2  C   UNK N   1      33.052  20.183  -4.208  0.00  0.00     0.172 C 
HETATM    3  C   UNK N   1      32.069  20.152  -5.305  0.00  0.00     0.061 C 
HETATM    4  C   UNK N   1      31.952  22.115  -3.238  0.00  0.00    -0.006 C 
HETATM    5  C   UNK N   1      31.291  22.409  -4.575  0.00  0.00     0.039 C 
HETATM    6  C   UNK N   1      31.147  21.128  -5.417  0.00  0.00    -0.027 C 
HETATM    7  C   UNK N   1      30.168  21.050  -6.577  0.00  0.00     0.201 C 
HETATM    8  C   UNK N   1      28.954  21.982  -6.451  0.00  0.00     0.050 C 
HETATM    9  C   UNK N   1      29.904  23.107  -4.411  0.00  0.00     0.147 C 
HETATM   10  C   UNK N   1      29.313  23.331  -5.844  0.00  0.00     0.037 C 
HETATM   11  C   UNK N   1      29.928  25.687  -4.516  0.00  0.00     0.045 C 
HETATM   12  C   UNK N   1      29.910  24.451  -3.632  0.00  0.00     0.160 C 
HETATM   13  C   UNK N   1      28.599  25.738  -5.298  0.00  0.00    -0.027 C 
HETATM   14  C   UNK N   1      28.154  24.348  -5.862  0.00  0.00     0.002 C 
HETATM   15  C   UNK N   1      26.930  23.937  -5.037  0.00  0.00     0.011 C 
HETATM   16  C   UNK N   1      26.255  25.249  -4.665  0.00  0.00    -0.006 C 
HETATM   17  C   UNK N   1      27.471  26.091  -4.323  0.00  0.00     0.070 C 
HETATM   18  C   UNK N   1      28.743  26.754  -6.426  0.00  0.00     0.016 C 
HETATM   19  C   UNK N   1      32.266  23.333  -5.310  0.00  0.00     0.028 C 
HETATM   20  C   UNK N   1      25.487  25.808  -5.859  0.00  0.00     0.011 C 
HETATM   21  F   UNK N   1      29.074  22.259  -3.691  0.00  0.00    -0.238 F 
HETATM   22  F   UNK N   1      29.678  19.759  -6.689  0.00  0.00    -0.245 F 
HETATM   23  O   UNK N   1      33.955  19.361  -4.163  0.00  0.00    -0.289 OA
ENDROOT
BRANCH  17  24
HETATM   24  C   UNK N   1      27.279  27.523  -3.900  0.00  0.00     0.155 C 
HETATM   25  O   UNK N   1      28.196  28.149  -3.395  0.00  0.00    -0.295 OA
BRANCH  24  26
HETATM   26  C   UNK N   1      25.956  28.183  -4.098  0.00  0.00     0.242 C 
BRANCH  26  27
HETATM   27  O   UNK N   1      25.188  28.063  -2.938  0.00  0.00    -0.394 OA
HETATM   28  H   UNK N   1      24.221  27.986  -2.899  0.00  0.00     0.209 HD
ENDBRANCH  26  27
ENDBRANCH  24  26
ENDBRANCH  17  24
BRANCH  12  29
HETATM   29  O   UNK N   1      30.803  24.522  -2.563  0.00  0.00    -0.392 OA
HETATM   30  H   UNK N   1      31.524  25.169  -2.518  0.00  0.00     0.210 HD
ENDBRANCH  12  29
TORSDOF 4
ENDMDL
MODEL 2
REMARK VINA RESULT:      -7.6     11.483     12.931
REMARK  4 active torsions:
REMARK  status: ('A' for Active; 'I' for Inactive)
REMARK    1  A    between atoms: C_1  and  O_2 
REMARK    2  A    between atoms: C_3  and  C_1 
REMARK    3  A    between atoms: C_20  and  C_3 
REMARK    4  A    between atoms: C_15  and  O_22 
ROOT
HETATM    1  C   UNK N   1      33.199  17.650   4.948  0.00  0.00     0.052 C 
HETATM    2  C   UNK N   1      33.523  17.621   6.381  0.00  0.00     0.172 C 
HETATM    3  C   UNK N   1      32.423  17.550   7.358  0.00  0.00     0.061 C 
HETATM    4  C   UNK N   1      31.957  17.340   4.550  0.00  0.00    -0.006 C 
HETATM    5  C   UNK N   1      30.935  16.759   5.515  0.00  0.00     0.039 C 
HETATM    6  C   UNK N   1      31.170  17.272   6.948  0.00  0.00    -0.027 C 
HETATM    7  C   UNK N   1      30.078  17.198   8.002  0.00  0.00     0.201 C 
HETATM    8  C   UNK N   1      28.648  17.221   7.442  0.00  0.00     0.050 C 
HETATM    9  C   UNK N   1      29.468  17.048   5.070  0.00  0.00     0.147 C 
HETATM   10  C   UNK N   1      28.514  16.430   6.148  0.00  0.00     0.037 C 
HETATM   11  C   UNK N   1      28.335  15.197   3.670  0.00  0.00     0.045 C 
HETATM   12  C   UNK N   1      29.071  16.527   3.661  0.00  0.00     0.160 C 
HETATM   13  C   UNK N   1      26.973  15.406   4.366  0.00  0.00    -0.027 C 
HETATM   14  C   UNK N   1      27.060  16.290   5.653  0.00  0.00     0.002 C 
HETATM   15  C   UNK N   1      26.376  17.614   5.297  0.00  0.00     0.011 C 
HETATM   16  C   UNK N   1      25.306  17.237   4.283  0.00  0.00    -0.006 C 
HETATM   17  C   UNK N   1      26.074  16.233   3.441  0.00  0.00     0.070 C 
HETATM   18  C   UNK N   1      26.384  14.038   4.692  0.00  0.00     0.016 C 
HETATM   19  C   UNK N   1      31.201  15.251   5.520  0.00  0.00     0.028 C 
HETATM   20  C   UNK N   1      24.111  16.600   4.985  0.00  0.00     0.011 C 
HETATM   21  F   UNK N   1      29.291  18.424   5.024  0.00  0.00    -0.238 F 
HETATM   22  F   UNK N   1      30.190  18.274   8.868  0.00  0.00    -0.245 F 
HETATM   23  O   UNK N   1      34.677  17.767   6.758  0.00  0.00    -0.289 OA
ENDROOT
BRANCH  17  24
HETATM   24  C   UNK N   1      25.383  15.562   2.284  0.00  0.00     0.155 C 
HETATM   25  O   UNK N   1      25.918  15.505   1.189  0.00  0.00    -0.295 OA
BRANCH  24  26
HETATM   26  C   UNK N   1      24.032  14.960   2.477  0.00  0.00     0.242 C 
BRANCH  26  27
HETATM   27  O   UNK N   1      23.496  14.591   1.242  0.00  0.00    -0.394 OA
HETATM   28  H   UNK N   1      22.659  14.907   0.867  0.00  0.00     0.209 HD
ENDBRANCH  26  27
ENDBRANCH  24  26
ENDBRANCH  17  24
BRANCH  12  29
HETATM   29  O   UNK N   1      30.070  16.600   2.690  0.00  0.00    -0.392 OA
HETATM   30  H   UNK N   1      30.036  16.101   1.859  0.00  0.00     0.210 HD
ENDBRANCH  12  29
TORSDOF 4
ENDMDL
MODEL 3
REMARK VINA RESULT:      -7.5     11.280     13.348
REMARK  4 active torsions:
REMARK  status: ('A' for Active; 'I' for Inactive)
REMARK    1  A    between atoms: C_1  and  O_2 
REMARK    2  A    between atoms: C_3  and  C_1 
REMARK    3  A    between atoms: C_20  and  C_3 
REMARK    4  A    between atoms: C_15  and  O_22 
ROOT
HETATM    1  C   UNK N   1      24.827  18.357   4.827  0.00  0.00     0.052 C 
HETATM    2  C   UNK N   1      24.162  17.326   4.017  0.00  0.00     0.172 C 
HETATM    3  C   UNK N   1      24.992  16.356   3.282  0.00  0.00     0.061 C 
HETATM    4  C   UNK N   1      26.133  18.234   5.102  0.00  0.00    -0.006 C 
HETATM    5  C   UNK N   1      26.897  16.960   4.779  0.00  0.00     0.039 C 
HETATM    6  C   UNK N   1      26.311  16.261   3.538  0.00  0.00    -0.027 C 
HETATM    7  C   UNK N   1      27.114  15.232   2.758  0.00  0.00     0.201 C 
HETATM    8  C   UNK N   1      28.637  15.410   2.846  0.00  0.00     0.050 C 
HETATM    9  C   UNK N   1      28.424  17.216   4.585  0.00  0.00     0.147 C 
HETATM   10  C   UNK N   1      29.095  15.846   4.231  0.00  0.00     0.037 C 
HETATM   11  C   UNK N   1      29.894  16.874   6.680  0.00  0.00     0.045 C 
HETATM   12  C   UNK N   1      29.161  17.864   5.789  0.00  0.00     0.160 C 
HETATM   13  C   UNK N   1      31.041  16.247   5.860  0.00  0.00    -0.027 C 
HETATM   14  C   UNK N   1      30.628  15.868   4.399  0.00  0.00     0.002 C 
HETATM   15  C   UNK N   1      31.357  16.861   3.489  0.00  0.00     0.011 C 
HETATM   16  C   UNK N   1      32.648  17.186   4.226  0.00  0.00    -0.006 C 
HETATM   17  C   UNK N   1      32.125  17.308   5.646  0.00  0.00     0.070 C 
HETATM   18  C   UNK N   1      31.554  15.022   6.609  0.00  0.00     0.016 C 
HETATM   19  C   UNK N   1      26.663  16.037   5.977  0.00  0.00     0.028 C 
HETATM   20  C   UNK N   1      33.646  16.041   4.078  0.00  0.00     0.011 C 
HETATM   21  F   UNK N   1      28.585  18.101   3.527  0.00  0.00    -0.238 F 
HETATM   22  F   UNK N   1      26.776  15.295   1.416  0.00  0.00    -0.245 F 
HETATM   23  O   UNK N   1      22.950  17.343   3.866  0.00  0.00    -0.289 OA
ENDROOT
BRANCH  17  24
HETATM   24  C   UNK N   1      33.089  17.618   6.760  0.00  0.00     0.155 C 
HETATM   25  O   UNK N   1      34.293  17.553   6.576  0.00  0.00    -0.295 OA
BRANCH  24  26
HETATM   26  C   UNK N   1      32.568  18.007   8.103  0.00  0.00     0.242 C 
BRANCH  26  27
HETATM   27  O   UNK N   1      33.045  17.121   9.071  0.00  0.00    -0.394 OA
HETATM   28  H   UNK N   1      33.023  16.153   9.018  0.00  0.00     0.209 HD
ENDBRANCH  26  27
ENDBRANCH  24  26
ENDBRANCH  17  24
BRANCH  12  29
HETATM   29  O   UNK N   1      28.429  18.813   6.502  0.00  0.00    -0.392 OA
HETATM   30  H   UNK N   1      28.825  19.618   6.873  0.00  0.00     0.210 HD
ENDBRANCH  12  29
TORSDOF 4
ENDMDL
MODEL 4
REMARK VINA RESULT:      -7.3     14.460     18.445
REMARK  4 active torsions:
REMARK  status: ('A' for Active; 'I' for Inactive)
REMARK    1  A    between atoms: C_1  and  O_2 
REMARK    2  A    between atoms: C_3  and  C_1 
REMARK    3  A    between atoms: C_20  and  C_3 
REMARK    4  A    between atoms: C_15  and  O_22 
ROOT
HETATM    1  C   UNK N   1      31.502  15.479   5.634  0.00  0.00     0.052 C 
HETATM    2  C   UNK N   1      31.959  16.815   5.226  0.00  0.00     0.172 C 
HETATM    3  C   UNK N   1      32.901  17.540   6.096  0.00  0.00     0.061 C 
HETATM    4  C   UNK N   1      32.144  14.839   6.621  0.00  0.00    -0.006 C 
HETATM    5  C   UNK N   1      33.454  15.363   7.188  0.00  0.00     0.039 C 
HETATM    6  C   UNK N   1      33.518  16.900   7.109  0.00  0.00    -0.027 C 
HETATM    7  C   UNK N   1      34.490  17.695   7.964  0.00  0.00     0.201 C 
HETATM    8  C   UNK N   1      34.885  17.014   9.283  0.00  0.00     0.050 C 
HETATM    9  C   UNK N   1      33.700  14.886   8.654  0.00  0.00     0.147 C 
HETATM   10  C   UNK N   1      35.054  15.508   9.135  0.00  0.00     0.037 C 
HETATM   11  C   UNK N   1      35.118  12.745   8.913  0.00  0.00     0.045 C 
HETATM   12  C   UNK N   1      33.724  13.348   8.871  0.00  0.00     0.160 C 
HETATM   13  C   UNK N   1      35.840  13.289  10.164  0.00  0.00    -0.027 C 
HETATM   14  C   UNK N   1      35.615  14.820  10.396  0.00  0.00     0.002 C 
HETATM   15  C   UNK N   1      34.720  14.926  11.634  0.00  0.00     0.011 C 
HETATM   16  C   UNK N   1      35.090  13.719  12.485  0.00  0.00    -0.006 C 
HETATM   17  C   UNK N   1      35.208  12.657  11.408  0.00  0.00     0.070 C 
HETATM   18  C   UNK N   1      37.327  12.978  10.035  0.00  0.00     0.016 C 
HETATM   19  C   UNK N   1      34.541  14.812   6.262  0.00  0.00     0.028 C 
HETATM   20  C   UNK N   1      36.417  13.961  13.200  0.00  0.00     0.011 C 
HETATM   21  F   UNK N   1      32.661  15.360   9.445  0.00  0.00    -0.238 F 
HETATM   22  F   UNK N   1      33.931  18.919   8.293  0.00  0.00    -0.245 F 
HETATM   23  O   UNK N   1      31.479  17.360   4.244  0.00  0.00    -0.289 OA
ENDROOT
BRANCH  17  24
HETATM   24  C   UNK N   1      35.587  11.252  11.798  0.00  0.00     0.155 C 
HETATM   25  O   UNK N   1      36.674  11.020  12.301  0.00  0.00    -0.295 OA
BRANCH  24  26
HETATM   26  C   UNK N   1      34.626  10.135  11.569  0.00  0.00     0.242 C 
BRANCH  26  27
HETATM   27  O   UNK N   1      33.376  10.649  11.217  0.00  0.00    -0.394 OA
HETATM   28  H   UNK N   1      33.057  11.547  11.399  0.00  0.00     0.209 HD
ENDBRANCH  26  27
ENDBRANCH  24  26
ENDBRANCH  17  24
BRANCH  12  29
HETATM   29  O   UNK N   1      32.828  12.617   8.092  0.00  0.00    -0.392 OA
HETATM   30  H   UNK N   1      32.699  11.660   8.191  0.00  0.00     0.210 HD
ENDBRANCH  12  29
TORSDOF 4
ENDMDL
MODEL 5
REMARK VINA RESULT:      -7.3     11.811     14.304
REMARK  4 active torsions:
REMARK  status: ('A' for Active; 'I' for Inactive)
REMARK    1  A    between atoms: C_1  and  O_2 
REMARK    2  A    between atoms: C_3  and  C_1 
REMARK    3  A    between atoms: C_20  and  C_3 
REMARK    4  A    between atoms: C_15  and  O_22 
ROOT
HETATM    1  C   UNK N   1      29.943  11.851   2.740  0.00  0.00     0.052 C 
HETATM    2  C   UNK N   1      29.295  12.547   1.619  0.00  0.00     0.172 C 
HETATM    3  C   UNK N   1      28.957  13.973   1.768  0.00  0.00     0.061 C 
HETATM    4  C   UNK N   1      30.456  12.568   3.749  0.00  0.00    -0.006 C 
HETATM    5  C   UNK N   1      30.573  14.082   3.669  0.00  0.00     0.039 C 
HETATM    6  C   UNK N   1      29.448  14.681   2.804  0.00  0.00    -0.027 C 
HETATM    7  C   UNK N   1      29.077  16.152   2.899  0.00  0.00     0.201 C 
HETATM    8  C   UNK N   1      29.378  16.800   4.258  0.00  0.00     0.050 C 
HETATM    9  C   UNK N   1      30.587  14.752   5.079  0.00  0.00     0.147 C 
HETATM   10  C   UNK N   1      30.681  16.300   4.868  0.00  0.00     0.037 C 
HETATM   11  C   UNK N   1      32.922  15.207   6.081  0.00  0.00     0.045 C 
HETATM   12  C   UNK N   1      31.715  14.285   6.040  0.00  0.00     0.160 C 
HETATM   13  C   UNK N   1      32.477  16.555   6.687  0.00  0.00    -0.027 C 
HETATM   14  C   UNK N   1      31.097  17.056   6.147  0.00  0.00     0.002 C 
HETATM   15  C   UNK N   1      30.117  16.919   7.317  0.00  0.00     0.011 C 
HETATM   16  C   UNK N   1      30.966  17.140   8.561  0.00  0.00    -0.006 C 
HETATM   17  C   UNK N   1      32.209  16.355   8.182  0.00  0.00     0.070 C 
HETATM   18  C   UNK N   1      33.566  17.587   6.416  0.00  0.00     0.016 C 
HETATM   19  C   UNK N   1      31.896  14.345   2.945  0.00  0.00     0.028 C 
HETATM   20  C   UNK N   1      31.261  18.626   8.745  0.00  0.00     0.011 C 
HETATM   21  F   UNK N   1      29.395  14.439   5.719  0.00  0.00    -0.238 F 
HETATM   22  F   UNK N   1      27.720  16.307   2.668  0.00  0.00    -0.245 F 
HETATM   23  O   UNK N   1      28.941  11.928   0.627  0.00  0.00    -0.289 OA
ENDROOT
BRANCH  17  24
HETATM   24  C   UNK N   1      33.368  16.304   9.142  0.00  0.00     0.155 C 
HETATM   25  O   UNK N   1      34.018  17.307   9.385  0.00  0.00    -0.295 OA
BRANCH  24  26
HETATM   26  C   UNK N   1      33.726  15.015   9.803  0.00  0.00     0.242 C 
BRANCH  26  27
HETATM   27  O   UNK N   1      33.241  15.003  11.113  0.00  0.00    -0.394 OA
HETATM   28  H   UNK N   1      32.387  15.357  11.408  0.00  0.00     0.209 HD
ENDBRANCH  26  27
ENDBRANCH  24  26
ENDBRANCH  17  24
BRANCH  12  29
HETATM   29  O   UNK N   1      32.052  12.934   5.960  0.00  0.00    -0.392 OA
HETATM   30  H   UNK N   1      32.841  12.613   5.496  0.00  0.00     0.210 HD
ENDBRANCH  12  29
TORSDOF 4
ENDMDL
MODEL 6
REMARK VINA RESULT:      -7.3     11.837     13.689
REMARK  4 active torsions:
REMARK  status: ('A' for Active; 'I' for Inactive)
REMARK    1  A    between atoms: C_1  and  O_2 
REMARK    2  A    between atoms: C_3  and  C_1 
REMARK    3  A    between atoms: C_20  and  C_3 
REMARK    4  A    between atoms: C_15  and  O_22 
ROOT
HETATM    1  C   UNK N   1      34.067  17.425   6.638  0.00  0.00     0.052 C 
HETATM    2  C   UNK N   1      33.835  17.895   8.011  0.00  0.00     0.172 C 
HETATM    3  C   UNK N   1      32.449  18.088   8.471  0.00  0.00     0.061 C 
HETATM    4  C   UNK N   1      33.042  16.925   5.934  0.00  0.00    -0.006 C 
HETATM    5  C   UNK N   1      31.697  16.639   6.582  0.00  0.00     0.039 C 
HETATM    6  C   UNK N   1      31.420  17.614   7.741  0.00  0.00    -0.027 C 
HETATM    7  C   UNK N   1      30.013  17.831   8.273  0.00  0.00     0.201 C 
HETATM    8  C   UNK N   1      28.898  17.579   7.247  0.00  0.00     0.050 C 
HETATM    9  C   UNK N   1      30.523  16.674   5.554  0.00  0.00     0.147 C 
HETATM   10  C   UNK N   1      29.197  16.395   6.337  0.00  0.00     0.037 C 
HETATM   11  C   UNK N   1      29.859  14.398   4.531  0.00  0.00     0.045 C 
HETATM   12  C   UNK N   1      30.640  15.690   4.357  0.00  0.00     0.160 C 
HETATM   13  C   UNK N   1      28.355  14.745   4.557  0.00  0.00    -0.027 C 
HETATM   14  C   UNK N   1      28.023  16.012   5.413  0.00  0.00     0.002 C 
HETATM   15  C   UNK N   1      27.617  17.097   4.411  0.00  0.00     0.011 C 
HETATM   16  C   UNK N   1      26.975  16.339   3.258  0.00  0.00    -0.006 C 
HETATM   17  C   UNK N   1      27.925  15.160   3.147  0.00  0.00     0.070 C 
HETATM   18  C   UNK N   1      27.590  13.531   5.074  0.00  0.00     0.016 C 
HETATM   19  C   UNK N   1      31.832  15.238   7.184  0.00  0.00     0.028 C 
HETATM   20  C   UNK N   1      25.561  15.903   3.633  0.00  0.00     0.011 C 
HETATM   21  F   UNK N   1      30.476  17.943   4.992  0.00  0.00    -0.238 F 
HETATM   22  F   UNK N   1      29.874  19.138   8.709  0.00  0.00    -0.245 F 
HETATM   23  O   UNK N   1      34.774  18.227   8.719  0.00  0.00    -0.289 OA
ENDROOT
BRANCH  17  24
HETATM   24  C   UNK N   1      27.665  14.101   2.110  0.00  0.00     0.155 C 
HETATM   25  O   UNK N   1      26.539  13.663   1.938  0.00  0.00    -0.295 OA
BRANCH  24  26
HETATM   26  C   UNK N   1      28.792  13.580   1.284  0.00  0.00     0.242 C 
BRANCH  26  27
HETATM   27  O   UNK N   1      28.912  12.200   1.460  0.00  0.00    -0.394 OA
HETATM   28  H   UNK N   1      29.141  11.555   0.773  0.00  0.00     0.209 HD
ENDBRANCH  26  27
ENDBRANCH  24  26
ENDBRANCH  17  24
BRANCH  12  29
HETATM   29  O   UNK N   1      31.930  15.495   3.863  0.00  0.00    -0.392 OA
HETATM   30  H   UNK N   1      32.693  16.018   4.156  0.00  0.00     0.210 HD
ENDBRANCH  12  29
TORSDOF 4
ENDMDL
MODEL 7
REMARK VINA RESULT:      -7.3      3.929      7.010
REMARK  4 active torsions:
REMARK  status: ('A' for Active; 'I' for Inactive)
REMARK    1  A    between atoms: C_1  and  O_2 
REMARK    2  A    between atoms: C_3  and  C_1 
REMARK    3  A    between atoms: C_20  and  C_3 
REMARK    4  A    between atoms: C_15  and  O_22 
ROOT
HETATM    1  C   UNK N   1      26.319  29.498  -3.246  0.00  0.00     0.052 C 
HETATM    2  C   UNK N   1      27.647  30.012  -2.883  0.00  0.00     0.172 C 
HETATM    3  C   UNK N   1      28.833  29.194  -3.188  0.00  0.00     0.061 C 
HETATM    4  C   UNK N   1      26.226  28.449  -4.075  0.00  0.00    -0.006 C 
HETATM    5  C   UNK N   1      27.440  27.909  -4.813  0.00  0.00     0.039 C 
HETATM    6  C   UNK N   1      28.727  28.120  -3.995  0.00  0.00    -0.027 C 
HETATM    7  C   UNK N   1      29.988  27.322  -4.284  0.00  0.00     0.201 C 
HETATM    8  C   UNK N   1      29.739  25.943  -4.914  0.00  0.00     0.050 C 
HETATM    9  C   UNK N   1      27.282  26.404  -5.195  0.00  0.00     0.147 C 
HETATM   10  C   UNK N   1      28.596  25.957  -5.920  0.00  0.00     0.037 C 
HETATM   11  C   UNK N   1      26.362  25.938  -7.562  0.00  0.00     0.045 C 
HETATM   12  C   UNK N   1      26.053  26.054  -6.079  0.00  0.00     0.160 C 
HETATM   13  C   UNK N   1      27.298  24.728  -7.765  0.00  0.00    -0.027 C 
HETATM   14  C   UNK N   1      28.434  24.633  -6.693  0.00  0.00     0.002 C 
HETATM   15  C   UNK N   1      28.085  23.422  -5.822  0.00  0.00     0.011 C 
HETATM   16  C   UNK N   1      27.364  22.465  -6.760  0.00  0.00    -0.006 C 
HETATM   17  C   UNK N   1      26.496  23.444  -7.530  0.00  0.00     0.070 C 
HETATM   18  C   UNK N   1      27.888  24.806  -9.169  0.00  0.00     0.016 C 
HETATM   19  C   UNK N   1      27.555  28.767  -6.077  0.00  0.00     0.028 C 
HETATM   20  C   UNK N   1      28.366  21.753  -7.664  0.00  0.00     0.011 C 
HETATM   21  F   UNK N   1      27.123  25.674  -4.025  0.00  0.00    -0.238 F 
HETATM   22  F   UNK N   1      30.687  27.109  -3.108  0.00  0.00    -0.245 F 
HETATM   23  O   UNK N   1      27.757  31.046  -2.241  0.00  0.00    -0.289 OA
ENDROOT
BRANCH  17  24
HETATM   24  C   UNK N   1      25.590  22.927  -8.616  0.00  0.00     0.155 C 
HETATM   25  O   UNK N   1      24.416  23.257  -8.654  0.00  0.00    -0.295 OA
BRANCH  24  26
HETATM   26  C   UNK N   1      26.131  22.004  -9.655  0.00  0.00     0.242 C 
BRANCH  26  27
HETATM   27  O   UNK N   1      25.150  21.085 -10.031  0.00  0.00    -0.394 OA
HETATM   28  H   UNK N   1      25.247  20.388 -10.699  0.00  0.00     0.209 HD
ENDBRANCH  26  27
ENDBRANCH  24  26
ENDBRANCH  17  24
BRANCH  12  29
HETATM   29  O   UNK N   1      24.893  26.781  -5.810  0.00  0.00    -0.392 OA
HETATM   30  H   UNK N   1      24.895  27.735  -5.638  0.00  0.00     0.210 HD
ENDBRANCH  12  29
TORSDOF 4
ENDMDL
MODEL 8
REMARK VINA RESULT:      -7.2     11.332     14.158
REMARK  4 active torsions:
REMARK  status: ('A' for Active; 'I' for Inactive)
REMARK    1  A    between atoms: C_1  and  O_2 
REMARK    2  A    between atoms: C_3  and  C_1 
REMARK    3  A    between atoms: C_20  and  C_3 
REMARK    4  A    between atoms: C_15  and  O_22 
ROOT
HETATM    1  C   UNK N   1      26.345  13.827   2.815  0.00  0.00     0.052 C 
HETATM    2  C   UNK N   1      25.695  14.968   2.157  0.00  0.00     0.172 C 
HETATM    3  C   UNK N   1      26.039  16.332   2.595  0.00  0.00     0.061 C 
HETATM    4  C   UNK N   1      27.416  14.040   3.592  0.00  0.00    -0.006 C 
HETATM    5  C   UNK N   1      28.102  15.396   3.644  0.00  0.00     0.039 C 
HETATM    6  C   UNK N   1      27.097  16.537   3.404  0.00  0.00    -0.027 C 
HETATM    7  C   UNK N   1      27.411  17.967   3.813  0.00  0.00     0.201 C 
HETATM    8  C   UNK N   1      28.395  18.093   4.986  0.00  0.00     0.050 C 
HETATM    9  C   UNK N   1      28.868  15.623   4.985  0.00  0.00     0.147 C 
HETATM   10  C   UNK N   1      29.505  17.052   4.933  0.00  0.00     0.037 C 
HETATM   11  C   UNK N   1      31.375  15.005   4.963  0.00  0.00     0.045 C 
HETATM   12  C   UNK N   1      29.964  14.575   5.326  0.00  0.00     0.160 C 
HETATM   13  C   UNK N   1      31.753  16.212   5.849  0.00  0.00    -0.027 C 
HETATM   14  C   UNK N   1      30.601  17.260   5.997  0.00  0.00     0.002 C 
HETATM   15  C   UNK N   1      30.116  17.144   7.446  0.00  0.00     0.011 C 
HETATM   16  C   UNK N   1      31.351  16.735   8.237  0.00  0.00    -0.006 C 
HETATM   17  C   UNK N   1      31.955  15.718   7.285  0.00  0.00     0.070 C 
HETATM   18  C   UNK N   1      33.002  16.864   5.268  0.00  0.00     0.016 C 
HETATM   19  C   UNK N   1      29.083  15.395   2.468  0.00  0.00     0.028 C 
HETATM   20  C   UNK N   1      32.266  17.938   8.449  0.00  0.00     0.011 C 
HETATM   21  F   UNK N   1      27.950  15.558   6.025  0.00  0.00    -0.238 F 
HETATM   22  F   UNK N   1      26.246  18.613   4.191  0.00  0.00    -0.245 F 
HETATM   23  O   UNK N   1      24.804  14.787   1.340  0.00  0.00    -0.289 OA
ENDROOT
BRANCH  17  24
HETATM   24  C   UNK N   1      33.245  15.037   7.660  0.00  0.00     0.155 C 
HETATM   25  O   UNK N   1      34.297  15.655   7.658  0.00  0.00    -0.295 OA
BRANCH  24  26
HETATM   26  C   UNK N   1      33.238  13.594   8.037  0.00  0.00     0.242 C 
BRANCH  26  27
HETATM   27  O   UNK N   1      32.317  13.376   9.063  0.00  0.00    -0.394 OA
HETATM   28  H   UNK N   1      31.352  13.352   8.968  0.00  0.00     0.209 HD
ENDBRANCH  26  27
ENDBRANCH  24  26
ENDBRANCH  17  24
BRANCH  12  29
HETATM   29  O   UNK N   1      29.674  13.261   4.958  0.00  0.00    -0.392 OA
HETATM   30  H   UNK N   1      28.778  12.890   4.984  0.00  0.00     0.210 HD
ENDBRANCH  12  29
TORSDOF 4
ENDMDL
MODEL 9
REMARK VINA RESULT:      -7.1     14.815     15.654
REMARK  4 active torsions:
REMARK  status: ('A' for Active; 'I' for Inactive)
REMARK    1  A    between atoms: C_1  and  O_2 
REMARK    2  A    between atoms: C_3  and  C_1 
REMARK    3  A    between atoms: C_20  and  C_3 
REMARK    4  A    between atoms: C_15  and  O_22 
ROOT
HETATM    1  C   UNK N   1      21.064  14.094   9.802  0.00  0.00     0.052 C 
HETATM    2  C   UNK N   1      21.502  12.717   9.534  0.00  0.00     0.172 C 
HETATM    3  C   UNK N   1      21.592  12.260   8.137  0.00  0.00     0.061 C 
HETATM    4  C   UNK N   1      21.021  14.977   8.794  0.00  0.00    -0.006 C 
HETATM    5  C   UNK N   1      21.609  14.654   7.429  0.00  0.00     0.039 C 
HETATM    6  C   UNK N   1      21.514  13.147   7.126  0.00  0.00    -0.027 C 
HETATM    7  C   UNK N   1      21.627  12.618   5.706  0.00  0.00     0.201 C 
HETATM    8  C   UNK N   1      21.192  13.612   4.618  0.00  0.00     0.050 C 
HETATM    9  C   UNK N   1      20.941  15.479   6.285  0.00  0.00     0.147 C 
HETATM   10  C   UNK N   1      21.604  15.043   4.935  0.00  0.00     0.037 C 
HETATM   11  C   UNK N   1      22.141  17.672   5.636  0.00  0.00     0.045 C 
HETATM   12  C   UNK N   1      21.018  17.025   6.430  0.00  0.00     0.160 C 
HETATM   13  C   UNK N   1      21.846  17.472   4.135  0.00  0.00    -0.027 C 
HETATM   14  C   UNK N   1      21.334  16.035   3.786  0.00  0.00     0.002 C 
HETATM   15  C   UNK N   1      19.857  16.198   3.415  0.00  0.00     0.011 C 
HETATM   16  C   UNK N   1      19.762  17.587   2.801  0.00  0.00    -0.006 C 
HETATM   17  C   UNK N   1      20.661  18.362   3.747  0.00  0.00     0.070 C 
HETATM   18  C   UNK N   1      23.110  17.798   3.348  0.00  0.00     0.016 C 
HETATM   19  C   UNK N   1      23.095  15.006   7.539  0.00  0.00     0.028 C 
HETATM   20  C   UNK N   1      20.305  17.574   1.375  0.00  0.00     0.011 C 
HETATM   21  F   UNK N   1      19.587  15.172   6.261  0.00  0.00    -0.238 F 
HETATM   22  F   UNK N   1      20.837  11.490   5.562  0.00  0.00    -0.245 F 
HETATM   23  O   UNK N   1      21.679  11.933  10.455  0.00  0.00    -0.289 OA
ENDROOT
BRANCH  17  24
HETATM   24  C   UNK N   1      20.884  19.832   3.509  0.00  0.00     0.155 C 
HETATM   25  O   UNK N   1      20.202  20.665   4.083  0.00  0.00    -0.295 OA
BRANCH  24  26
HETATM   26  C   UNK N   1      21.950  20.276   2.564  0.00  0.00     0.242 C 
BRANCH  26  27
HETATM   27  O   UNK N   1      21.379  20.990   1.508  0.00  0.00    -0.394 OA
HETATM   28  H   UNK N   1      21.712  21.023   0.598  0.00  0.00     0.209 HD
ENDBRANCH  26  27
ENDBRANCH  24  26
ENDBRANCH  17  24
BRANCH  12  29
HETATM   29  O   UNK N   1      20.907  17.512   7.732  0.00  0.00    -0.392 OA
HETATM   30  H   UNK N   1      20.252  17.181   8.366  0.00  0.00     0.210 HD
ENDBRANCH  12  29
TORSDOF 4
ENDMDL
