MODEL 1
REMARK VINA RESULT:      -5.7      0.000      0.000
REMARK  10 active torsions:
REMARK  status: ('A' for Active; 'I' for Inactive)
REMARK    1  A    between atoms: C_5  and  C_4 
REMARK    2  A    between atoms: C_16  and  C_5 
REMARK    3  A    between atoms: C_17  and  C_15 
REMARK    4  A    between atoms: N_22  and  C_15 
REMARK    5  A    between atoms: S_23  and  C_16 
REMARK    6  A    between atoms: S_24  and  C_17 
REMARK    7  A    between atoms: C_21  and  C_18 
REMARK    8  A    between atoms: C_21  and  C_19 
REMARK    9  A    between atoms: S_23  and  C_20 
REMARK   10  A    between atoms: S_24  and  C_21 
ROOT
HETATM    1  C   UNK N   1      36.450  12.648  14.355  0.00  0.00     0.113 C 
ENDROOT
BRANCH   1   2
HETATM    2  C   UNK N   1      36.399  13.645  15.499  0.00  0.00    -0.040 A 
HETATM    3  C   UNK N   1      37.238  14.767  15.471  0.00  0.00     0.009 A 
HETATM    4  C   UNK N   1      37.266  15.663  16.545  0.00  0.00     0.001 A 
HETATM    5  C   UNK N   1      36.464  15.433  17.665  0.00  0.00     0.000 A 
HETATM    6  C   UNK N   1      35.636  14.310  17.713  0.00  0.00     0.001 A 
HETATM    7  C   UNK N   1      35.607  13.415  16.639  0.00  0.00     0.009 A 
ENDBRANCH   1   2
BRANCH   1   8
HETATM    8  C   UNK N   1      36.240  13.247  12.996  0.00  0.00    -0.040 A 
HETATM    9  C   UNK N   1      37.197  13.113  11.974  0.00  0.00     0.010 A 
HETATM   10  C   UNK N   1      36.947  13.640  10.705  0.00  0.00     0.019 A 
HETATM   11  C   UNK N   1      35.744  14.310  10.445  0.00  0.00     0.000 A 
HETATM   12  C   UNK N   1      34.794  14.448  11.463  0.00  0.00     0.019 A 
HETATM   13  C   UNK N   1      35.041  13.918  12.729  0.00  0.00     0.010 A 
BRANCH  11  14
HETATM   14  S   UNK N   1      35.403  14.939   8.806  0.00  0.00    -0.130 SA
BRANCH  14  15
HETATM   15  C   UNK N   1      34.251  16.212   9.399  0.00  0.00     0.079 C 
BRANCH  15  16
HETATM   16  C   UNK N   1      34.652  17.560   8.825  0.00  0.00     0.010 C 
BRANCH  16  17
HETATM   17  C   UNK N   1      33.517  18.146   8.006  0.00  0.00    -0.004 C 
HETATM   18  C   UNK N   1      32.195  17.531   8.422  0.00  0.00     0.005 C 
ENDBRANCH  16  17
ENDBRANCH  15  16
ENDBRANCH  14  15
ENDBRANCH  11  14
ENDBRANCH   1   8
BRANCH   1  19
HETATM   19  S   UNK N   1      37.895  11.495  14.283  0.00  0.00    -0.153 SA
BRANCH  19  20
HETATM   20  C   UNK N   1      37.084   9.870  14.217  0.00  0.00     0.105 C 
BRANCH  20  21
HETATM   21  C   UNK N   1      35.808   9.931  15.059  0.00  0.00     0.281 C 
BRANCH  21  22
HETATM   22  N   UNK N   1      34.583   9.669  14.299  0.00  0.00     0.080 N 
HETATM   23  C   UNK N   1      33.588  10.696  14.569  0.00  0.00     0.309 C 
HETATM   24  C   UNK N   1      34.865   9.652  12.872  0.00  0.00     0.309 C 
ENDBRANCH  21  22
ENDBRANCH  20  21
ENDBRANCH  19  20
ENDBRANCH   1  19
TORSDOF 10
ENDMDL
MODEL 2
REMARK VINA RESULT:      -5.6      7.816     12.322
REMARK  10 active torsions:
REMARK  status: ('A' for Active; 'I' for Inactive)
REMARK    1  A    between atoms: C_5  and  C_4 
REMARK    2  A    between atoms: C_16  and  C_5 
REMARK    3  A    between atoms: C_17  and  C_15 
REMARK    4  A    between atoms: N_22  and  C_15 
REMARK    5  A    between atoms: S_23  and  C_16 
REMARK    6  A    between atoms: S_24  and  C_17 
REMARK    7  A    between atoms: C_21  and  C_18 
REMARK    8  A    between atoms: C_21  and  C_19 
REMARK    9  A    between atoms: S_23  and  C_20 
REMARK   10  A    between atoms: S_24  and  C_21 
ROOT
HETATM    1  C   UNK N   1      28.606  17.431   4.281  0.00  0.00     0.113 C 
ENDROOT
BRANCH   1   2
HETATM    2  C   UNK N   1      28.170  18.677   5.032  0.00  0.00    -0.040 A 
HETATM    3  C   UNK N   1      28.180  18.674   6.433  0.00  0.00     0.009 A 
HETATM    4  C   UNK N   1      27.715  19.780   7.151  0.00  0.00     0.001 A 
HETATM    5  C   UNK N   1      27.221  20.895   6.470  0.00  0.00     0.000 A 
HETATM    6  C   UNK N   1      27.190  20.905   5.075  0.00  0.00     0.001 A 
HETATM    7  C   UNK N   1      27.656  19.799   4.356  0.00  0.00     0.009 A 
ENDBRANCH   1   2
BRANCH   1   8
HETATM    8  C   UNK N   1      29.958  16.911   4.668  0.00  0.00    -0.040 A 
HETATM    9  C   UNK N   1      31.132  17.640   4.406  0.00  0.00     0.010 A 
HETATM   10  C   UNK N   1      32.371  17.150   4.825  0.00  0.00     0.019 A 
HETATM   11  C   UNK N   1      32.451  15.928   5.505  0.00  0.00     0.000 A 
HETATM   12  C   UNK N   1      31.284  15.200   5.762  0.00  0.00     0.019 A 
HETATM   13  C   UNK N   1      30.046  15.691   5.347  0.00  0.00     0.010 A 
BRANCH  11  14
HETATM   14  S   UNK N   1      34.031  15.327   6.088  0.00  0.00    -0.130 SA
BRANCH  14  15
HETATM   15  C   UNK N   1      34.366  16.806   7.088  0.00  0.00     0.079 C 
BRANCH  15  16
HETATM   16  C   UNK N   1      33.471  16.798   8.315  0.00  0.00     0.010 C 
BRANCH  16  17
HETATM   17  C   UNK N   1      32.675  18.087   8.400  0.00  0.00    -0.004 C 
HETATM   18  C   UNK N   1      31.193  17.784   8.496  0.00  0.00     0.005 C 
ENDBRANCH  16  17
ENDBRANCH  15  16
ENDBRANCH  14  15
ENDBRANCH  11  14
ENDBRANCH   1   8
BRANCH   1  19
HETATM   19  S   UNK N   1      27.418  16.014   4.206  0.00  0.00    -0.153 SA
BRANCH  19  20
HETATM   20  C   UNK N   1      26.125  16.657   3.104  0.00  0.00     0.105 C 
BRANCH  20  21
HETATM   21  C   UNK N   1      24.800  15.982   3.466  0.00  0.00     0.281 C 
BRANCH  21  22
HETATM   22  N   UNK N   1      23.881  16.844   4.215  0.00  0.00     0.080 N 
HETATM   23  C   UNK N   1      24.284  18.237   4.101  0.00  0.00     0.309 C 
HETATM   24  C   UNK N   1      22.525  16.703   3.706  0.00  0.00     0.309 C 
ENDBRANCH  21  22
ENDBRANCH  20  21
ENDBRANCH  19  20
ENDBRANCH   1  19
TORSDOF 10
ENDMDL
MODEL 3
REMARK VINA RESULT:      -5.6     11.943     16.801
REMARK  10 active torsions:
REMARK  status: ('A' for Active; 'I' for Inactive)
REMARK    1  A    between atoms: C_5  and  C_4 
REMARK    2  A    between atoms: C_16  and  C_5 
REMARK    3  A    between atoms: C_17  and  C_15 
REMARK    4  A    between atoms: N_22  and  C_15 
REMARK    5  A    between atoms: S_23  and  C_16 
REMARK    6  A    between atoms: S_24  and  C_17 
REMARK    7  A    between atoms: C_21  and  C_18 
REMARK    8  A    between atoms: C_21  and  C_19 
REMARK    9  A    between atoms: S_23  and  C_20 
REMARK   10  A    between atoms: S_24  and  C_21 
ROOT
HETATM    1  C   UNK N   1      22.682  17.793   5.035  0.00  0.00     0.113 C 
ENDROOT
BRANCH   1   2
HETATM    2  C   UNK N   1      21.812  17.771   3.791  0.00  0.00    -0.040 A 
HETATM    3  C   UNK N   1      21.231  18.962   3.336  0.00  0.00     0.009 A 
HETATM    4  C   UNK N   1      20.367  18.960   2.237  0.00  0.00     0.001 A 
HETATM    5  C   UNK N   1      20.062  17.758   1.592  0.00  0.00     0.000 A 
HETATM    6  C   UNK N   1      20.620  16.562   2.046  0.00  0.00     0.001 A 
HETATM    7  C   UNK N   1      21.486  16.564   3.144  0.00  0.00     0.009 A 
ENDBRANCH   1   2
BRANCH   1   8
HETATM    8  C   UNK N   1      22.169  16.957   6.169  0.00  0.00    -0.040 A 
HETATM    9  C   UNK N   1      21.030  17.330   6.905  0.00  0.00     0.010 A 
HETATM   10  C   UNK N   1      20.549  16.503   7.922  0.00  0.00     0.019 A 
HETATM   11  C   UNK N   1      21.203  15.299   8.218  0.00  0.00     0.000 A 
HETATM   12  C   UNK N   1      22.339  14.930   7.490  0.00  0.00     0.019 A 
HETATM   13  C   UNK N   1      22.817  15.754   6.471  0.00  0.00     0.010 A 
BRANCH  11  14
HETATM   14  S   UNK N   1      20.557  14.215   9.485  0.00  0.00    -0.130 SA
BRANCH  14  15
HETATM   15  C   UNK N   1      22.171  13.461   9.839  0.00  0.00     0.079 C 
BRANCH  15  16
HETATM   16  C   UNK N   1      22.003  12.387  10.900  0.00  0.00     0.010 C 
BRANCH  16  17
HETATM   17  C   UNK N   1      23.357  11.921  11.402  0.00  0.00    -0.004 C 
HETATM   18  C   UNK N   1      24.447  12.328  10.429  0.00  0.00     0.005 C 
ENDBRANCH  16  17
ENDBRANCH  15  16
ENDBRANCH  14  15
ENDBRANCH  11  14
ENDBRANCH   1   8
BRANCH   1  19
HETATM   19  S   UNK N   1      24.492  17.470   4.823  0.00  0.00    -0.153 SA
BRANCH  19  20
HETATM   20  C   UNK N   1      25.182  19.151   4.818  0.00  0.00     0.105 C 
BRANCH  20  21
HETATM   21  C   UNK N   1      26.668  19.064   4.462  0.00  0.00     0.281 C 
BRANCH  21  22
HETATM   22  N   UNK N   1      27.537  19.841   5.350  0.00  0.00     0.080 N 
HETATM   23  C   UNK N   1      26.897  21.095   5.717  0.00  0.00     0.309 C 
HETATM   24  C   UNK N   1      27.827  19.090   6.561  0.00  0.00     0.309 C 
ENDBRANCH  21  22
ENDBRANCH  20  21
ENDBRANCH  19  20
ENDBRANCH   1  19
TORSDOF 10
ENDMDL
MODEL 4
REMARK VINA RESULT:      -5.5     12.529     16.763
REMARK  10 active torsions:
REMARK  status: ('A' for Active; 'I' for Inactive)
REMARK    1  A    between atoms: C_5  and  C_4 
REMARK    2  A    between atoms: C_16  and  C_5 
REMARK    3  A    between atoms: C_17  and  C_15 
REMARK    4  A    between atoms: N_22  and  C_15 
REMARK    5  A    between atoms: S_23  and  C_16 
REMARK    6  A    between atoms: S_24  and  C_17 
REMARK    7  A    between atoms: C_21  and  C_18 
REMARK    8  A    between atoms: C_21  and  C_19 
REMARK    9  A    between atoms: S_23  and  C_20 
REMARK   10  A    between atoms: S_24  and  C_21 
ROOT
HETATM    1  C   UNK N   1      23.004  17.195   4.694  0.00  0.00     0.113 C 
ENDROOT
BRANCH   1   2
HETATM    2  C   UNK N   1      21.983  17.904   3.822  0.00  0.00    -0.040 A 
HETATM    3  C   UNK N   1      21.939  19.305   3.815  0.00  0.00     0.009 A 
HETATM    4  C   UNK N   1      20.963  19.984   3.079  0.00  0.00     0.001 A 
HETATM    5  C   UNK N   1      20.009  19.264   2.356  0.00  0.00     0.000 A 
HETATM    6  C   UNK N   1      20.030  17.868   2.369  0.00  0.00     0.001 A 
HETATM    7  C   UNK N   1      21.008  17.189   3.103  0.00  0.00     0.009 A 
ENDBRANCH   1   2
BRANCH   1   8
HETATM    8  C   UNK N   1      22.420  16.444   5.854  0.00  0.00    -0.040 A 
HETATM    9  C   UNK N   1      22.898  15.176   6.229  0.00  0.00     0.010 A 
HETATM   10  C   UNK N   1      22.366  14.527   7.345  0.00  0.00     0.019 A 
HETATM   11  C   UNK N   1      21.349  15.133   8.093  0.00  0.00     0.000 A 
HETATM   12  C   UNK N   1      20.869  16.393   7.718  0.00  0.00     0.019 A 
HETATM   13  C   UNK N   1      21.404  17.044   6.606  0.00  0.00     0.010 A 
BRANCH  11  14
HETATM   14  S   UNK N   1      20.704  14.325   9.552  0.00  0.00    -0.130 SA
BRANCH  14  15
HETATM   15  C   UNK N   1      22.241  13.413   9.879  0.00  0.00     0.079 C 
BRANCH  15  16
HETATM   16  C   UNK N   1      21.997  12.392  10.977  0.00  0.00     0.010 C 
BRANCH  16  17
HETATM   17  C   UNK N   1      23.314  11.918  11.562  0.00  0.00    -0.004 C 
HETATM   18  C   UNK N   1      23.231  11.870  13.075  0.00  0.00     0.005 C 
ENDBRANCH  16  17
ENDBRANCH  15  16
ENDBRANCH  14  15
ENDBRANCH  11  14
ENDBRANCH   1   8
BRANCH   1  19
HETATM   19  S   UNK N   1      24.252  16.118   3.853  0.00  0.00    -0.153 SA
BRANCH  19  20
HETATM   20  C   UNK N   1      25.821  16.824   4.437  0.00  0.00     0.105 C 
BRANCH  20  21
HETATM   21  C   UNK N   1      25.644  18.337   4.592  0.00  0.00     0.281 C 
BRANCH  21  22
HETATM   22  N   UNK N   1      26.886  19.099   4.431  0.00  0.00     0.080 N 
HETATM   23  C   UNK N   1      26.660  20.264   3.590  0.00  0.00     0.309 C 
HETATM   24  C   UNK N   1      27.379  19.543   5.726  0.00  0.00     0.309 C 
ENDBRANCH  21  22
ENDBRANCH  20  21
ENDBRANCH  19  20
ENDBRANCH   1  19
TORSDOF 10
ENDMDL
MODEL 5
REMARK VINA RESULT:      -5.5      2.473      7.035
REMARK  10 active torsions:
REMARK  status: ('A' for Active; 'I' for Inactive)
REMARK    1  A    between atoms: C_5  and  C_4 
REMARK    2  A    between atoms: C_16  and  C_5 
REMARK    3  A    between atoms: C_17  and  C_15 
REMARK    4  A    between atoms: N_22  and  C_15 
REMARK    5  A    between atoms: S_23  and  C_16 
REMARK    6  A    between atoms: S_24  and  C_17 
REMARK    7  A    between atoms: C_21  and  C_18 
REMARK    8  A    between atoms: C_21  and  C_19 
REMARK    9  A    between atoms: S_23  and  C_20 
REMARK   10  A    between atoms: S_24  and  C_21 
ROOT
HETATM    1  C   UNK N   1      36.539  12.798  14.291  0.00  0.00     0.113 C 
ENDROOT
BRANCH   1   2
HETATM    2  C   UNK N   1      36.380  13.674  15.521  0.00  0.00    -0.040 A 
HETATM    3  C   UNK N   1      37.180  14.816  15.660  0.00  0.00     0.009 A 
HETATM    4  C   UNK N   1      37.108  15.600  16.815  0.00  0.00     0.001 A 
HETATM    5  C   UNK N   1      36.243  15.238  17.851  0.00  0.00     0.000 A 
HETATM    6  C   UNK N   1      35.453  14.094  17.733  0.00  0.00     0.001 A 
HETATM    7  C   UNK N   1      35.523  13.310  16.576  0.00  0.00     0.009 A 
ENDBRANCH   1   2
BRANCH   1   8
HETATM    8  C   UNK N   1      36.584  11.326  14.576  0.00  0.00    -0.040 A 
HETATM    9  C   UNK N   1      37.771  10.690  14.986  0.00  0.00     0.010 A 
HETATM   10  C   UNK N   1      37.767   9.328  15.293  0.00  0.00     0.019 A 
HETATM   11  C   UNK N   1      36.583   8.586  15.188  0.00  0.00     0.000 A 
HETATM   12  C   UNK N   1      35.404   9.217  14.775  0.00  0.00     0.019 A 
HETATM   13  C   UNK N   1      35.406  10.579  14.474  0.00  0.00     0.010 A 
BRANCH  11  14
HETATM   14  S   UNK N   1      36.567   6.854  15.631  0.00  0.00    -0.130 SA
BRANCH  14  15
HETATM   15  C   UNK N   1      35.420   7.090  17.019  0.00  0.00     0.079 C 
BRANCH  15  16
HETATM   16  C   UNK N   1      36.110   7.886  18.113  0.00  0.00     0.010 C 
BRANCH  16  17
HETATM   17  C   UNK N   1      35.275   9.093  18.498  0.00  0.00    -0.004 C 
HETATM   18  C   UNK N   1      36.146  10.332  18.576  0.00  0.00     0.005 C 
ENDBRANCH  16  17
ENDBRANCH  15  16
ENDBRANCH  14  15
ENDBRANCH  11  14
ENDBRANCH   1   8
BRANCH   1  19
HETATM   19  S   UNK N   1      35.392  13.096  12.869  0.00  0.00    -0.153 SA
BRANCH  19  20
HETATM   20  C   UNK N   1      36.513  13.780  11.613  0.00  0.00     0.105 C 
BRANCH  20  21
HETATM   21  C   UNK N   1      35.678  14.228  10.411  0.00  0.00     0.281 C 
BRANCH  21  22
HETATM   22  N   UNK N   1      34.698  15.272  10.726  0.00  0.00     0.080 N 
HETATM   23  C   UNK N   1      35.333  16.582  10.722  0.00  0.00     0.309 C 
HETATM   24  C   UNK N   1      33.621  15.269   9.748  0.00  0.00     0.309 C 
ENDBRANCH  21  22
ENDBRANCH  20  21
ENDBRANCH  19  20
ENDBRANCH   1  19
TORSDOF 10
ENDMDL
MODEL 6
REMARK VINA RESULT:      -5.4      7.592     11.553
REMARK  10 active torsions:
REMARK  status: ('A' for Active; 'I' for Inactive)
REMARK    1  A    between atoms: C_5  and  C_4 
REMARK    2  A    between atoms: C_16  and  C_5 
REMARK    3  A    between atoms: C_17  and  C_15 
REMARK    4  A    between atoms: N_22  and  C_15 
REMARK    5  A    between atoms: S_23  and  C_16 
REMARK    6  A    between atoms: S_24  and  C_17 
REMARK    7  A    between atoms: C_21  and  C_18 
REMARK    8  A    between atoms: C_21  and  C_19 
REMARK    9  A    between atoms: S_23  and  C_20 
REMARK   10  A    between atoms: S_24  and  C_21 
ROOT
HETATM    1  C   UNK N   1      28.790  17.376   4.294  0.00  0.00     0.113 C 
ENDROOT
BRANCH   1   2
HETATM    2  C   UNK N   1      28.309  18.598   5.057  0.00  0.00    -0.040 A 
HETATM    3  C   UNK N   1      28.309  18.578   6.458  0.00  0.00     0.009 A 
HETATM    4  C   UNK N   1      27.804  19.660   7.186  0.00  0.00     0.001 A 
HETATM    5  C   UNK N   1      27.278  20.767   6.515  0.00  0.00     0.000 A 
HETATM    6  C   UNK N   1      27.256  20.792   5.120  0.00  0.00     0.001 A 
HETATM    7  C   UNK N   1      27.763  19.711   4.391  0.00  0.00     0.009 A 
ENDBRANCH   1   2
BRANCH   1   8
HETATM    8  C   UNK N   1      30.181  16.934   4.639  0.00  0.00    -0.040 A 
HETATM    9  C   UNK N   1      30.422  15.750   5.359  0.00  0.00     0.010 A 
HETATM   10  C   UNK N   1      31.731  15.341   5.619  0.00  0.00     0.019 A 
HETATM   11  C   UNK N   1      32.812  16.111   5.169  0.00  0.00     0.000 A 
HETATM   12  C   UNK N   1      32.573  17.292   4.457  0.00  0.00     0.019 A 
HETATM   13  C   UNK N   1      31.265  17.698   4.193  0.00  0.00     0.010 A 
BRANCH  11  14
HETATM   14  S   UNK N   1      34.489  15.560   5.457  0.00  0.00    -0.130 SA
BRANCH  14  15
HETATM   15  C   UNK N   1      34.439  15.933   7.234  0.00  0.00     0.079 C 
BRANCH  15  16
HETATM   16  C   UNK N   1      34.320  17.435   7.430  0.00  0.00     0.010 C 
BRANCH  16  17
HETATM   17  C   UNK N   1      33.490  17.745   8.661  0.00  0.00    -0.004 C 
HETATM   18  C   UNK N   1      32.023  17.855   8.292  0.00  0.00     0.005 C 
ENDBRANCH  16  17
ENDBRANCH  15  16
ENDBRANCH  14  15
ENDBRANCH  11  14
ENDBRANCH   1   8
BRANCH   1  19
HETATM   19  S   UNK N   1      27.682  15.894   4.259  0.00  0.00    -0.153 SA
BRANCH  19  20
HETATM   20  C   UNK N   1      27.588  15.531   2.481  0.00  0.00     0.105 C 
BRANCH  20  21
HETATM   21  C   UNK N   1      27.763  14.023   2.285  0.00  0.00     0.281 C 
BRANCH  21  22
HETATM   22  N   UNK N   1      28.804  13.432   3.131  0.00  0.00     0.080 N 
HETATM   23  C   UNK N   1      28.450  12.068   3.491  0.00  0.00     0.309 C 
HETATM   24  C   UNK N   1      30.079  13.417   2.431  0.00  0.00     0.309 C 
ENDBRANCH  21  22
ENDBRANCH  20  21
ENDBRANCH  19  20
ENDBRANCH   1  19
TORSDOF 10
ENDMDL
MODEL 7
REMARK VINA RESULT:      -5.4     20.057     23.313
REMARK  10 active torsions:
REMARK  status: ('A' for Active; 'I' for Inactive)
REMARK    1  A    between atoms: C_5  and  C_4 
REMARK    2  A    between atoms: C_16  and  C_5 
REMARK    3  A    between atoms: C_17  and  C_15 
REMARK    4  A    between atoms: N_22  and  C_15 
REMARK    5  A    between atoms: S_23  and  C_16 
REMARK    6  A    between atoms: S_24  and  C_17 
REMARK    7  A    between atoms: C_21  and  C_18 
REMARK    8  A    between atoms: C_21  and  C_19 
REMARK    9  A    between atoms: S_23  and  C_20 
REMARK   10  A    between atoms: S_24  and  C_21 
ROOT
HETATM    1  C   UNK N   1      28.653  22.753  -6.400  0.00  0.00     0.113 C 
ENDROOT
BRANCH   1   2
HETATM    2  C   UNK N   1      29.690  21.887  -5.705  0.00  0.00    -0.040 A 
HETATM    3  C   UNK N   1      30.399  20.934  -6.448  0.00  0.00     0.009 A 
HETATM    4  C   UNK N   1      31.307  20.074  -5.822  0.00  0.00     0.001 A 
HETATM    5  C   UNK N   1      31.500  20.150  -4.441  0.00  0.00     0.000 A 
HETATM    6  C   UNK N   1      30.787  21.083  -3.686  0.00  0.00     0.001 A 
HETATM    7  C   UNK N   1      29.881  21.945  -4.313  0.00  0.00     0.009 A 
ENDBRANCH   1   2
BRANCH   1   8
HETATM    8  C   UNK N   1      28.093  23.855  -5.551  0.00  0.00    -0.040 A 
HETATM    9  C   UNK N   1      28.887  24.936  -5.126  0.00  0.00     0.010 A 
HETATM   10  C   UNK N   1      28.321  25.972  -4.380  0.00  0.00     0.019 A 
HETATM   11  C   UNK N   1      26.961  25.937  -4.046  0.00  0.00     0.000 A 
HETATM   12  C   UNK N   1      26.172  24.859  -4.464  0.00  0.00     0.019 A 
HETATM   13  C   UNK N   1      26.736  23.827  -5.214  0.00  0.00     0.010 A 
BRANCH  11  14
HETATM   14  S   UNK N   1      26.225  27.288  -3.135  0.00  0.00    -0.130 SA
BRANCH  14  15
HETATM   15  C   UNK N   1      25.993  28.322  -4.610  0.00  0.00     0.079 C 
BRANCH  15  16
HETATM   16  C   UNK N   1      26.892  29.542  -4.517  0.00  0.00     0.010 C 
BRANCH  16  17
HETATM   17  C   UNK N   1      27.863  29.576  -5.683  0.00  0.00    -0.004 C 
HETATM   18  C   UNK N   1      27.531  28.479  -6.676  0.00  0.00     0.005 C 
ENDBRANCH  16  17
ENDBRANCH  15  16
ENDBRANCH  14  15
ENDBRANCH  11  14
ENDBRANCH   1   8
BRANCH   1  19
HETATM   19  S   UNK N   1      29.082  23.438  -8.065  0.00  0.00    -0.153 SA
BRANCH  19  20
HETATM   20  C   UNK N   1      27.891  22.590  -9.144  0.00  0.00     0.105 C 
BRANCH  20  21
HETATM   21  C   UNK N   1      26.976  21.727  -8.272  0.00  0.00     0.281 C 
BRANCH  21  22
HETATM   22  N   UNK N   1      25.547  21.984  -8.476  0.00  0.00     0.080 N 
HETATM   23  C   UNK N   1      24.775  21.478  -7.352  0.00  0.00     0.309 C 
HETATM   24  C   UNK N   1      25.303  23.412  -8.608  0.00  0.00     0.309 C 
ENDBRANCH  21  22
ENDBRANCH  20  21
ENDBRANCH  19  20
ENDBRANCH   1  19
TORSDOF 10
ENDMDL
MODEL 8
REMARK VINA RESULT:      -5.4     18.578     23.957
REMARK  10 active torsions:
REMARK  status: ('A' for Active; 'I' for Inactive)
REMARK    1  A    between atoms: C_5  and  C_4 
REMARK    2  A    between atoms: C_16  and  C_5 
REMARK    3  A    between atoms: C_17  and  C_15 
REMARK    4  A    between atoms: N_22  and  C_15 
REMARK    5  A    between atoms: S_23  and  C_16 
REMARK    6  A    between atoms: S_24  and  C_17 
REMARK    7  A    between atoms: C_21  and  C_18 
REMARK    8  A    between atoms: C_21  and  C_19 
REMARK    9  A    between atoms: S_23  and  C_20 
REMARK   10  A    between atoms: S_24  and  C_21 
ROOT
HETATM    1  C   UNK N   1      25.960  24.457  -6.455  0.00  0.00     0.113 C 
ENDROOT
BRANCH   1   2
HETATM    2  C   UNK N   1      25.802  23.349  -7.483  0.00  0.00    -0.040 A 
HETATM    3  C   UNK N   1      25.356  22.087  -7.070  0.00  0.00     0.009 A 
HETATM    4  C   UNK N   1      25.271  21.028  -7.980  0.00  0.00     0.001 A 
HETATM    5  C   UNK N   1      25.649  21.222  -9.310  0.00  0.00     0.000 A 
HETATM    6  C   UNK N   1      26.111  22.470  -9.731  0.00  0.00     0.001 A 
HETATM    7  C   UNK N   1      26.194  23.529  -8.822  0.00  0.00     0.009 A 
ENDBRANCH   1   2
BRANCH   1   8
HETATM    8  C   UNK N   1      26.963  24.169  -5.377  0.00  0.00    -0.040 A 
HETATM    9  C   UNK N   1      26.611  24.198  -4.016  0.00  0.00     0.010 A 
HETATM   10  C   UNK N   1      27.556  23.874  -3.040  0.00  0.00     0.019 A 
HETATM   11  C   UNK N   1      28.861  23.525  -3.412  0.00  0.00     0.000 A 
HETATM   12  C   UNK N   1      29.212  23.501  -4.766  0.00  0.00     0.019 A 
HETATM   13  C   UNK N   1      28.267  23.819  -5.742  0.00  0.00     0.010 A 
BRANCH  11  14
HETATM   14  S   UNK N   1      30.056  23.060  -2.166  0.00  0.00    -0.130 SA
BRANCH  14  15
HETATM   15  C   UNK N   1      30.811  21.767  -3.193  0.00  0.00     0.079 C 
BRANCH  15  16
HETATM   16  C   UNK N   1      32.278  22.092  -3.417  0.00  0.00     0.010 C 
BRANCH  16  17
HETATM   17  C   UNK N   1      33.159  21.107  -2.673  0.00  0.00    -0.004 C 
HETATM   18  C   UNK N   1      33.950  20.264  -3.654  0.00  0.00     0.005 C 
ENDBRANCH  16  17
ENDBRANCH  15  16
ENDBRANCH  14  15
ENDBRANCH  11  14
ENDBRANCH   1   8
BRANCH   1  19
HETATM   19  S   UNK N   1      26.232  26.177  -7.081  0.00  0.00    -0.153 SA
BRANCH  19  20
HETATM   20  C   UNK N   1      25.423  27.181  -5.800  0.00  0.00     0.105 C 
BRANCH  20  21
HETATM   21  C   UNK N   1      26.501  27.733  -4.865  0.00  0.00     0.281 C 
BRANCH  21  22
HETATM   22  N   UNK N   1      26.596  29.196  -4.867  0.00  0.00     0.080 N 
HETATM   23  C   UNK N   1      26.545  29.709  -3.507  0.00  0.00     0.309 C 
HETATM   24  C   UNK N   1      27.842  29.622  -5.484  0.00  0.00     0.309 C 
ENDBRANCH  21  22
ENDBRANCH  20  21
ENDBRANCH  19  20
ENDBRANCH   1  19
TORSDOF 10
ENDMDL
MODEL 9
REMARK VINA RESULT:      -5.3      8.291     12.407
REMARK  10 active torsions:
REMARK  status: ('A' for Active; 'I' for Inactive)
REMARK    1  A    between atoms: C_5  and  C_4 
REMARK    2  A    between atoms: C_16  and  C_5 
REMARK    3  A    between atoms: C_17  and  C_15 
REMARK    4  A    between atoms: N_22  and  C_15 
REMARK    5  A    between atoms: S_23  and  C_16 
REMARK    6  A    between atoms: S_24  and  C_17 
REMARK    7  A    between atoms: C_21  and  C_18 
REMARK    8  A    between atoms: C_21  and  C_19 
REMARK    9  A    between atoms: S_23  and  C_20 
REMARK   10  A    between atoms: S_24  and  C_21 
ROOT
HETATM    1  C   UNK N   1      28.691  17.069   5.957  0.00  0.00     0.113 C 
ENDROOT
BRANCH   1   2
HETATM    2  C   UNK N   1      28.118  18.427   5.587  0.00  0.00    -0.040 A 
HETATM    3  C   UNK N   1      27.918  19.385   6.590  0.00  0.00     0.009 A 
HETATM    4  C   UNK N   1      27.325  20.616   6.291  0.00  0.00     0.001 A 
HETATM    5  C   UNK N   1      26.911  20.891   4.986  0.00  0.00     0.000 A 
HETATM    6  C   UNK N   1      27.088  19.938   3.981  0.00  0.00     0.001 A 
HETATM    7  C   UNK N   1      27.683  18.708   4.279  0.00  0.00     0.009 A 
ENDBRANCH   1   2
BRANCH   1   8
HETATM    8  C   UNK N   1      27.679  15.965   6.030  0.00  0.00    -0.040 A 
HETATM    9  C   UNK N   1      27.709  14.875   5.141  0.00  0.00     0.010 A 
HETATM   10  C   UNK N   1      26.783  13.838   5.270  0.00  0.00     0.019 A 
HETATM   11  C   UNK N   1      25.814  13.881   6.281  0.00  0.00     0.000 A 
HETATM   12  C   UNK N   1      25.780  14.968   7.163  0.00  0.00     0.019 A 
HETATM   13  C   UNK N   1      26.709  16.001   7.038  0.00  0.00     0.010 A 
BRANCH  11  14
HETATM   14  S   UNK N   1      24.661  12.529   6.478  0.00  0.00    -0.130 SA
BRANCH  14  15
HETATM   15  C   UNK N   1      24.525  12.741   8.277  0.00  0.00     0.079 C 
BRANCH  15  16
HETATM   16  C   UNK N   1      23.851  11.521   8.879  0.00  0.00     0.010 C 
BRANCH  16  17
HETATM   17  C   UNK N   1      23.076  11.904  10.126  0.00  0.00    -0.004 C 
HETATM   18  C   UNK N   1      22.456  13.278   9.958  0.00  0.00     0.005 C 
ENDBRANCH  16  17
ENDBRANCH  15  16
ENDBRANCH  14  15
ENDBRANCH  11  14
ENDBRANCH   1   8
BRANCH   1  19
HETATM   19  S   UNK N   1      30.162  16.470   5.008  0.00  0.00    -0.153 SA
BRANCH  19  20
HETATM   20  C   UNK N   1      31.543  17.052   6.037  0.00  0.00     0.105 C 
BRANCH  20  21
HETATM   21  C   UNK N   1      31.421  16.408   7.419  0.00  0.00     0.281 C 
BRANCH  21  22
HETATM   22  N   UNK N   1      31.811  17.292   8.522  0.00  0.00     0.080 N 
HETATM   23  C   UNK N   1      33.008  18.041   8.172  0.00  0.00     0.309 C 
HETATM   24  C   UNK N   1      30.740  18.230   8.822  0.00  0.00     0.309 C 
ENDBRANCH  21  22
ENDBRANCH  20  21
ENDBRANCH  19  20
ENDBRANCH   1  19
TORSDOF 10
ENDMDL
