MODEL 1
REMARK VINA RESULT:      -5.4      0.000      0.000
REMARK  4 active torsions:
REMARK  status: ('A' for Active; 'I' for Inactive)
REMARK       I    between atoms: C_2  and  N_4 
REMARK    1  A    between atoms: N_4  and  C_5 
REMARK    2  A    between atoms: C_7  and  C_16 
REMARK    3  A    between atoms: C_9  and  C_12 
REMARK    4  A    between atoms: C_12  and  O_14 
REMARK       I    between atoms: C_16  and  N_18 
ROOT
HETATM    1  C   UNK N   1      28.644  18.043   6.605  0.00  0.00     0.070 A 
HETATM    2  C   UNK N   1      29.708  17.748   7.466  0.00  0.00     0.051 A 
HETATM    3  C   UNK N   1      30.779  16.895   7.052  0.00  0.00     0.068 A 
HETATM    4  C   UNK N   1      30.757  16.377   5.698  0.00  0.00     0.041 A 
HETATM    5  C   UNK N   1      29.658  16.692   4.811  0.00  0.00     0.074 A 
HETATM    6  C   UNK N   1      28.588  17.506   5.305  0.00  0.00     0.052 A 
HETATM    7  I   UNK N   1      26.777  17.909   4.172  0.00  0.00    -0.041 I 
HETATM    8  I   UNK N   1      32.370  15.097   4.989  0.00  0.00    -0.042 I 
HETATM    9  I   UNK N   1      29.562  18.680   9.416  0.00  0.00    -0.041 I 
ENDROOT
BRANCH   1  10
HETATM   10  N   UNK N   1      27.588  18.864   7.107  0.00  0.00    -0.325 N 
HETATM   11  C   UNK N   1      27.422  20.181   6.817  0.00  0.00     0.218 C 
HETATM   12  C   UNK N   1      26.252  20.912   7.376  0.00  0.00     0.117 C 
HETATM   13  O   UNK N   1      28.233  20.782   6.127  0.00  0.00    -0.274 OA
HETATM   14  H   UNK N   1      26.931  18.446   7.708  0.00  0.00     0.169 HD
ENDBRANCH   1  10
BRANCH   3  15
HETATM   15  C   UNK N   1      31.888  16.551   8.050  0.00  0.00     0.253 C 
HETATM   16  O   UNK N   1      31.796  15.557   8.750  0.00  0.00    -0.268 OA
HETATM   17  N   UNK N   1      33.005  17.300   8.168  0.00  0.00    -0.361 N 
HETATM   18  C   UNK N   1      34.072  16.966   9.081  0.00  0.00     0.149 C 
HETATM   19  H   UNK N   1      33.097  18.105   7.609  0.00  0.00     0.162 HD
ENDBRANCH   3  15
BRANCH   5  20
HETATM   20  C   UNK N   1      29.606  16.175   3.375  0.00  0.00     0.178 C 
HETATM   21  O   UNK N   1      29.041  15.133   3.104  0.00  0.00    -0.646 OA
BRANCH  20  22
HETATM   22  O   UNK N   1      30.134  16.855   2.347  0.00  0.00    -0.773 OA
HETATM   23  H   UNK N   1      29.626  17.497   1.891  0.00  0.00     0.167 HD
ENDBRANCH  20  22
ENDBRANCH   5  20
TORSDOF 4
ENDMDL
MODEL 2
REMARK VINA RESULT:      -5.2      5.474      8.511
REMARK  4 active torsions:
REMARK  status: ('A' for Active; 'I' for Inactive)
REMARK       I    between atoms: C_2  and  N_4 
REMARK    1  A    between atoms: N_4  and  C_5 
REMARK    2  A    between atoms: C_7  and  C_16 
REMARK    3  A    between atoms: C_9  and  C_12 
REMARK    4  A    between atoms: C_12  and  O_14 
REMARK       I    between atoms: C_16  and  N_18 
ROOT
HETATM    1  C   UNK N   1      24.738  17.695   5.025  0.00  0.00     0.070 A 
HETATM    2  C   UNK N   1      23.569  16.927   5.069  0.00  0.00     0.051 A 
HETATM    3  C   UNK N   1      22.380  17.352   4.399  0.00  0.00     0.068 A 
HETATM    4  C   UNK N   1      22.428  18.581   3.632  0.00  0.00     0.041 A 
HETATM    5  C   UNK N   1      23.642  19.368   3.585  0.00  0.00     0.074 A 
HETATM    6  C   UNK N   1      24.783  18.915   4.324  0.00  0.00     0.052 A 
HETATM    7  I   UNK N   1      26.612  20.073   4.516  0.00  0.00    -0.041 I 
HETATM    8  I   UNK N   1      20.663  19.275   2.560  0.00  0.00    -0.042 I 
HETATM    9  I   UNK N   1      23.745  15.100   6.221  0.00  0.00    -0.041 I 
ENDROOT
BRANCH   1  10
HETATM   10  N   UNK N   1      25.872  17.228   5.758  0.00  0.00    -0.325 N 
HETATM   11  C   UNK N   1      26.898  16.510   5.232  0.00  0.00     0.218 C 
HETATM   12  C   UNK N   1      28.041  16.120   6.102  0.00  0.00     0.117 C 
HETATM   13  O   UNK N   1      26.883  16.155   4.062  0.00  0.00    -0.274 OA
HETATM   14  H   UNK N   1      25.913  17.443   6.718  0.00  0.00     0.169 HD
ENDBRANCH   1  10
BRANCH   3  15
HETATM   15  C   UNK N   1      21.108  16.509   4.529  0.00  0.00     0.253 C 
HETATM   16  O   UNK N   1      20.883  15.613   3.733  0.00  0.00    -0.268 OA
HETATM   17  N   UNK N   1      20.221  16.696   5.530  0.00  0.00    -0.361 N 
HETATM   18  C   UNK N   1      19.037  15.884   5.682  0.00  0.00     0.149 C 
HETATM   19  H   UNK N   1      20.389  17.413   6.183  0.00  0.00     0.162 HD
ENDBRANCH   3  15
BRANCH   5  20
HETATM   20  C   UNK N   1      23.735  20.661   2.778  0.00  0.00     0.178 C 
HETATM   21  O   UNK N   1      24.515  20.766   1.850  0.00  0.00    -0.646 OA
BRANCH  20  22
HETATM   22  O   UNK N   1      22.943  21.716   3.015  0.00  0.00    -0.773 OA
HETATM   23  H   UNK N   1      23.011  22.490   2.492  0.00  0.00     0.167 HD
ENDBRANCH  20  22
ENDBRANCH   5  20
TORSDOF 4
ENDMDL
MODEL 3
REMARK VINA RESULT:      -5.2     12.136     14.281
REMARK  4 active torsions:
REMARK  status: ('A' for Active; 'I' for Inactive)
REMARK       I    between atoms: C_2  and  N_4 
REMARK    1  A    between atoms: N_4  and  C_5 
REMARK    2  A    between atoms: C_7  and  C_16 
REMARK    3  A    between atoms: C_9  and  C_12 
REMARK    4  A    between atoms: C_12  and  O_14 
REMARK       I    between atoms: C_16  and  N_18 
ROOT
HETATM    1  C   UNK N   1      28.283  23.717  -5.504  0.00  0.00     0.070 A 
HETATM    2  C   UNK N   1      27.633  23.225  -6.642  0.00  0.00     0.051 A 
HETATM    3  C   UNK N   1      28.085  22.036  -7.295  0.00  0.00     0.068 A 
HETATM    4  C   UNK N   1      29.211  21.326  -6.722  0.00  0.00     0.041 A 
HETATM    5  C   UNK N   1      29.874  21.837  -5.541  0.00  0.00     0.074 A 
HETATM    6  C   UNK N   1      29.407  23.063  -4.967  0.00  0.00     0.052 A 
HETATM    7  I   UNK N   1      30.409  24.063  -3.318  0.00  0.00    -0.041 I 
HETATM    8  I   UNK N   1      29.936  19.492  -7.646  0.00  0.00    -0.042 I 
HETATM    9  I   UNK N   1      25.938  24.413  -7.285  0.00  0.00    -0.041 I 
ENDROOT
BRANCH   1  10
HETATM   10  N   UNK N   1      27.801  24.936  -4.935  0.00  0.00    -0.325 N 
HETATM   11  C   UNK N   1      26.908  25.019  -3.915  0.00  0.00     0.218 C 
HETATM   12  C   UNK N   1      26.520  26.356  -3.388  0.00  0.00     0.117 C 
HETATM   13  O   UNK N   1      26.397  24.014  -3.441  0.00  0.00    -0.274 OA
HETATM   14  H   UNK N   1      28.141  25.780  -5.310  0.00  0.00     0.169 HD
ENDBRANCH   1  10
BRANCH   3  15
HETATM   15  C   UNK N   1      27.380  21.573  -8.573  0.00  0.00     0.253 C 
HETATM   16  O   UNK N   1      26.416  20.828  -8.505  0.00  0.00    -0.268 OA
HETATM   17  N   UNK N   1      27.765  21.989  -9.798  0.00  0.00    -0.361 N 
HETATM   18  C   UNK N   1      27.086  21.586 -11.006  0.00  0.00     0.149 C 
HETATM   19  H   UNK N   1      28.540  22.593  -9.871  0.00  0.00     0.162 HD
ENDBRANCH   3  15
BRANCH   5  20
HETATM   20  C   UNK N   1      31.056  21.110  -4.901  0.00  0.00     0.178 C 
HETATM   21  O   UNK N   1      32.188  21.269  -5.315  0.00  0.00    -0.646 OA
BRANCH  20  22
HETATM   22  O   UNK N   1      30.915  20.306  -3.838  0.00  0.00    -0.773 OA
HETATM   23  H   UNK N   1      31.162  19.404  -3.888  0.00  0.00     0.167 HD
ENDBRANCH  20  22
ENDBRANCH   5  20
TORSDOF 4
ENDMDL
MODEL 4
REMARK VINA RESULT:      -5.2      5.951      7.693
REMARK  4 active torsions:
REMARK  status: ('A' for Active; 'I' for Inactive)
REMARK       I    between atoms: C_2  and  N_4 
REMARK    1  A    between atoms: N_4  and  C_5 
REMARK    2  A    between atoms: C_7  and  C_16 
REMARK    3  A    between atoms: C_9  and  C_12 
REMARK    4  A    between atoms: C_12  and  O_14 
REMARK       I    between atoms: C_16  and  N_18 
ROOT
HETATM    1  C   UNK N   1      22.670  16.076   5.361  0.00  0.00     0.070 A 
HETATM    2  C   UNK N   1      24.042  16.340   5.439  0.00  0.00     0.051 A 
HETATM    3  C   UNK N   1      24.605  17.508   4.837  0.00  0.00     0.068 A 
HETATM    4  C   UNK N   1      23.710  18.440   4.180  0.00  0.00     0.041 A 
HETATM    5  C   UNK N   1      22.291  18.164   4.110  0.00  0.00     0.074 A 
HETATM    6  C   UNK N   1      21.797  16.948   4.684  0.00  0.00     0.052 A 
HETATM    7  I   UNK N   1      19.734  16.294   4.493  0.00  0.00    -0.041 I 
HETATM    8  I   UNK N   1      24.493  20.256   3.269  0.00  0.00    -0.042 I 
HETATM    9  I   UNK N   1      25.178  14.844   6.521  0.00  0.00    -0.041 I 
ENDROOT
BRANCH   1  10
HETATM   10  N   UNK N   1      22.188  14.864   5.946  0.00  0.00    -0.325 N 
HETATM   11  C   UNK N   1      21.602  14.769   7.168  0.00  0.00     0.218 C 
HETATM   12  C   UNK N   1      21.107  13.447   7.641  0.00  0.00     0.117 C 
HETATM   13  O   UNK N   1      21.498  15.747   7.894  0.00  0.00    -0.274 OA
HETATM   14  H   UNK N   1      22.290  14.035   5.425  0.00  0.00     0.169 HD
ENDBRANCH   1  10
BRANCH   3  15
HETATM   15  C   UNK N   1      26.121  17.721   4.895  0.00  0.00     0.253 C 
HETATM   16  O   UNK N   1      26.832  17.305   3.996  0.00  0.00    -0.268 OA
HETATM   17  N   UNK N   1      26.714  18.394   5.904  0.00  0.00    -0.361 N 
HETATM   18  C   UNK N   1      28.137  18.630   5.951  0.00  0.00     0.149 C 
HETATM   19  H   UNK N   1      26.154  18.739   6.637  0.00  0.00     0.162 HD
ENDBRANCH   3  15
BRANCH   5  20
HETATM   20  C   UNK N   1      21.315  19.128   3.437  0.00  0.00     0.178 C 
HETATM   21  O   UNK N   1      21.024  19.006   2.263  0.00  0.00    -0.646 OA
BRANCH  20  22
HETATM   22  O   UNK N   1      20.702  20.114   4.107  0.00  0.00    -0.773 OA
HETATM   23  H   UNK N   1      21.074  20.973   4.134  0.00  0.00     0.167 HD
ENDBRANCH  20  22
ENDBRANCH   5  20
TORSDOF 4
ENDMDL
MODEL 5
REMARK VINA RESULT:      -5.1     11.732     14.527
REMARK  4 active torsions:
REMARK  status: ('A' for Active; 'I' for Inactive)
REMARK       I    between atoms: C_2  and  N_4 
REMARK    1  A    between atoms: N_4  and  C_5 
REMARK    2  A    between atoms: C_7  and  C_16 
REMARK    3  A    between atoms: C_9  and  C_12 
REMARK    4  A    between atoms: C_12  and  O_14 
REMARK       I    between atoms: C_16  and  N_18 
ROOT
HETATM    1  C   UNK N   1      30.285  21.457  -5.915  0.00  0.00     0.070 A 
HETATM    2  C   UNK N   1      29.101  21.795  -6.580  0.00  0.00     0.051 A 
HETATM    3  C   UNK N   1      28.234  22.814  -6.075  0.00  0.00     0.068 A 
HETATM    4  C   UNK N   1      28.636  23.523  -4.876  0.00  0.00     0.041 A 
HETATM    5  C   UNK N   1      29.866  23.173  -4.198  0.00  0.00     0.074 A 
HETATM    6  C   UNK N   1      30.662  22.105  -4.724  0.00  0.00     0.052 A 
HETATM    7  I   UNK N   1      32.427  21.330  -3.720  0.00  0.00    -0.041 I 
HETATM    8  I   UNK N   1      27.382  25.108  -4.067  0.00  0.00    -0.042 I 
HETATM    9  I   UNK N   1      28.732  20.649  -8.382  0.00  0.00    -0.041 I 
ENDROOT
BRANCH   1  10
HETATM   10  N   UNK N   1      31.075  20.396  -6.455  0.00  0.00    -0.325 N 
HETATM   11  C   UNK N   1      32.144  20.562  -7.277  0.00  0.00     0.218 C 
HETATM   12  C   UNK N   1      32.906  19.369  -7.737  0.00  0.00     0.117 C 
HETATM   13  O   UNK N   1      32.473  21.673  -7.666  0.00  0.00    -0.274 OA
HETATM   14  H   UNK N   1      30.826  19.475  -6.215  0.00  0.00     0.169 HD
ENDBRANCH   1  10
BRANCH   3  15
HETATM   15  C   UNK N   1      26.918  23.103  -6.804  0.00  0.00     0.253 C 
HETATM   16  O   UNK N   1      25.896  22.526  -6.473  0.00  0.00    -0.268 OA
HETATM   17  N   UNK N   1      26.832  24.016  -7.795  0.00  0.00    -0.361 N 
HETATM   18  C   UNK N   1      25.590  24.321  -8.464  0.00  0.00     0.149 C 
HETATM   19  H   UNK N   1      27.648  24.492  -8.072  0.00  0.00     0.162 HD
ENDBRANCH   3  15
BRANCH   5  20
HETATM   20  C   UNK N   1      30.330  23.906  -2.940  0.00  0.00     0.178 C 
HETATM   21  O   UNK N   1      30.228  23.392  -1.843  0.00  0.00    -0.646 OA
BRANCH  20  22
HETATM   22  O   UNK N   1      30.906  25.116  -2.983  0.00  0.00    -0.773 OA
HETATM   23  H   UNK N   1      30.586  25.814  -2.448  0.00  0.00     0.167 HD
ENDBRANCH  20  22
ENDBRANCH   5  20
TORSDOF 4
ENDMDL
MODEL 6
REMARK VINA RESULT:      -5.1      2.474      6.384
REMARK  4 active torsions:
REMARK  status: ('A' for Active; 'I' for Inactive)
REMARK       I    between atoms: C_2  and  N_4 
REMARK    1  A    between atoms: N_4  and  C_5 
REMARK    2  A    between atoms: C_7  and  C_16 
REMARK    3  A    between atoms: C_9  and  C_12 
REMARK    4  A    between atoms: C_12  and  O_14 
REMARK       I    between atoms: C_16  and  N_18 
ROOT
HETATM    1  C   UNK N   1      31.239  15.191   5.300  0.00  0.00     0.070 A 
HETATM    2  C   UNK N   1      30.150  16.044   5.086  0.00  0.00     0.051 A 
HETATM    3  C   UNK N   1      29.671  16.905   6.122  0.00  0.00     0.068 A 
HETATM    4  C   UNK N   1      30.372  16.907   7.390  0.00  0.00     0.041 A 
HETATM    5  C   UNK N   1      31.503  16.028   7.602  0.00  0.00     0.074 A 
HETATM    6  C   UNK N   1      31.898  15.149   6.543  0.00  0.00     0.052 A 
HETATM    7  I   UNK N   1      33.443  13.636   6.765  0.00  0.00    -0.041 I 
HETATM    8  I   UNK N   1      29.718  18.215   9.003  0.00  0.00    -0.042 I 
HETATM    9  I   UNK N   1      29.296  15.918   3.097  0.00  0.00    -0.041 I 
ENDROOT
BRANCH   1  10
HETATM   10  N   UNK N   1      31.630  14.326   4.232  0.00  0.00    -0.325 N 
HETATM   11  C   UNK N   1      32.626  14.585   3.345  0.00  0.00     0.218 C 
HETATM   12  C   UNK N   1      32.957  13.576   2.301  0.00  0.00     0.117 C 
HETATM   13  O   UNK N   1      33.235  15.645   3.373  0.00  0.00    -0.274 OA
HETATM   14  H   UNK N   1      31.141  13.478   4.130  0.00  0.00     0.169 HD
ENDBRANCH   1  10
BRANCH   3  15
HETATM   15  C   UNK N   1      28.436  17.773   5.859  0.00  0.00     0.253 C 
HETATM   16  O   UNK N   1      27.327  17.367   6.161  0.00  0.00    -0.268 OA
HETATM   17  N   UNK N   1      28.528  19.011   5.329  0.00  0.00    -0.361 N 
HETATM   18  C   UNK N   1      27.375  19.851   5.109  0.00  0.00     0.149 C 
HETATM   19  H   UNK N   1      29.417  19.355   5.082  0.00  0.00     0.162 HD
ENDBRANCH   3  15
BRANCH   5  20
HETATM   20  C   UNK N   1      32.275  16.011   8.920  0.00  0.00     0.178 C 
HETATM   21  O   UNK N   1      33.243  16.727   9.088  0.00  0.00    -0.646 OA
BRANCH  20  22
HETATM   22  O   UNK N   1      31.904  15.251   9.961  0.00  0.00    -0.773 OA
HETATM   23  H   UNK N   1      31.831  15.621  10.818  0.00  0.00     0.167 HD
ENDBRANCH  20  22
ENDBRANCH   5  20
TORSDOF 4
ENDMDL
MODEL 7
REMARK VINA RESULT:      -5.1      2.569      4.985
REMARK  4 active torsions:
REMARK  status: ('A' for Active; 'I' for Inactive)
REMARK       I    between atoms: C_2  and  N_4 
REMARK    1  A    between atoms: N_4  and  C_5 
REMARK    2  A    between atoms: C_7  and  C_16 
REMARK    3  A    between atoms: C_9  and  C_12 
REMARK    4  A    between atoms: C_12  and  O_14 
REMARK       I    between atoms: C_16  and  N_18 
ROOT
HETATM    1  C   UNK N   1      30.944  15.823   5.045  0.00  0.00     0.070 A 
HETATM    2  C   UNK N   1      31.982  16.140   5.928  0.00  0.00     0.051 A 
HETATM    3  C   UNK N   1      31.737  16.902   7.113  0.00  0.00     0.068 A 
HETATM    4  C   UNK N   1      30.374  17.300   7.402  0.00  0.00     0.041 A 
HETATM    5  C   UNK N   1      29.304  16.962   6.488  0.00  0.00     0.074 A 
HETATM    6  C   UNK N   1      29.624  16.246   5.290  0.00  0.00     0.052 A 
HETATM    7  I   UNK N   1      28.173  15.833   3.726  0.00  0.00    -0.041 I 
HETATM    8  I   UNK N   1      29.922  18.435   9.205  0.00  0.00    -0.042 I 
HETATM    9  I   UNK N   1      33.925  15.390   5.328  0.00  0.00    -0.041 I 
ENDROOT
BRANCH   1  10
HETATM   10  N   UNK N   1      31.275  15.100   3.858  0.00  0.00    -0.325 N 
HETATM   11  C   UNK N   1      31.166  13.753   3.711  0.00  0.00     0.218 C 
HETATM   12  C   UNK N   1      31.508  13.130   2.403  0.00  0.00     0.117 C 
HETATM   13  O   UNK N   1      30.819  13.044   4.644  0.00  0.00    -0.274 OA
HETATM   14  H   UNK N   1      31.607  15.615   3.088  0.00  0.00     0.169 HD
ENDBRANCH   1  10
BRANCH   3  15
HETATM   15  C   UNK N   1      32.917  17.278   8.016  0.00  0.00     0.253 C 
HETATM   16  O   UNK N   1      33.464  18.360   7.889  0.00  0.00    -0.268 OA
HETATM   17  N   UNK N   1      33.364  16.459   8.991  0.00  0.00    -0.361 N 
HETATM   18  C   UNK N   1      34.452  16.817   9.870  0.00  0.00     0.149 C 
HETATM   19  H   UNK N   1      32.932  15.582   9.109  0.00  0.00     0.162 HD
ENDBRANCH   3  15
BRANCH   5  20
HETATM   20  C   UNK N   1      27.853  17.353   6.765  0.00  0.00     0.178 C 
HETATM   21  O   UNK N   1      27.395  18.397   6.341  0.00  0.00    -0.646 OA
BRANCH  20  22
HETATM   22  O   UNK N   1      27.010  16.559   7.438  0.00  0.00    -0.773 OA
HETATM   23  H   UNK N   1      26.098  16.765   7.486  0.00  0.00     0.167 HD
ENDBRANCH  20  22
ENDBRANCH   5  20
TORSDOF 4
ENDMDL
MODEL 8
REMARK VINA RESULT:      -5.0      2.522      4.703
REMARK  4 active torsions:
REMARK  status: ('A' for Active; 'I' for Inactive)
REMARK       I    between atoms: C_2  and  N_4 
REMARK    1  A    between atoms: N_4  and  C_5 
REMARK    2  A    between atoms: C_7  and  C_16 
REMARK    3  A    between atoms: C_9  and  C_12 
REMARK    4  A    between atoms: C_12  and  O_14 
REMARK       I    between atoms: C_16  and  N_18 
ROOT
HETATM    1  C   UNK N   1      29.372  16.775   5.643  0.00  0.00     0.070 A 
HETATM    2  C   UNK N   1      30.060  16.152   4.595  0.00  0.00     0.051 A 
HETATM    3  C   UNK N   1      31.462  15.887   4.686  0.00  0.00     0.068 A 
HETATM    4  C   UNK N   1      32.148  16.240   5.914  0.00  0.00     0.041 A 
HETATM    5  C   UNK N   1      31.428  16.877   6.996  0.00  0.00     0.074 A 
HETATM    6  C   UNK N   1      30.037  17.166   6.821  0.00  0.00     0.052 A 
HETATM    7  I   UNK N   1      28.863  18.289   8.264  0.00  0.00    -0.041 I 
HETATM    8  I   UNK N   1      34.276  15.837   6.135  0.00  0.00    -0.042 I 
HETATM    9  I   UNK N   1      28.823  15.658   2.885  0.00  0.00    -0.041 I 
ENDROOT
BRANCH   1  10
HETATM   10  N   UNK N   1      27.982  17.049   5.459  0.00  0.00    -0.325 N 
HETATM   11  C   UNK N   1      27.479  18.174   4.888  0.00  0.00     0.218 C 
HETATM   12  C   UNK N   1      26.007  18.316   4.721  0.00  0.00     0.117 C 
HETATM   13  O   UNK N   1      28.215  19.084   4.534  0.00  0.00    -0.274 OA
HETATM   14  H   UNK N   1      27.339  16.372   5.770  0.00  0.00     0.169 HD
ENDBRANCH   1  10
BRANCH   3  15
HETATM   15  C   UNK N   1      32.182  15.261   3.488  0.00  0.00     0.253 C 
HETATM   16  O   UNK N   1      32.705  15.973   2.648  0.00  0.00    -0.268 OA
HETATM   17  N   UNK N   1      32.297  13.925   3.337  0.00  0.00    -0.361 N 
HETATM   18  C   UNK N   1      33.003  13.325   2.230  0.00  0.00     0.149 C 
HETATM   19  H   UNK N   1      31.883  13.335   4.008  0.00  0.00     0.162 HD
ENDBRANCH   3  15
BRANCH   5  20
HETATM   20  C   UNK N   1      32.113  17.251   8.309  0.00  0.00     0.178 C 
HETATM   21  O   UNK N   1      32.665  18.327   8.443  0.00  0.00    -0.646 OA
BRANCH  20  22
HETATM   22  O   UNK N   1      32.104  16.446   9.381  0.00  0.00    -0.773 OA
HETATM   23  H   UNK N   1      31.397  15.848   9.520  0.00  0.00     0.167 HD
ENDBRANCH  20  22
ENDBRANCH   5  20
TORSDOF 4
ENDMDL
MODEL 9
REMARK VINA RESULT:      -5.0      4.543      7.199
REMARK  4 active torsions:
REMARK  status: ('A' for Active; 'I' for Inactive)
REMARK       I    between atoms: C_2  and  N_4 
REMARK    1  A    between atoms: N_4  and  C_5 
REMARK    2  A    between atoms: C_7  and  C_16 
REMARK    3  A    between atoms: C_9  and  C_12 
REMARK    4  A    between atoms: C_12  and  O_14 
REMARK       I    between atoms: C_16  and  N_18 
ROOT
HETATM    1  C   UNK N   1      33.874  15.412   6.667  0.00  0.00     0.070 A 
HETATM    2  C   UNK N   1      34.901  14.549   6.266  0.00  0.00     0.051 A 
HETATM    3  C   UNK N   1      35.871  14.071   7.201  0.00  0.00     0.068 A 
HETATM    4  C   UNK N   1      35.739  14.468   8.589  0.00  0.00     0.041 A 
HETATM    5  C   UNK N   1      34.671  15.356   8.998  0.00  0.00     0.074 A 
HETATM    6  C   UNK N   1      33.764  15.844   8.002  0.00  0.00     0.052 A 
HETATM    7  I   UNK N   1      32.233  17.330   8.413  0.00  0.00    -0.041 I 
HETATM    8  I   UNK N   1      37.163  13.754  10.074  0.00  0.00    -0.042 I 
HETATM    9  I   UNK N   1      34.866  14.040   4.160  0.00  0.00    -0.041 I 
ENDROOT
BRANCH   1  10
HETATM   10  N   UNK N   1      32.970  15.884   5.666  0.00  0.00    -0.325 N 
HETATM   11  C   UNK N   1      33.092  17.063   5.001  0.00  0.00     0.218 C 
HETATM   12  C   UNK N   1      32.099  17.416   3.950  0.00  0.00     0.117 C 
HETATM   13  O   UNK N   1      33.988  17.849   5.271  0.00  0.00    -0.274 OA
HETATM   14  H   UNK N   1      32.201  15.314   5.441  0.00  0.00     0.169 HD
ENDBRANCH   1  10
BRANCH   3  15
HETATM   15  C   UNK N   1      37.012  13.179   6.702  0.00  0.00     0.253 C 
HETATM   16  O   UNK N   1      36.873  11.968   6.670  0.00  0.00    -0.268 OA
HETATM   17  N   UNK N   1      38.179  13.689   6.254  0.00  0.00    -0.361 N 
HETATM   18  C   UNK N   1      39.247  12.860   5.749  0.00  0.00     0.149 C 
HETATM   19  H   UNK N   1      38.307  14.665   6.271  0.00  0.00     0.162 HD
ENDBRANCH   3  15
BRANCH   5  20
HETATM   20  C   UNK N   1      34.492  15.786  10.452  0.00  0.00     0.178 C 
HETATM   21  O   UNK N   1      35.041  16.782  10.882  0.00  0.00    -0.646 OA
BRANCH  20  22
HETATM   22  O   UNK N   1      33.697  15.125  11.306  0.00  0.00    -0.773 OA
HETATM   23  H   UNK N   1      32.996  15.566  11.742  0.00  0.00     0.167 HD
ENDBRANCH  20  22
ENDBRANCH   5  20
TORSDOF 4
ENDMDL
