REMARK  13 active torsions:
REMARK  status: ('A' for Active; 'I' for Inactive)
REMARK    1  A    between atoms: O_3  and  C_39 
REMARK    2  A    between atoms: O_4  and  C_40 
REMARK       I    between atoms: N_7  and  C_21 
REMARK       I    between atoms: N_8  and  C_22 
REMARK    3  A    between atoms: N_15  and  C_23 
REMARK       I    between atoms: N_15  and  C_39 
REMARK    4  A    between atoms: N_16  and  C_24 
REMARK       I    between atoms: N_16  and  C_40 
REMARK    5  A    between atoms: C_17  and  C_20 
REMARK    6  A    between atoms: C_18  and  C_19 
REMARK    7  A    between atoms: C_21  and  C_23 
REMARK    8  A    between atoms: C_22  and  C_24 
REMARK    9  A    between atoms: C_23  and  C_33 
REMARK   10  A    between atoms: C_24  and  C_34 
REMARK   11  A    between atoms: C_29  and  C_37 
REMARK   12  A    between atoms: C_30  and  C_38 
REMARK   13  A    between atoms: C_41  and  C_42 
ROOT
HETATM    1  C   UNK N   1      -2.184  -1.688  -0.405  0.00  0.00    -0.009 C 
HETATM    2  C   UNK N   1      -0.069  -0.298  -1.338  0.00  0.00     0.064 C 
HETATM    3  C   UNK N   1      -2.407  -0.407  -0.897  0.00  0.00     0.011 C 
HETATM    4  C   UNK N   1      -1.002  -2.357  -0.671  0.00  0.00     0.011 C 
HETATM    5  C   UNK N   1      -1.332   0.315  -1.341  0.00  0.00    -0.012 C 
HETATM    6  C   UNK N   1       0.047  -1.674  -1.188  0.00  0.00    -0.012 C 
ENDROOT
BRANCH   2   7
HETATM    7  C   UNK N   1       0.883   0.346  -0.481  0.00  0.00    -0.047 C 
HETATM    8  C   UNK N   1       2.105  -0.281  -0.222  0.00  0.00     0.005 C 
HETATM    9  C   UNK N   1       2.915   0.214   0.766  0.00  0.00    -0.011 C 
HETATM   10  C   UNK N   1       2.556   1.379   1.440  0.00  0.00     0.082 C 
HETATM   11  C   UNK N   1       1.221   1.770   1.427  0.00  0.00    -0.011 C 
HETATM   12  C   UNK N   1       0.404   1.301   0.430  0.00  0.00     0.005 C 
BRANCH  10  13
HETATM   13  C   UNK N   1       3.267   2.463   0.857  0.00  0.00     0.037 A 
HETATM   14  N   UNK N   1       3.788   3.481   1.521  0.00  0.00    -0.346 N 
HETATM   15  C   UNK N   1       4.073   4.360   0.555  0.00  0.00     0.104 A 
HETATM   16  H   UNK N   1       3.931   3.570   2.491  0.00  0.00     0.167 HD
HETATM   17  N   UNK N   1       3.717   3.955  -0.681  0.00  0.00    -0.352 N 
HETATM   18  C   UNK N   1       3.188   2.753  -0.499  0.00  0.00     0.115 A 
ATOM     19  HN  UNK N   1       3.830   4.461  -1.560  1.00  0.00     0.166 HD
BRANCH  15  20
HETATM   20  C   UNK N   1       4.799   5.590   0.802  0.00  0.00     0.155 C 
HETATM   21  N   UNK N   1       5.796   5.750  -0.222  0.00  0.00    -0.339 N 
HETATM   22  C   UNK N   1       6.787   4.842  -0.536  0.00  0.00     0.243 C 
HETATM   23  C   UNK N   1       5.648   6.963  -0.981  0.00  0.00     0.127 C 
HETATM   24  O   UNK N   1       7.556   5.118  -1.447  0.00  0.00    -0.271 OA
HETATM   25  C   UNK N   1       4.453   7.689  -0.389  0.00  0.00     0.022 C 
HETATM   26  C   UNK N   1       3.813   6.731   0.599  0.00  0.00     0.035 C 
BRANCH  22  27
HETATM   27  C   UNK N   1       6.976   3.480   0.167  0.00  0.00     0.182 C 
BRANCH  27  28
HETATM   28  N   UNK N   1       6.210   2.441  -0.513  0.00  0.00    -0.323 N 
HETATM   29  C   UNK N   1       6.027   1.190   0.007  0.00  0.00     0.360 C 
HETATM   30  O   UNK N   1       6.429   0.919   1.131  0.00  0.00    -0.239 OA
HETATM   31  H   UNK N   1       5.807   2.651  -1.386  0.00  0.00     0.165 HD
BRANCH  29  32
HETATM   32  O   UNK N   1       5.433   0.235  -0.754  0.00  0.00    -0.309 OA
HETATM   33  C   UNK N   1       5.383  -1.088  -0.370  0.00  0.00     0.215 C 
ENDBRANCH  29  32
ENDBRANCH  27  28
BRANCH  27  34
HETATM   34  C   UNK N   1       8.492   3.135   0.094  0.00  0.00     0.009 C 
HETATM   35  C   UNK N   1       9.259   3.743   1.245  0.00  0.00     0.012 C 
HETATM   36  C   UNK N   1       8.899   1.678  -0.100  0.00  0.00     0.012 C 
ENDBRANCH  27  34
ENDBRANCH  22  27
ENDBRANCH  15  20
ENDBRANCH  10  13
ENDBRANCH   2   7
BRANCH   1  37
HETATM   37  C   UNK N   1      -3.251  -2.527  -0.241  0.00  0.00     0.059 A 
HETATM   38  N   UNK N   1      -3.435  -3.353   0.795  0.00  0.00    -0.342 N 
HETATM   39  C   UNK N   1      -4.198  -4.309   0.262  0.00  0.00     0.105 A 
HETATM   40  H   UNK N   1      -3.095  -3.275   1.715  0.00  0.00     0.167 HD
HETATM   41  N   UNK N   1      -4.427  -4.137  -1.056  0.00  0.00    -0.352 N 
HETATM   42  C   UNK N   1      -3.806  -3.024  -1.377  0.00  0.00     0.119 A 
ATOM     43  HN  UNK N   1      -4.968  -4.742  -1.673  1.00  0.00     0.166 HD
BRANCH  39  44
HETATM   44  C   UNK N   1      -4.918  -5.323   1.025  0.00  0.00     0.155 C 
HETATM   45  N   UNK N   1      -6.046  -5.675   0.204  0.00  0.00    -0.339 N 
HETATM   46  C   UNK N   1      -7.077  -4.815  -0.137  0.00  0.00     0.243 C 
HETATM   47  C   UNK N   1      -5.944  -6.981  -0.397  0.00  0.00     0.127 C 
HETATM   48  O   UNK N   1      -7.917  -5.225  -0.927  0.00  0.00    -0.271 OA
HETATM   49  C   UNK N   1      -4.558  -7.494  -0.042  0.00  0.00     0.022 C 
HETATM   50  C   UNK N   1      -4.046  -6.575   1.061  0.00  0.00     0.035 C 
BRANCH  46  51
HETATM   51  C   UNK N   1      -7.255  -3.361   0.417  0.00  0.00     0.182 C 
BRANCH  51  52
HETATM   52  N   UNK N   1      -6.321  -2.395  -0.152  0.00  0.00    -0.323 N 
HETATM   53  C   UNK N   1      -6.094  -1.152   0.353  0.00  0.00     0.360 C 
HETATM   54  O   UNK N   1      -6.629  -0.809   1.417  0.00  0.00    -0.239 OA
HETATM   55  H   UNK N   1      -5.820  -2.662  -0.957  0.00  0.00     0.165 HD
BRANCH  53  56
HETATM   56  O   UNK N   1      -5.321  -0.268  -0.317  0.00  0.00    -0.309 OA
HETATM   57  C   UNK N   1      -5.136   1.035   0.090  0.00  0.00     0.215 C 
ENDBRANCH  53  56
ENDBRANCH  51  52
BRANCH  51  58
HETATM   58  C   UNK N   1      -8.698  -2.912   0.062  0.00  0.00     0.009 C 
HETATM   59  C   UNK N   1      -9.695  -3.554   0.999  0.00  0.00     0.012 C 
HETATM   60  C   UNK N   1      -8.984  -1.422  -0.045  0.00  0.00     0.012 C 
ENDBRANCH  51  58
ENDBRANCH  46  51
ENDBRANCH  39  44
ENDBRANCH   1  37
TORSDOF 13
