MODEL 1
REMARK VINA RESULT:      -6.7      0.000      0.000
REMARK  6 active torsions:
REMARK  status: ('A' for Active; 'I' for Inactive)
REMARK    1  A    between atoms: C_6  and  C_9 
REMARK    2  A    between atoms: C_9  and  C_10 
REMARK    3  A    between atoms: C_9  and  C_11 
REMARK    4  A    between atoms: C_9  and  O_27 
REMARK    5  A    between atoms: C_10  and  N_12 
REMARK    6  A    between atoms: C_11  and  N_14 
ROOT
HETATM    1  C   UNK N   1      35.915  12.768  14.241  0.00  0.00     0.136 C 
ENDROOT
BRANCH   1   2
HETATM    2  C   UNK N   1      36.109  13.713  15.450  0.00  0.00     0.019 A 
HETATM    3  C   UNK N   1      35.412  13.588  16.691  0.00  0.00     0.128 A 
HETATM    4  C   UNK N   1      35.643  14.503  17.724  0.00  0.00     0.085 A 
HETATM    5  F   UNK N   1      34.513  12.603  16.929  0.00  0.00    -0.205 F 
HETATM    6  C   UNK N   1      36.553  15.544  17.561  0.00  0.00     0.119 A 
HETATM    7  C   UNK N   1      37.253  15.671  16.367  0.00  0.00     0.043 A 
HETATM    8  F   UNK N   1      36.756  16.430  18.566  0.00  0.00    -0.206 F 
HETATM    9  C   UNK N   1      37.035  14.763  15.332  0.00  0.00     0.016 A 
ENDBRANCH   1   2
BRANCH   1  10
HETATM   10  C   UNK N   1      36.550  11.363  14.577  0.00  0.00     0.259 C 
HETATM   11  C   UNK N   1      38.033  11.208  14.216  0.00  0.00     0.046 C 
BRANCH  10  12
HETATM   12  N   UNK N   1      35.703  10.208  14.162  0.00  0.00     0.096 N 
HETATM   13  C   UNK N   1      36.422   8.945  13.883  0.00  0.00     0.277 C 
HETATM   14  C   UNK N   1      37.038   8.330  15.149  0.00  0.00     0.063 C 
HETATM   15  C   UNK N   1      35.984   8.234  16.200  0.00  0.00    -0.086 C 
HETATM   16  C   UNK N   1      35.142   9.435  16.461  0.00  0.00     0.063 C 
HETATM   17  C   UNK N   1      35.691   7.066  16.762  0.00  0.00     0.014 C 
HETATM   18  C   UNK N   1      34.614   9.944  15.116  0.00  0.00     0.277 C 
ENDBRANCH  10  12
ENDBRANCH   1  10
BRANCH   1  19
HETATM   19  C   UNK N   1      36.525  13.402  12.966  0.00  0.00     0.195 C 
BRANCH  19  20
HETATM   20  N   UNK N   1      35.609  14.208  12.163  0.00  0.00    -0.284 N 
HETATM   21  C   UNK N   1      35.730  15.524  11.936  0.00  0.00     0.201 A 
HETATM   22  N   UNK N   1      34.764  15.930  11.089  0.00  0.00    -0.346 N 
HETATM   23  C   UNK N   1      34.069  14.806  10.806  0.00  0.00     0.198 A 
ATOM     24  HN  UNK N   1      34.595  16.873  10.739  1.00  0.00     0.167 HD
HETATM   25  N   UNK N   1      34.592  13.751  11.461  0.00  0.00    -0.293 N 
ATOM     26  HN  UNK N   1      34.263  12.786  11.421  1.00  0.00     0.188 HD
ENDBRANCH  19  20
ENDBRANCH   1  19
BRANCH   1  27
HETATM   27  O   UNK N   1      34.540  12.622  14.023  0.00  0.00    -0.381 OA
HETATM   28  H   UNK N   1      33.616  12.768  13.764  0.00  0.00     0.211 HD
ENDBRANCH   1  27
TORSDOF 6
ENDMDL
MODEL 2
REMARK VINA RESULT:      -6.6     22.256     25.258
REMARK  6 active torsions:
REMARK  status: ('A' for Active; 'I' for Inactive)
REMARK    1  A    between atoms: C_6  and  C_9 
REMARK    2  A    between atoms: C_9  and  C_10 
REMARK    3  A    between atoms: C_9  and  C_11 
REMARK    4  A    between atoms: C_9  and  O_27 
REMARK    5  A    between atoms: C_10  and  N_12 
REMARK    6  A    between atoms: C_11  and  N_14 
ROOT
HETATM    1  C   UNK N   1      27.655  25.566  -4.547  0.00  0.00     0.136 C 
ENDROOT
BRANCH   1   2
HETATM    2  C   UNK N   1      26.937  25.266  -5.883  0.00  0.00     0.019 A 
HETATM    3  C   UNK N   1      26.640  26.247  -6.877  0.00  0.00     0.128 A 
HETATM    4  C   UNK N   1      25.970  25.883  -8.050  0.00  0.00     0.085 A 
HETATM    5  F   UNK N   1      26.979  27.552  -6.741  0.00  0.00    -0.205 F 
HETATM    6  C   UNK N   1      25.588  24.562  -8.269  0.00  0.00     0.119 A 
HETATM    7  C   UNK N   1      25.885  23.589  -7.321  0.00  0.00     0.043 A 
HETATM    8  F   UNK N   1      24.930  24.226  -9.404  0.00  0.00    -0.206 F 
HETATM    9  C   UNK N   1      26.555  23.940  -6.149  0.00  0.00     0.016 A 
ENDBRANCH   1   2
BRANCH   1  10
HETATM   10  C   UNK N   1      28.288  24.233  -3.989  0.00  0.00     0.259 C 
HETATM   11  C   UNK N   1      27.774  23.785  -2.615  0.00  0.00     0.046 C 
BRANCH  10  12
HETATM   12  N   UNK N   1      29.772  24.169  -4.129  0.00  0.00     0.096 N 
HETATM   13  C   UNK N   1      30.498  23.506  -3.024  0.00  0.00     0.277 C 
HETATM   14  C   UNK N   1      30.212  21.998  -2.957  0.00  0.00     0.063 C 
HETATM   15  C   UNK N   1      30.441  21.404  -4.306  0.00  0.00    -0.086 C 
HETATM   16  C   UNK N   1      29.832  22.081  -5.484  0.00  0.00     0.063 C 
HETATM   17  C   UNK N   1      31.303  20.405  -4.469  0.00  0.00     0.014 C 
HETATM   18  C   UNK N   1      30.185  23.569  -5.408  0.00  0.00     0.277 C 
ENDBRANCH  10  12
ENDBRANCH   1  10
BRANCH   1  19
HETATM   19  C   UNK N   1      26.668  26.216  -3.545  0.00  0.00     0.195 C 
BRANCH  19  20
HETATM   20  N   UNK N   1      26.690  27.675  -3.495  0.00  0.00    -0.284 N 
HETATM   21  C   UNK N   1      25.719  28.481  -3.949  0.00  0.00     0.201 A 
HETATM   22  N   UNK N   1      26.025  29.764  -3.669  0.00  0.00    -0.346 N 
HETATM   23  C   UNK N   1      27.208  29.695  -3.019  0.00  0.00     0.198 A 
ATOM     24  HN  UNK N   1      25.485  30.599  -3.896  1.00  0.00     0.167 HD
HETATM   25  N   UNK N   1      27.611  28.414  -2.909  0.00  0.00    -0.293 N 
ATOM     26  HN  UNK N   1      28.464  28.081  -2.460  1.00  0.00     0.188 HD
ENDBRANCH  19  20
ENDBRANCH   1  19
BRANCH   1  27
HETATM   27  O   UNK N   1      28.670  26.497  -4.802  0.00  0.00    -0.381 OA
HETATM   28  H   UNK N   1      29.462  26.945  -5.140  0.00  0.00     0.211 HD
ENDBRANCH   1  27
TORSDOF 6
ENDMDL
MODEL 3
REMARK VINA RESULT:      -6.5      9.543     12.872
REMARK  6 active torsions:
REMARK  status: ('A' for Active; 'I' for Inactive)
REMARK    1  A    between atoms: C_6  and  C_9 
REMARK    2  A    between atoms: C_9  and  C_10 
REMARK    3  A    between atoms: C_9  and  C_11 
REMARK    4  A    between atoms: C_9  and  O_27 
REMARK    5  A    between atoms: C_10  and  N_12 
REMARK    6  A    between atoms: C_11  and  N_14 
ROOT
HETATM    1  C   UNK N   1      29.330  17.133   5.142  0.00  0.00     0.136 C 
ENDROOT
BRANCH   1   2
HETATM    2  C   UNK N   1      28.548  18.412   5.521  0.00  0.00     0.019 A 
HETATM    3  C   UNK N   1      28.240  18.802   6.860  0.00  0.00     0.128 A 
HETATM    4  C   UNK N   1      27.511  19.971   7.105  0.00  0.00     0.085 A 
HETATM    5  F   UNK N   1      28.626  18.079   7.940  0.00  0.00    -0.205 F 
HETATM    6  C   UNK N   1      27.079  20.772   6.052  0.00  0.00     0.119 A 
HETATM    7  C   UNK N   1      27.383  20.418   4.742  0.00  0.00     0.043 A 
HETATM    8  F   UNK N   1      26.363  21.894   6.303  0.00  0.00    -0.206 F 
HETATM    9  C   UNK N   1      28.113  19.257   4.486  0.00  0.00     0.016 A 
ENDBRANCH   1   2
BRANCH   1  10
HETATM   10  C   UNK N   1      30.869  17.378   5.386  0.00  0.00     0.259 C 
HETATM   11  C   UNK N   1      31.692  17.694   4.131  0.00  0.00     0.046 C 
BRANCH  10  12
HETATM   12  N   UNK N   1      31.501  16.369   6.285  0.00  0.00     0.096 N 
HETATM   13  C   UNK N   1      32.920  16.053   6.007  0.00  0.00     0.277 C 
HETATM   14  C   UNK N   1      33.853  17.236   6.304  0.00  0.00     0.063 C 
HETATM   15  C   UNK N   1      33.578  17.732   7.684  0.00  0.00    -0.086 C 
HETATM   16  C   UNK N   1      32.161  17.968   8.076  0.00  0.00     0.063 C 
HETATM   17  C   UNK N   1      34.551  17.794   8.588  0.00  0.00     0.014 C 
HETATM   18  C   UNK N   1      31.354  16.720   7.707  0.00  0.00     0.277 C 
ENDBRANCH  10  12
ENDBRANCH   1  10
BRANCH   1  19
HETATM   19  C   UNK N   1      29.021  16.733   3.678  0.00  0.00     0.195 C 
BRANCH  19  20
HETATM   20  N   UNK N   1      27.941  15.765   3.503  0.00  0.00    -0.284 N 
HETATM   21  C   UNK N   1      26.697  16.056   3.097  0.00  0.00     0.201 A 
HETATM   22  N   UNK N   1      25.984  14.919   2.965  0.00  0.00    -0.346 N 
HETATM   23  C   UNK N   1      26.852  13.937   3.293  0.00  0.00     0.198 A 
ATOM     24  HN  UNK N   1      25.009  14.823   2.680  1.00  0.00     0.167 HD
HETATM   25  N   UNK N   1      28.051  14.457   3.618  0.00  0.00    -0.293 N 
ATOM     26  HN  UNK N   1      28.884  13.938   3.899  1.00  0.00     0.188 HD
ENDBRANCH  19  20
ENDBRANCH   1  19
BRANCH   1  27
HETATM   27  O   UNK N   1      28.883  16.093   5.966  0.00  0.00    -0.381 OA
HETATM   28  H   UNK N   1      28.339  15.424   6.410  0.00  0.00     0.211 HD
ENDBRANCH   1  27
TORSDOF 6
ENDMDL
MODEL 4
REMARK VINA RESULT:      -6.5      2.281      2.872
REMARK  6 active torsions:
REMARK  status: ('A' for Active; 'I' for Inactive)
REMARK    1  A    between atoms: C_6  and  C_9 
REMARK    2  A    between atoms: C_9  and  C_10 
REMARK    3  A    between atoms: C_9  and  C_11 
REMARK    4  A    between atoms: C_9  and  O_27 
REMARK    5  A    between atoms: C_10  and  N_12 
REMARK    6  A    between atoms: C_11  and  N_14 
ROOT
HETATM    1  C   UNK N   1      35.525  12.933  12.767  0.00  0.00     0.136 C 
ENDROOT
BRANCH   1   2
HETATM    2  C   UNK N   1      35.591  13.246  14.280  0.00  0.00     0.019 A 
HETATM    3  C   UNK N   1      34.706  12.695  15.257  0.00  0.00     0.128 A 
HETATM    4  C   UNK N   1      34.834  13.050  16.604  0.00  0.00     0.085 A 
HETATM    5  F   UNK N   1      33.719  11.823  14.941  0.00  0.00    -0.205 F 
HETATM    6  C   UNK N   1      35.824  13.939  17.014  0.00  0.00     0.119 A 
HETATM    7  C   UNK N   1      36.705  14.472  16.080  0.00  0.00     0.043 A 
HETATM    8  F   UNK N   1      35.927  14.284  18.320  0.00  0.00    -0.206 F 
HETATM    9  C   UNK N   1      36.591  14.123  14.735  0.00  0.00     0.016 A 
ENDBRANCH   1   2
BRANCH   1  10
HETATM   10  C   UNK N   1      35.890  11.416  12.537  0.00  0.00     0.259 C 
HETATM   11  C   UNK N   1      37.178  10.938  13.218  0.00  0.00     0.046 C 
BRANCH  10  12
HETATM   12  N   UNK N   1      35.759  10.977  11.117  0.00  0.00     0.096 N 
HETATM   13  C   UNK N   1      36.398   9.687  10.777  0.00  0.00     0.277 C 
HETATM   14  C   UNK N   1      35.701   8.494  11.447  0.00  0.00     0.063 C 
HETATM   15  C   UNK N   1      34.239   8.566  11.161  0.00  0.00    -0.086 C 
HETATM   16  C   UNK N   1      33.546   9.867  11.373  0.00  0.00     0.063 C 
HETATM   17  C   UNK N   1      33.613   7.553  10.570  0.00  0.00     0.014 C 
HETATM   18  C   UNK N   1      34.358  10.956  10.667  0.00  0.00     0.277 C 
ENDBRANCH  10  12
ENDBRANCH   1  10
BRANCH   1  19
HETATM   19  C   UNK N   1      36.458  13.891  11.984  0.00  0.00     0.195 C 
BRANCH  19  20
HETATM   20  N   UNK N   1      35.786  14.922  11.198  0.00  0.00    -0.284 N 
HETATM   21  C   UNK N   1      35.695  16.218  11.534  0.00  0.00     0.201 A 
HETATM   22  N   UNK N   1      35.084  16.902  10.547  0.00  0.00    -0.346 N 
HETATM   23  C   UNK N   1      34.825  15.971   9.601  0.00  0.00     0.198 A 
ATOM     24  HN  UNK N   1      34.867  17.898  10.519  1.00  0.00     0.167 HD
HETATM   25  N   UNK N   1      35.260  14.761  10.000  0.00  0.00    -0.293 N 
ATOM     26  HN  UNK N   1      35.194  13.888   9.477  1.00  0.00     0.188 HD
ENDBRANCH  19  20
ENDBRANCH   1  19
BRANCH   1  27
HETATM   27  O   UNK N   1      34.215  13.174  12.334  0.00  0.00    -0.381 OA
HETATM   28  H   UNK N   1      33.249  13.242  12.279  0.00  0.00     0.211 HD
ENDBRANCH   1  27
TORSDOF 6
ENDMDL
MODEL 5
REMARK VINA RESULT:      -6.2      6.263      9.339
REMARK  6 active torsions:
REMARK  status: ('A' for Active; 'I' for Inactive)
REMARK    1  A    between atoms: C_6  and  C_9 
REMARK    2  A    between atoms: C_9  and  C_10 
REMARK    3  A    between atoms: C_9  and  C_11 
REMARK    4  A    between atoms: C_9  and  O_27 
REMARK    5  A    between atoms: C_10  and  N_12 
REMARK    6  A    between atoms: C_11  and  N_14 
ROOT
HETATM    1  C   UNK N   1      32.517  16.487   8.185  0.00  0.00     0.136 C 
ENDROOT
BRANCH   1   2
HETATM    2  C   UNK N   1      33.571  16.200   9.280  0.00  0.00     0.019 A 
HETATM    3  C   UNK N   1      34.707  17.025   9.542  0.00  0.00     0.128 A 
HETATM    4  C   UNK N   1      35.617  16.674  10.545  0.00  0.00     0.085 A 
HETATM    5  F   UNK N   1      34.961  18.162   8.850  0.00  0.00    -0.205 F 
HETATM    6  C   UNK N   1      35.429  15.522  11.304  0.00  0.00     0.119 A 
HETATM    7  C   UNK N   1      34.320  14.716  11.075  0.00  0.00     0.043 A 
HETATM    8  F   UNK N   1      36.325  15.189  12.263  0.00  0.00    -0.206 F 
HETATM    9  C   UNK N   1      33.404  15.057  10.080  0.00  0.00     0.016 A 
ENDBRANCH   1   2
BRANCH   1  10
HETATM   10  C   UNK N   1      33.174  16.272   6.767  0.00  0.00     0.259 C 
HETATM   11  C   UNK N   1      33.380  17.546   5.938  0.00  0.00     0.046 C 
BRANCH  10  12
HETATM   12  N   UNK N   1      32.582  15.140   5.997  0.00  0.00     0.096 N 
HETATM   13  C   UNK N   1      32.339  15.392   4.560  0.00  0.00     0.277 C 
HETATM   14  C   UNK N   1      33.642  15.549   3.763  0.00  0.00     0.063 C 
HETATM   15  C   UNK N   1      34.529  14.386   4.056  0.00  0.00    -0.086 C 
HETATM   16  C   UNK N   1      34.734  14.001   5.481  0.00  0.00     0.063 C 
HETATM   17  C   UNK N   1      34.980  13.613   3.074  0.00  0.00     0.014 C 
HETATM   18  C   UNK N   1      33.359  13.899   6.146  0.00  0.00     0.277 C 
ENDBRANCH  10  12
ENDBRANCH   1  10
BRANCH   1  19
HETATM   19  C   UNK N   1      31.942  17.915   8.360  0.00  0.00     0.195 C 
BRANCH  19  20
HETATM   20  N   UNK N   1      30.494  17.995   8.528  0.00  0.00    -0.284 N 
HETATM   21  C   UNK N   1      29.863  18.580   9.557  0.00  0.00     0.201 A 
HETATM   22  N   UNK N   1      28.531  18.546   9.352  0.00  0.00    -0.346 N 
HETATM   23  C   UNK N   1      28.389  17.932   8.157  0.00  0.00     0.198 A 
ATOM     24  HN  UNK N   1      27.797  18.904   9.963  1.00  0.00     0.167 HD
HETATM   25  N   UNK N   1      29.592  17.601   7.651  0.00  0.00    -0.293 N 
ATOM     26  HN  UNK N   1      29.771  17.133   6.762  1.00  0.00     0.188 HD
ENDBRANCH  19  20
ENDBRANCH   1  19
BRANCH   1  27
HETATM   27  O   UNK N   1      31.461  15.584   8.355  0.00  0.00    -0.381 OA
HETATM   28  H   UNK N   1      30.682  15.022   8.214  0.00  0.00     0.211 HD
ENDBRANCH   1  27
TORSDOF 6
ENDMDL
MODEL 6
REMARK VINA RESULT:      -6.0     22.038     25.212
REMARK  6 active torsions:
REMARK  status: ('A' for Active; 'I' for Inactive)
REMARK    1  A    between atoms: C_6  and  C_9 
REMARK    2  A    between atoms: C_9  and  C_10 
REMARK    3  A    between atoms: C_9  and  C_11 
REMARK    4  A    between atoms: C_9  and  O_27 
REMARK    5  A    between atoms: C_10  and  N_12 
REMARK    6  A    between atoms: C_11  and  N_14 
ROOT
HETATM    1  C   UNK N   1      28.007  24.609  -5.372  0.00  0.00     0.136 C 
ENDROOT
BRANCH   1   2
HETATM    2  C   UNK N   1      29.014  23.822  -4.502  0.00  0.00     0.019 A 
HETATM    3  C   UNK N   1      28.811  23.499  -3.125  0.00  0.00     0.128 A 
HETATM    4  C   UNK N   1      29.789  22.795  -2.414  0.00  0.00     0.085 A 
HETATM    5  F   UNK N   1      27.690  23.850  -2.449  0.00  0.00    -0.205 F 
HETATM    6  C   UNK N   1      30.969  22.396  -3.035  0.00  0.00     0.119 A 
HETATM    7  C   UNK N   1      31.177  22.685  -4.379  0.00  0.00     0.043 A 
HETATM    8  F   UNK N   1      31.913  21.726  -2.330  0.00  0.00    -0.206 F 
HETATM    9  C   UNK N   1      30.208  23.383  -5.099  0.00  0.00     0.016 A 
ENDBRANCH   1   2
BRANCH   1  10
HETATM   10  C   UNK N   1      28.016  26.123  -4.930  0.00  0.00     0.259 C 
HETATM   11  C   UNK N   1      29.127  26.515  -3.947  0.00  0.00     0.046 C 
BRANCH  10  12
HETATM   12  N   UNK N   1      26.670  26.648  -4.560  0.00  0.00     0.096 N 
HETATM   13  C   UNK N   1      26.556  27.247  -3.212  0.00  0.00     0.277 C 
HETATM   14  C   UNK N   1      27.351  28.554  -3.082  0.00  0.00     0.063 C 
HETATM   15  C   UNK N   1      26.976  29.460  -4.206  0.00  0.00    -0.086 C 
HETATM   16  C   UNK N   1      26.959  28.898  -5.585  0.00  0.00     0.063 C 
HETATM   17  C   UNK N   1      26.504  30.679  -3.965  0.00  0.00     0.014 C 
HETATM   18  C   UNK N   1      26.150  27.599  -5.557  0.00  0.00     0.277 C 
ENDBRANCH  10  12
ENDBRANCH   1  10
BRANCH   1  19
HETATM   19  C   UNK N   1      26.598  23.971  -5.266  0.00  0.00     0.195 C 
BRANCH  19  20
HETATM   20  N   UNK N   1      25.976  23.604  -6.535  0.00  0.00    -0.284 N 
HETATM   21  C   UNK N   1      25.527  22.381  -6.853  0.00  0.00     0.201 A 
HETATM   22  N   UNK N   1      24.937  22.415  -8.065  0.00  0.00    -0.346 N 
HETATM   23  C   UNK N   1      25.037  23.706  -8.453  0.00  0.00     0.198 A 
ATOM     24  HN  UNK N   1      24.510  21.640  -8.574  1.00  0.00     0.167 HD
HETATM   25  N   UNK N   1      25.669  24.433  -7.513  0.00  0.00    -0.293 N 
ATOM     26  HN  UNK N   1      25.872  25.432  -7.550  1.00  0.00     0.188 HD
ENDBRANCH  19  20
ENDBRANCH   1  19
BRANCH   1  27
HETATM   27  O   UNK N   1      28.416  24.506  -6.707  0.00  0.00    -0.381 OA
HETATM   28  H   UNK N   1      28.519  24.633  -7.663  0.00  0.00     0.211 HD
ENDBRANCH   1  27
TORSDOF 6
ENDMDL
MODEL 7
REMARK VINA RESULT:      -6.0      2.568      3.988
REMARK  6 active torsions:
REMARK  status: ('A' for Active; 'I' for Inactive)
REMARK    1  A    between atoms: C_6  and  C_9 
REMARK    2  A    between atoms: C_9  and  C_10 
REMARK    3  A    between atoms: C_9  and  C_11 
REMARK    4  A    between atoms: C_9  and  O_27 
REMARK    5  A    between atoms: C_10  and  N_12 
REMARK    6  A    between atoms: C_11  and  N_14 
ROOT
HETATM    1  C   UNK N   1      35.331  13.096  11.980  0.00  0.00     0.136 C 
ENDROOT
BRANCH   1   2
HETATM    2  C   UNK N   1      35.288  12.864  13.508  0.00  0.00     0.019 A 
HETATM    3  C   UNK N   1      36.039  13.618  14.460  0.00  0.00     0.128 A 
HETATM    4  C   UNK N   1      35.947  13.323  15.824  0.00  0.00     0.085 A 
HETATM    5  F   UNK N   1      36.862  14.634  14.104  0.00  0.00    -0.205 F 
HETATM    6  C   UNK N   1      35.123  12.296  16.275  0.00  0.00     0.119 A 
HETATM    7  C   UNK N   1      34.371  11.562  15.365  0.00  0.00     0.043 A 
HETATM    8  F   UNK N   1      35.053  12.013  17.598  0.00  0.00    -0.206 F 
HETATM    9  C   UNK N   1      34.451  11.849  14.003  0.00  0.00     0.016 A 
ENDBRANCH   1   2
BRANCH   1  10
HETATM   10  C   UNK N   1      36.634  12.429  11.392  0.00  0.00     0.259 C 
HETATM   11  C   UNK N   1      37.684  13.404  10.845  0.00  0.00     0.046 C 
BRANCH  10  12
HETATM   12  N   UNK N   1      36.360  11.269  10.494  0.00  0.00     0.096 N 
HETATM   13  C   UNK N   1      37.324  11.063   9.391  0.00  0.00     0.277 C 
HETATM   14  C   UNK N   1      38.709  10.634   9.897  0.00  0.00     0.063 C 
HETATM   15  C   UNK N   1      38.548   9.471  10.817  0.00  0.00    -0.086 C 
HETATM   16  C   UNK N   1      37.515   9.561  11.887  0.00  0.00     0.063 C 
HETATM   17  C   UNK N   1      39.181   8.327  10.581  0.00  0.00     0.014 C 
HETATM   18  C   UNK N   1      36.202  10.011  11.241  0.00  0.00     0.277 C 
ENDBRANCH  10  12
ENDBRANCH   1  10
BRANCH   1  19
HETATM   19  C   UNK N   1      35.253  14.613  11.669  0.00  0.00     0.195 C 
BRANCH  19  20
HETATM   20  N   UNK N   1      34.379  14.984  10.560  0.00  0.00    -0.284 N 
HETATM   21  C   UNK N   1      34.787  15.287   9.319  0.00  0.00     0.201 A 
HETATM   22  N   UNK N   1      33.717  15.500   8.527  0.00  0.00    -0.346 N 
HETATM   23  C   UNK N   1      32.653  15.299   9.336  0.00  0.00     0.198 A 
ATOM     24  HN  UNK N   1      33.711  15.754   7.539  1.00  0.00     0.167 HD
HETATM   25  N   UNK N   1      33.061  14.978  10.579  0.00  0.00    -0.293 N 
ATOM     26  HN  UNK N   1      32.465  14.772  11.381  1.00  0.00     0.188 HD
ENDBRANCH  19  20
ENDBRANCH   1  19
BRANCH   1  27
HETATM   27  O   UNK N   1      34.199  12.493  11.419  0.00  0.00    -0.381 OA
HETATM   28  H   UNK N   1      33.351  12.333  10.975  0.00  0.00     0.211 HD
ENDBRANCH   1  27
TORSDOF 6
ENDMDL
MODEL 8
REMARK VINA RESULT:      -5.9     12.680     14.534
REMARK  6 active torsions:
REMARK  status: ('A' for Active; 'I' for Inactive)
REMARK    1  A    between atoms: C_6  and  C_9 
REMARK    2  A    between atoms: C_9  and  C_10 
REMARK    3  A    between atoms: C_9  and  C_11 
REMARK    4  A    between atoms: C_9  and  O_27 
REMARK    5  A    between atoms: C_10  and  N_12 
REMARK    6  A    between atoms: C_11  and  N_14 
ROOT
HETATM    1  C   UNK N   1      28.318  17.326   4.496  0.00  0.00     0.136 C 
ENDROOT
BRANCH   1   2
HETATM    2  C   UNK N   1      27.645  18.620   5.008  0.00  0.00     0.019 A 
HETATM    3  C   UNK N   1      26.549  19.270   4.362  0.00  0.00     0.128 A 
HETATM    4  C   UNK N   1      26.016  20.449   4.894  0.00  0.00     0.085 A 
HETATM    5  F   UNK N   1      25.982  18.793   3.228  0.00  0.00    -0.205 F 
HETATM    6  C   UNK N   1      26.540  21.004   6.058  0.00  0.00     0.119 A 
HETATM    7  C   UNK N   1      27.595  20.377   6.710  0.00  0.00     0.043 A 
HETATM    8  F   UNK N   1      26.022  22.153   6.554  0.00  0.00    -0.206 F 
HETATM    9  C   UNK N   1      28.132  19.199   6.193  0.00  0.00     0.016 A 
ENDBRANCH   1   2
BRANCH   1  10
HETATM   10  C   UNK N   1      27.269  16.148   4.534  0.00  0.00     0.259 C 
HETATM   11  C   UNK N   1      26.717  15.804   5.924  0.00  0.00     0.046 C 
BRANCH  10  12
HETATM   12  N   UNK N   1      27.676  14.957   3.734  0.00  0.00     0.096 N 
HETATM   13  C   UNK N   1      26.995  13.687   4.072  0.00  0.00     0.277 C 
HETATM   14  C   UNK N   1      25.504  13.707   3.705  0.00  0.00     0.063 C 
HETATM   15  C   UNK N   1      25.362  14.138   2.284  0.00  0.00    -0.086 C 
HETATM   16  C   UNK N   1      26.109  15.348   1.840  0.00  0.00     0.063 C 
HETATM   17  C   UNK N   1      24.731  13.369   1.402  0.00  0.00     0.014 C 
HETATM   18  C   UNK N   1      27.566  15.194   2.286  0.00  0.00     0.277 C 
ENDBRANCH  10  12
ENDBRANCH   1  10
BRANCH   1  19
HETATM   19  C   UNK N   1      29.585  17.016   5.332  0.00  0.00     0.195 C 
BRANCH  19  20
HETATM   20  N   UNK N   1      30.811  16.807   4.566  0.00  0.00    -0.284 N 
HETATM   21  C   UNK N   1      31.383  15.618   4.327  0.00  0.00     0.201 A 
HETATM   22  N   UNK N   1      32.450  15.781   3.520  0.00  0.00    -0.346 N 
HETATM   23  C   UNK N   1      32.487  17.109   3.272  0.00  0.00     0.198 A 
ATOM     24  HN  UNK N   1      33.087  15.063   3.173  1.00  0.00     0.167 HD
HETATM   25  N   UNK N   1      31.478  17.735   3.909  0.00  0.00    -0.293 N 
ATOM     26  HN  UNK N   1      31.272  18.734   3.889  1.00  0.00     0.188 HD
ENDBRANCH  19  20
ENDBRANCH   1  19
BRANCH   1  27
HETATM   27  O   UNK N   1      28.729  17.546   3.175  0.00  0.00    -0.381 OA
HETATM   28  H   UNK N   1      29.254  17.732   2.381  0.00  0.00     0.211 HD
ENDBRANCH   1  27
TORSDOF 6
ENDMDL
MODEL 9
REMARK VINA RESULT:      -5.9      9.699     11.721
REMARK  6 active torsions:
REMARK  status: ('A' for Active; 'I' for Inactive)
REMARK    1  A    between atoms: C_6  and  C_9 
REMARK    2  A    between atoms: C_9  and  C_10 
REMARK    3  A    between atoms: C_9  and  C_11 
REMARK    4  A    between atoms: C_9  and  O_27 
REMARK    5  A    between atoms: C_10  and  N_12 
REMARK    6  A    between atoms: C_11  and  N_14 
ROOT
HETATM    1  C   UNK N   1      29.826  16.494   5.428  0.00  0.00     0.136 C 
ENDROOT
BRANCH   1   2
HETATM    2  C   UNK N   1      29.747  17.168   6.818  0.00  0.00     0.019 A 
HETATM    3  C   UNK N   1      28.530  17.437   7.515  0.00  0.00     0.128 A 
HETATM    4  C   UNK N   1      28.557  18.067   8.764  0.00  0.00     0.085 A 
HETATM    5  F   UNK N   1      27.313  17.108   7.018  0.00  0.00    -0.205 F 
HETATM    6  C   UNK N   1      29.766  18.436   9.347  0.00  0.00     0.119 A 
HETATM    7  C   UNK N   1      30.962  18.167   8.691  0.00  0.00     0.043 A 
HETATM    8  F   UNK N   1      29.777  19.057  10.551  0.00  0.00    -0.206 F 
HETATM    9  C   UNK N   1      30.948  17.536   7.448  0.00  0.00     0.016 A 
ENDBRANCH   1   2
BRANCH   1  10
HETATM   10  C   UNK N   1      31.341  16.296   5.036  0.00  0.00     0.259 C 
HETATM   11  C   UNK N   1      31.815  17.097   3.817  0.00  0.00     0.046 C 
BRANCH  10  12
HETATM   12  N   UNK N   1      31.775  14.869   5.027  0.00  0.00     0.096 N 
HETATM   13  C   UNK N   1      32.702  14.481   3.940  0.00  0.00     0.277 C 
HETATM   14  C   UNK N   1      34.082  15.137   4.086  0.00  0.00     0.063 C 
HETATM   15  C   UNK N   1      34.592  14.886   5.465  0.00  0.00    -0.086 C 
HETATM   16  C   UNK N   1      33.676  15.148   6.610  0.00  0.00     0.063 C 
HETATM   17  C   UNK N   1      35.762  14.285   5.657  0.00  0.00     0.014 C 
HETATM   18  C   UNK N   1      32.344  14.452   6.319  0.00  0.00     0.277 C 
ENDBRANCH  10  12
ENDBRANCH   1  10
BRANCH   1  19
HETATM   19  C   UNK N   1      29.050  17.335   4.383  0.00  0.00     0.195 C 
BRANCH  19  20
HETATM   20  N   UNK N   1      28.056  16.606   3.599  0.00  0.00    -0.284 N 
HETATM   21  C   UNK N   1      26.746  16.887   3.554  0.00  0.00     0.201 A 
HETATM   22  N   UNK N   1      26.136  16.072   2.670  0.00  0.00    -0.346 N 
HETATM   23  C   UNK N   1      27.132  15.303   2.178  0.00  0.00     0.198 A 
ATOM     24  HN  UNK N   1      25.146  16.043   2.428  1.00  0.00     0.167 HD
HETATM   25  N   UNK N   1      28.308  15.636   2.744  0.00  0.00    -0.293 N 
ATOM     26  HN  UNK N   1      29.218  15.216   2.550  1.00  0.00     0.188 HD
ENDBRANCH  19  20
ENDBRANCH   1  19
BRANCH   1  27
HETATM   27  O   UNK N   1      29.195  15.247   5.516  0.00  0.00    -0.381 OA
HETATM   28  H   UNK N   1      28.595  14.520   5.745  0.00  0.00     0.211 HD
ENDBRANCH   1  27
TORSDOF 6
ENDMDL
