MODEL 1
REMARK VINA RESULT:      -6.4      0.000      0.000
REMARK  5 active torsions:
REMARK  status: ('A' for Active; 'I' for Inactive)
REMARK    1  A    between atoms: C_15  and  C_2 
REMARK    2  A    between atoms: C_10  and  C_9 
REMARK    3  A    between atoms: N_16  and  C_9 
REMARK    4  A    between atoms: C_13  and  C_11 
REMARK    5  A    between atoms: O_18  and  C_15 
ROOT
HETATM    1  C   UNK N   1      28.583  16.807   6.760  0.00  0.00     0.016 A 
HETATM    2  C   UNK N   1      28.741  17.638   8.002  0.00  0.00     0.012 A 
HETATM    3  C   UNK N   1      29.943  16.859   7.458  0.00  0.00     0.025 A 
ENDROOT
BRANCH   3   4
HETATM    4  C   UNK N   1      31.031  17.207   6.458  0.00  0.00    -0.044 A 
HETATM    5  C   UNK N   1      30.855  17.120   5.056  0.00  0.00     0.008 A 
HETATM    6  C   UNK N   1      31.953  17.298   4.187  0.00  0.00     0.003 A 
HETATM    7  C   UNK N   1      33.232  17.552   4.707  0.00  0.00     0.037 A 
HETATM    8  C   UNK N   1      33.374  17.641   6.091  0.00  0.00     0.075 A 
HETATM    9  C   UNK N   1      32.323  17.481   6.931  0.00  0.00    -0.016 A 
HETATM   10  O   UNK N   1      34.510  17.863   6.743  0.00  0.00    -0.350 OA
HETATM   11  C   UNK N   1      32.790  17.600   8.334  0.00  0.00     0.068 A 
HETATM   12  C   UNK N   1      34.307  17.873   8.117  0.00  0.00     0.180 A 
ENDBRANCH   3   4
BRANCH   2  13
HETATM   13  C   UNK N   1      28.426  19.102   7.715  0.00  0.00     0.126 C 
BRANCH  13  14
HETATM   14  N   UNK N   1      27.365  19.150   6.719  0.00  0.00    -0.374 N 
HETATM   15  C   UNK N   1      27.080  20.220   6.054  0.00  0.00     0.110 C 
ATOM     16  HN  UNK N   1      26.826  18.303   6.539  1.00  0.00     0.161 HD
BRANCH  15  17
HETATM   17  C   UNK N   1      26.040  20.160   4.970  0.00  0.00     0.079 C 
HETATM   18  C   UNK N   1      26.656  20.183   3.578  0.00  0.00     0.013 C 
ENDBRANCH  15  17
BRANCH  15  19
HETATM   19  O   UNK N   1      27.725  21.379   6.312  0.00  0.00    -0.350 OA
HETATM   20  H   UNK N   1      28.585  21.441   6.679  0.00  0.00     0.219 HD
ENDBRANCH  15  19
ENDBRANCH  13  14
ENDBRANCH   2  13
TORSDOF 5
ENDMDL
MODEL 2
REMARK VINA RESULT:      -6.2      3.588      7.265
REMARK  5 active torsions:
REMARK  status: ('A' for Active; 'I' for Inactive)
REMARK    1  A    between atoms: C_15  and  C_2 
REMARK    2  A    between atoms: C_10  and  C_9 
REMARK    3  A    between atoms: N_16  and  C_9 
REMARK    4  A    between atoms: C_13  and  C_11 
REMARK    5  A    between atoms: O_18  and  C_15 
ROOT
HETATM    1  C   UNK N   1      34.585  18.259   8.207  0.00  0.00     0.016 A 
HETATM    2  C   UNK N   1      34.113  17.228   9.194  0.00  0.00     0.012 A 
HETATM    3  C   UNK N   1      33.112  17.845   8.210  0.00  0.00     0.025 A 
ENDROOT
BRANCH   3   4
HETATM    4  C   UNK N   1      32.674  17.462   6.809  0.00  0.00    -0.044 A 
HETATM    5  C   UNK N   1      33.537  17.497   5.687  0.00  0.00     0.008 A 
HETATM    6  C   UNK N   1      33.027  17.289   4.388  0.00  0.00     0.003 A 
HETATM    7  C   UNK N   1      31.657  17.056   4.195  0.00  0.00     0.037 A 
HETATM    8  C   UNK N   1      30.831  17.017   5.318  0.00  0.00     0.075 A 
HETATM    9  C   UNK N   1      31.315  17.208   6.569  0.00  0.00    -0.016 A 
HETATM   10  O   UNK N   1      29.518  16.822   5.311  0.00  0.00    -0.350 OA
HETATM   11  C   UNK N   1      30.200  17.141   7.545  0.00  0.00     0.068 A 
HETATM   12  C   UNK N   1      28.997  16.862   6.598  0.00  0.00     0.180 A 
ENDBRANCH   3   4
BRANCH   2  13
HETATM   13  C   UNK N   1      34.857  15.913   8.997  0.00  0.00     0.126 C 
BRANCH  13  14
HETATM   14  N   UNK N   1      34.925  15.234  10.283  0.00  0.00    -0.374 N 
HETATM   15  C   UNK N   1      35.915  15.383  11.100  0.00  0.00     0.110 C 
ATOM     16  HN  UNK N   1      34.159  14.616  10.550  1.00  0.00     0.161 HD
BRANCH  15  17
HETATM   17  C   UNK N   1      35.862  14.728  12.452  0.00  0.00     0.079 C 
HETATM   18  C   UNK N   1      35.178  13.368  12.408  0.00  0.00     0.013 C 
ENDBRANCH  15  17
BRANCH  15  19
HETATM   19  O   UNK N   1      36.981  16.139  10.754  0.00  0.00    -0.350 OA
HETATM   20  H   UNK N   1      36.960  17.068  10.638  0.00  0.00     0.219 HD
ENDBRANCH  15  19
ENDBRANCH  13  14
ENDBRANCH   2  13
TORSDOF 5
ENDMDL
MODEL 3
REMARK VINA RESULT:      -6.0     10.743     14.583
REMARK  5 active torsions:
REMARK  status: ('A' for Active; 'I' for Inactive)
REMARK    1  A    between atoms: C_15  and  C_2 
REMARK    2  A    between atoms: C_10  and  C_9 
REMARK    3  A    between atoms: N_16  and  C_9 
REMARK    4  A    between atoms: C_13  and  C_11 
REMARK    5  A    between atoms: O_18  and  C_15 
ROOT
HETATM    1  C   UNK N   1      26.629  25.491  -3.447  0.00  0.00     0.016 A 
HETATM    2  C   UNK N   1      27.390  24.200  -3.340  0.00  0.00     0.012 A 
HETATM    3  C   UNK N   1      26.265  24.329  -4.372  0.00  0.00     0.025 A 
ENDROOT
BRANCH   3   4
HETATM    4  C   UNK N   1      26.238  24.797  -5.815  0.00  0.00    -0.044 A 
HETATM    5  C   UNK N   1      26.463  26.140  -6.202  0.00  0.00     0.008 A 
HETATM    6  C   UNK N   1      26.261  26.541  -7.540  0.00  0.00     0.003 A 
HETATM    7  C   UNK N   1      25.825  25.613  -8.498  0.00  0.00     0.037 A 
HETATM    8  C   UNK N   1      25.620  24.295  -8.092  0.00  0.00     0.075 A 
HETATM    9  C   UNK N   1      25.820  23.901  -6.811  0.00  0.00    -0.016 A 
HETATM   10  O   UNK N   1      25.198  23.301  -8.864  0.00  0.00    -0.350 OA
HETATM   11  C   UNK N   1      25.492  22.461  -6.681  0.00  0.00     0.068 A 
HETATM   12  C   UNK N   1      25.081  22.120  -8.143  0.00  0.00     0.180 A 
ENDBRANCH   3   4
BRANCH   2  13
HETATM   13  C   UNK N   1      28.874  24.425  -3.609  0.00  0.00     0.126 C 
BRANCH  13  14
HETATM   14  N   UNK N   1      29.483  23.134  -3.895  0.00  0.00    -0.374 N 
HETATM   15  C   UNK N   1      30.210  22.499  -3.036  0.00  0.00     0.110 C 
ATOM     16  HN  UNK N   1      29.328  22.712  -4.811  1.00  0.00     0.161 HD
BRANCH  15  17
HETATM   17  C   UNK N   1      30.717  21.124  -3.371  0.00  0.00     0.079 C 
HETATM   18  C   UNK N   1      30.834  20.902  -4.873  0.00  0.00     0.013 C 
ENDBRANCH  15  17
BRANCH  15  19
HETATM   19  O   UNK N   1      30.494  23.053  -1.837  0.00  0.00    -0.350 OA
HETATM   20  H   UNK N   1      29.879  23.520  -1.306  0.00  0.00     0.219 HD
ENDBRANCH  15  19
ENDBRANCH  13  14
ENDBRANCH   2  13
TORSDOF 5
ENDMDL
MODEL 4
REMARK VINA RESULT:      -6.0      3.576      7.120
REMARK  5 active torsions:
REMARK  status: ('A' for Active; 'I' for Inactive)
REMARK    1  A    between atoms: C_15  and  C_2 
REMARK    2  A    between atoms: C_10  and  C_9 
REMARK    3  A    between atoms: N_16  and  C_9 
REMARK    4  A    between atoms: C_13  and  C_11 
REMARK    5  A    between atoms: O_18  and  C_15 
ROOT
HETATM    1  C   UNK N   1      34.175  17.923   7.696  0.00  0.00     0.016 A 
HETATM    2  C   UNK N   1      34.128  17.156   8.988  0.00  0.00     0.012 A 
HETATM    3  C   UNK N   1      32.879  17.902   8.508  0.00  0.00     0.025 A 
ENDROOT
BRANCH   3   4
HETATM    4  C   UNK N   1      31.713  17.501   7.623  0.00  0.00    -0.044 A 
HETATM    5  C   UNK N   1      31.865  17.084   6.279  0.00  0.00     0.008 A 
HETATM    6  C   UNK N   1      30.732  16.883   5.462  0.00  0.00     0.003 A 
HETATM    7  C   UNK N   1      29.444  17.105   5.972  0.00  0.00     0.037 A 
HETATM    8  C   UNK N   1      29.323  17.506   7.302  0.00  0.00     0.075 A 
HETATM    9  C   UNK N   1      30.406  17.692   8.095  0.00  0.00    -0.016 A 
HETATM   10  O   UNK N   1      28.185  17.769   7.935  0.00  0.00    -0.350 OA
HETATM   11  C   UNK N   1      29.963  18.144   9.437  0.00  0.00     0.068 A 
HETATM   12  C   UNK N   1      28.419  18.163   9.246  0.00  0.00     0.180 A 
ENDBRANCH   3   4
BRANCH   2  13
HETATM   13  C   UNK N   1      34.428  15.680   8.750  0.00  0.00     0.126 C 
BRANCH  13  14
HETATM   14  N   UNK N   1      35.056  15.146   9.951  0.00  0.00    -0.374 N 
HETATM   15  C   UNK N   1      34.377  14.741  10.973  0.00  0.00     0.110 C 
ATOM     16  HN  UNK N   1      36.074  15.089   9.985  1.00  0.00     0.161 HD
BRANCH  15  17
HETATM   17  C   UNK N   1      35.094  14.108  12.132  0.00  0.00     0.079 C 
HETATM   18  C   UNK N   1      36.081  15.063  12.790  0.00  0.00     0.013 C 
ENDBRANCH  15  17
BRANCH  15  19
HETATM   19  O   UNK N   1      33.031  14.863  10.993  0.00  0.00    -0.350 OA
HETATM   20  H   UNK N   1      32.456  14.344  11.520  0.00  0.00     0.219 HD
ENDBRANCH  15  19
ENDBRANCH  13  14
ENDBRANCH   2  13
TORSDOF 5
ENDMDL
MODEL 5
REMARK VINA RESULT:      -5.9      1.986      5.509
REMARK  5 active torsions:
REMARK  status: ('A' for Active; 'I' for Inactive)
REMARK    1  A    between atoms: C_15  and  C_2 
REMARK    2  A    between atoms: C_10  and  C_9 
REMARK    3  A    between atoms: N_16  and  C_9 
REMARK    4  A    between atoms: C_13  and  C_11 
REMARK    5  A    between atoms: O_18  and  C_15 
ROOT
HETATM    1  C   UNK N   1      29.748  18.135   9.441  0.00  0.00     0.016 A 
HETATM    2  C   UNK N   1      30.682  17.165   8.772  0.00  0.00     0.012 A 
HETATM    3  C   UNK N   1      29.270  17.364   8.209  0.00  0.00     0.025 A 
ENDROOT
BRANCH   3   4
HETATM    4  C   UNK N   1      28.695  18.323   7.183  0.00  0.00    -0.044 A 
HETATM    5  C   UNK N   1      28.106  19.564   7.523  0.00  0.00     0.008 A 
HETATM    6  C   UNK N   1      27.443  20.333   6.541  0.00  0.00     0.003 A 
HETATM    7  C   UNK N   1      27.354  19.867   5.220  0.00  0.00     0.037 A 
HETATM    8  C   UNK N   1      27.952  18.646   4.911  0.00  0.00     0.075 A 
HETATM    9  C   UNK N   1      28.597  17.908   5.846  0.00  0.00    -0.016 A 
HETATM   10  O   UNK N   1      27.950  18.059   3.720  0.00  0.00    -0.350 OA
HETATM   11  C   UNK N   1      29.097  16.655   5.228  0.00  0.00     0.068 A 
HETATM   12  C   UNK N   1      28.617  16.841   3.759  0.00  0.00     0.180 A 
ENDBRANCH   3   4
BRANCH   2  13
HETATM   13  C   UNK N   1      31.941  17.875   8.288  0.00  0.00     0.126 C 
BRANCH  13  14
HETATM   14  N   UNK N   1      32.214  17.434   6.928  0.00  0.00    -0.374 N 
HETATM   15  C   UNK N   1      33.374  17.559   6.373  0.00  0.00     0.110 C 
ATOM     16  HN  UNK N   1      31.458  17.007   6.391  1.00  0.00     0.161 HD
BRANCH  15  17
HETATM   17  C   UNK N   1      33.603  16.985   5.003  0.00  0.00     0.079 C 
HETATM   18  C   UNK N   1      32.529  17.411   4.012  0.00  0.00     0.013 C 
ENDBRANCH  15  17
BRANCH  15  19
HETATM   19  O   UNK N   1      34.382  18.179   7.025  0.00  0.00    -0.350 OA
HETATM   20  H   UNK N   1      35.209  17.786   7.227  0.00  0.00     0.219 HD
ENDBRANCH  15  19
ENDBRANCH  13  14
ENDBRANCH   2  13
TORSDOF 5
ENDMDL
MODEL 6
REMARK VINA RESULT:      -5.8     10.010     12.567
REMARK  5 active torsions:
REMARK  status: ('A' for Active; 'I' for Inactive)
REMARK    1  A    between atoms: C_15  and  C_2 
REMARK    2  A    between atoms: C_10  and  C_9 
REMARK    3  A    between atoms: N_16  and  C_9 
REMARK    4  A    between atoms: C_13  and  C_11 
REMARK    5  A    between atoms: O_18  and  C_15 
ROOT
HETATM    1  C   UNK N   1      34.622   9.910  13.722  0.00  0.00     0.016 A 
HETATM    2  C   UNK N   1      34.431  11.374  13.442  0.00  0.00     0.012 A 
HETATM    3  C   UNK N   1      33.987  10.800  14.792  0.00  0.00     0.025 A 
ENDROOT
BRANCH   3   4
HETATM    4  C   UNK N   1      34.701  10.614  16.118  0.00  0.00    -0.044 A 
HETATM    5  C   UNK N   1      35.014   9.345  16.662  0.00  0.00     0.008 A 
HETATM    6  C   UNK N   1      35.528   9.237  17.972  0.00  0.00     0.003 A 
HETATM    7  C   UNK N   1      35.725  10.387  18.751  0.00  0.00     0.037 A 
HETATM    8  C   UNK N   1      35.417  11.625  18.187  0.00  0.00     0.075 A 
HETATM    9  C   UNK N   1      34.932  11.736  16.928  0.00  0.00    -0.016 A 
HETATM   10  O   UNK N   1      35.532  12.803  18.789  0.00  0.00    -0.350 OA
HETATM   11  C   UNK N   1      34.674  13.165  16.623  0.00  0.00     0.068 A 
HETATM   12  C   UNK N   1      35.124  13.835  17.954  0.00  0.00     0.180 A 
ENDBRANCH   3   4
BRANCH   2  13
HETATM   13  C   UNK N   1      35.769  12.048  13.159  0.00  0.00     0.126 C 
BRANCH  13  14
HETATM   14  N   UNK N   1      35.512  13.261  12.396  0.00  0.00    -0.374 N 
HETATM   15  C   UNK N   1      36.042  14.401  12.695  0.00  0.00     0.110 C 
ATOM     16  HN  UNK N   1      34.888  13.208  11.590  1.00  0.00     0.161 HD
BRANCH  15  17
HETATM   17  C   UNK N   1      35.809  15.583  11.797  0.00  0.00     0.079 C 
HETATM   18  C   UNK N   1      34.625  15.373  10.863  0.00  0.00     0.013 C 
ENDBRANCH  15  17
BRANCH  15  19
HETATM   19  O   UNK N   1      36.820  14.526  13.793  0.00  0.00    -0.350 OA
HETATM   20  H   UNK N   1      37.486  13.918  14.047  0.00  0.00     0.219 HD
ENDBRANCH  15  19
ENDBRANCH  13  14
ENDBRANCH   2  13
TORSDOF 5
ENDMDL
MODEL 7
REMARK VINA RESULT:      -5.7      7.070      9.677
REMARK  5 active torsions:
REMARK  status: ('A' for Active; 'I' for Inactive)
REMARK    1  A    between atoms: C_15  and  C_2 
REMARK    2  A    between atoms: C_10  and  C_9 
REMARK    3  A    between atoms: N_16  and  C_9 
REMARK    4  A    between atoms: C_13  and  C_11 
REMARK    5  A    between atoms: O_18  and  C_15 
ROOT
HETATM    1  C   UNK N   1      36.417  14.230  11.136  0.00  0.00     0.016 A 
HETATM    2  C   UNK N   1      34.982  14.031  10.733  0.00  0.00     0.012 A 
HETATM    3  C   UNK N   1      35.600  13.118  11.798  0.00  0.00     0.025 A 
ENDROOT
BRANCH   3   4
HETATM    4  C   UNK N   1      35.705  13.221  13.309  0.00  0.00    -0.044 A 
HETATM    5  C   UNK N   1      36.531  14.162  13.969  0.00  0.00     0.008 A 
HETATM    6  C   UNK N   1      36.710  14.098  15.367  0.00  0.00     0.003 A 
HETATM    7  C   UNK N   1      36.080  13.091  16.115  0.00  0.00     0.037 A 
HETATM    8  C   UNK N   1      35.265  12.183  15.441  0.00  0.00     0.075 A 
HETATM    9  C   UNK N   1      35.081  12.245  14.100  0.00  0.00    -0.016 A 
HETATM   10  O   UNK N   1      34.609  11.169  15.992  0.00  0.00    -0.350 OA
HETATM   11  C   UNK N   1      34.194  11.135  13.672  0.00  0.00     0.068 A 
HETATM   12  C   UNK N   1      33.905  10.446  15.037  0.00  0.00     0.180 A 
ENDBRANCH   3   4
BRANCH   2  13
HETATM   13  C   UNK N   1      34.166  15.290  11.005  0.00  0.00     0.126 C 
BRANCH  13  14
HETATM   14  N   UNK N   1      33.965  15.981   9.739  0.00  0.00    -0.374 N 
HETATM   15  C   UNK N   1      34.646  17.024   9.397  0.00  0.00     0.110 C 
ATOM     16  HN  UNK N   1      33.257  15.625   9.096  1.00  0.00     0.161 HD
BRANCH  15  17
HETATM   17  C   UNK N   1      34.450  17.617   8.030  0.00  0.00     0.079 C 
HETATM   18  C   UNK N   1      33.023  18.102   7.811  0.00  0.00     0.013 C 
ENDBRANCH  15  17
BRANCH  15  19
HETATM   19  O   UNK N   1      35.545  17.565  10.248  0.00  0.00    -0.350 OA
HETATM   20  H   UNK N   1      36.122  18.272  10.036  0.00  0.00     0.219 HD
ENDBRANCH  15  19
ENDBRANCH  13  14
ENDBRANCH   2  13
TORSDOF 5
ENDMDL
MODEL 8
REMARK VINA RESULT:      -5.7      2.577      6.217
REMARK  5 active torsions:
REMARK  status: ('A' for Active; 'I' for Inactive)
REMARK    1  A    between atoms: C_15  and  C_2 
REMARK    2  A    between atoms: C_10  and  C_9 
REMARK    3  A    between atoms: N_16  and  C_9 
REMARK    4  A    between atoms: C_13  and  C_11 
REMARK    5  A    between atoms: O_18  and  C_15 
ROOT
HETATM    1  C   UNK N   1      29.068  18.427   9.414  0.00  0.00     0.016 A 
HETATM    2  C   UNK N   1      30.087  17.402   9.003  0.00  0.00     0.012 A 
HETATM    3  C   UNK N   1      28.794  17.547   8.194  0.00  0.00     0.025 A 
ENDROOT
BRANCH   3   4
HETATM    4  C   UNK N   1      28.413  18.407   7.003  0.00  0.00    -0.044 A 
HETATM    5  C   UNK N   1      27.867  19.707   7.125  0.00  0.00     0.008 A 
HETATM    6  C   UNK N   1      27.382  20.388   5.988  0.00  0.00     0.003 A 
HETATM    7  C   UNK N   1      27.427  19.776   4.726  0.00  0.00     0.037 A 
HETATM    8  C   UNK N   1      27.978  18.499   4.632  0.00  0.00     0.075 A 
HETATM    9  C   UNK N   1      28.454  17.843   5.719  0.00  0.00    -0.016 A 
HETATM   10  O   UNK N   1      28.085  17.777   3.523  0.00  0.00    -0.350 OA
HETATM   11  C   UNK N   1      28.944  16.504   5.311  0.00  0.00     0.068 A 
HETATM   12  C   UNK N   1      28.663  16.541   3.781  0.00  0.00     0.180 A 
ENDBRANCH   3   4
BRANCH   2  13
HETATM   13  C   UNK N   1      31.419  18.067   8.676  0.00  0.00     0.126 C 
BRANCH  13  14
HETATM   14  N   UNK N   1      32.484  17.123   8.984  0.00  0.00    -0.374 N 
HETATM   15  C   UNK N   1      33.729  17.368   8.737  0.00  0.00     0.110 C 
ATOM     16  HN  UNK N   1      32.237  16.230   9.413  1.00  0.00     0.161 HD
BRANCH  15  17
HETATM   17  C   UNK N   1      34.777  16.386   9.179  0.00  0.00     0.079 C 
HETATM   18  C   UNK N   1      35.276  16.670  10.589  0.00  0.00     0.013 C 
ENDBRANCH  15  17
BRANCH  15  19
HETATM   19  O   UNK N   1      34.090  18.509   8.110  0.00  0.00    -0.350 OA
HETATM   20  H   UNK N   1      34.232  18.588   7.187  0.00  0.00     0.219 HD
ENDBRANCH  15  19
ENDBRANCH  13  14
ENDBRANCH   2  13
TORSDOF 5
ENDMDL
MODEL 9
REMARK VINA RESULT:      -5.6      2.272      6.421
REMARK  5 active torsions:
REMARK  status: ('A' for Active; 'I' for Inactive)
REMARK    1  A    between atoms: C_15  and  C_2 
REMARK    2  A    between atoms: C_10  and  C_9 
REMARK    3  A    between atoms: N_16  and  C_9 
REMARK    4  A    between atoms: C_13  and  C_11 
REMARK    5  A    between atoms: O_18  and  C_15 
ROOT
HETATM    1  C   UNK N   1      32.153  15.619   6.596  0.00  0.00     0.016 A 
HETATM    2  C   UNK N   1      32.657  16.620   5.594  0.00  0.00     0.012 A 
HETATM    3  C   UNK N   1      31.163  16.580   5.934  0.00  0.00     0.025 A 
ENDROOT
BRANCH   3   4
HETATM    4  C   UNK N   1      30.327  17.279   6.990  0.00  0.00    -0.044 A 
HETATM    5  C   UNK N   1      30.517  17.094   8.381  0.00  0.00     0.008 A 
HETATM    6  C   UNK N   1      29.602  17.642   9.305  0.00  0.00     0.003 A 
HETATM    7  C   UNK N   1      28.489  18.368   8.853  0.00  0.00     0.037 A 
HETATM    8  C   UNK N   1      28.331  18.542   7.479  0.00  0.00     0.075 A 
HETATM    9  C   UNK N   1      29.210  18.026   6.586  0.00  0.00    -0.016 A 
HETATM   10  O   UNK N   1      27.333  19.188   6.886  0.00  0.00    -0.350 OA
HETATM   11  C   UNK N   1      28.762  18.349   5.209  0.00  0.00     0.068 A 
HETATM   12  C   UNK N   1      27.467  19.160   5.504  0.00  0.00     0.180 A 
ENDBRANCH   3   4
BRANCH   2  13
HETATM   13  C   UNK N   1      33.688  17.546   6.228  0.00  0.00     0.126 C 
BRANCH  13  14
HETATM   14  N   UNK N   1      34.121  16.949   7.484  0.00  0.00    -0.374 N 
HETATM   15  C   UNK N   1      34.643  17.640   8.442  0.00  0.00     0.110 C 
ATOM     16  HN  UNK N   1      34.004  15.943   7.613  1.00  0.00     0.161 HD
BRANCH  15  17
HETATM   17  C   UNK N   1      34.968  16.966   9.746  0.00  0.00     0.079 C 
HETATM   18  C   UNK N   1      34.219  15.652   9.919  0.00  0.00     0.013 C 
ENDBRANCH  15  17
BRANCH  15  19
HETATM   19  O   UNK N   1      34.876  18.962   8.285  0.00  0.00    -0.350 OA
HETATM   20  H   UNK N   1      34.288  19.642   8.550  0.00  0.00     0.219 HD
ENDBRANCH  15  19
ENDBRANCH  13  14
ENDBRANCH   2  13
TORSDOF 5
ENDMDL
