MODEL 1
REMARK VINA RESULT:      -7.7      0.000      0.000
REMARK  9 active torsions:
REMARK  status: ('A' for Active; 'I' for Inactive)
REMARK    1  A    between atoms: N_27  and  C_11 
REMARK    2  A    between atoms: O_33  and  C_12 
REMARK    3  A    between atoms: C_20  and  C_14 
REMARK    4  A    between atoms: N_29  and  C_16 
REMARK    5  A    between atoms: O_33  and  C_18 
REMARK    6  A    between atoms: O_32  and  C_19 
REMARK    7  A    between atoms: O_30  and  C_20 
REMARK    8  A    between atoms: N_29  and  C_21 
REMARK    9  A    between atoms: O_31  and  C_21 
ROOT
HETATM    1  C   UNK N   1      33.096  16.969   4.728  0.00  0.00     0.055 A 
HETATM    2  C   UNK N   1      32.209  16.567   3.725  0.00  0.00     0.091 A 
HETATM    3  C   UNK N   1      30.728  17.360   7.541  0.00  0.00     0.035 A 
HETATM    4  C   UNK N   1      29.012  16.609   5.471  0.00  0.00     0.068 A 
HETATM    5  C   UNK N   1      31.246  17.091   6.274  0.00  0.00     0.026 A 
HETATM    6  C   UNK N   1      29.357  17.262   7.799  0.00  0.00     0.049 A 
HETATM    7  C   UNK N   1      30.383  16.706   5.232  0.00  0.00     0.047 A 
HETATM    8  C   UNK N   1      32.613  17.240   6.018  0.00  0.00     0.089 A 
HETATM    9  C   UNK N   1      28.482  16.889   6.746  0.00  0.00     0.085 A 
HETATM   10  N   UNK N   1      30.879  16.452   3.992  0.00  0.00    -0.365 N 
ATOM     11  HN  UNK N   1      30.243  16.171   3.247  1.00  0.00     0.165 HD
ENDROOT
BRANCH   8  12
HETATM   12  O   UNK N   1      33.426  17.673   7.022  0.00  0.00    -0.310 OA
BRANCH  12  13
HETATM   13  C   UNK N   1      34.039  16.900   7.955  0.00  0.00     0.077 A 
HETATM   14  C   UNK N   1      34.452  17.490   9.152  0.00  0.00     0.039 A 
HETATM   15  C   UNK N   1      35.178  16.751  10.089  0.00  0.00     0.034 A 
HETATM   16  C   UNK N   1      35.488  15.408   9.849  0.00  0.00     0.057 A 
HETATM   17  C   UNK N   1      35.071  14.807   8.637  0.00  0.00     0.063 A 
HETATM   18  C   UNK N   1      34.360  15.560   7.708  0.00  0.00     0.063 A 
HETATM   19 Cl   UNK N   1      35.489  13.160   8.187  0.00  0.00    -0.082 Cl
BRANCH  16  20
HETATM   20  N   UNK N   1      36.258  14.705  10.816  0.00  0.00    -0.321 N 
HETATM   21  H   UNK N   1      37.197  14.500  10.605  0.00  0.00     0.169 HD
BRANCH  20  22
HETATM   22  C   UNK N   1      35.743  14.282  12.068  0.00  0.00     0.217 C 
HETATM   23  N   UNK N   1      36.446  14.429  13.139  0.00  0.00    -0.352 N 
ATOM     24  HN  UNK N   1      37.366  14.865  13.063  1.00  0.00     0.163 HD
BRANCH  23  25
HETATM   25  C   UNK N   1      35.987  14.007  14.436  0.00  0.00     0.085 A 
HETATM   26  C   UNK N   1      37.030  14.348  15.482  0.00  0.00     0.027 A 
HETATM   27  C   UNK N   1      36.921  12.934  14.955  0.00  0.00     0.027 A 
ENDBRANCH  23  25
BRANCH  22  28
HETATM   28  O   UNK N   1      34.529  13.694  12.120  0.00  0.00    -0.333 OA
HETATM   29  H   UNK N   1      33.839  13.693  12.754  0.00  0.00     0.220 HD
ENDBRANCH  22  28
ENDBRANCH  20  22
ENDBRANCH  16  20
ENDBRANCH  12  13
ENDBRANCH   8  12
BRANCH   6  30
HETATM   30  C   UNK N   1      28.888  17.567   9.177  0.00  0.00     0.146 C 
HETATM   31  N   UNK N   1      29.632  17.346  10.198  0.00  0.00    -0.379 N 
HETATM   32  H   UNK N   1      30.499  16.886  10.120  0.00  0.00     0.158 HD
ATOM     33  HN  UNK N   1      29.316  17.656  11.116  1.00  0.00     0.158 HD
BRANCH  30  34
HETATM   34  O   UNK N   1      27.658  18.089   9.363  0.00  0.00    -0.346 OA
HETATM   35  H   UNK N   1      27.210  17.977  10.178  0.00  0.00     0.219 HD
ENDBRANCH  30  34
ENDBRANCH   6  30
BRANCH   9  36
HETATM   36  O   UNK N   1      27.146  16.807   6.969  0.00  0.00    -0.355 OA
HETATM   37  C   UNK N   1      26.416  15.655   6.791  0.00  0.00     0.210 C 
ENDBRANCH   9  36
TORSDOF 9
ENDMDL
MODEL 2
REMARK VINA RESULT:      -7.6      2.098      2.418
REMARK  9 active torsions:
REMARK  status: ('A' for Active; 'I' for Inactive)
REMARK    1  A    between atoms: N_27  and  C_11 
REMARK    2  A    between atoms: O_33  and  C_12 
REMARK    3  A    between atoms: C_20  and  C_14 
REMARK    4  A    between atoms: N_29  and  C_16 
REMARK    5  A    between atoms: O_33  and  C_18 
REMARK    6  A    between atoms: O_32  and  C_19 
REMARK    7  A    between atoms: O_30  and  C_20 
REMARK    8  A    between atoms: N_29  and  C_21 
REMARK    9  A    between atoms: O_31  and  C_21 
ROOT
HETATM    1  C   UNK N   1      31.502  15.411   4.111  0.00  0.00     0.055 A 
HETATM    2  C   UNK N   1      31.003  16.223   3.089  0.00  0.00     0.091 A 
HETATM    3  C   UNK N   1      29.575  16.746   6.971  0.00  0.00     0.035 A 
HETATM    4  C   UNK N   1      28.670  18.367   4.886  0.00  0.00     0.068 A 
HETATM    5  C   UNK N   1      30.060  16.548   5.678  0.00  0.00     0.026 A 
HETATM    6  C   UNK N   1      28.639  17.747   7.248  0.00  0.00     0.049 A 
HETATM    7  C   UNK N   1      29.599  17.360   4.626  0.00  0.00     0.047 A 
HETATM    8  C   UNK N   1      31.031  15.574   5.424  0.00  0.00     0.089 A 
HETATM    9  C   UNK N   1      28.184  18.578   6.192  0.00  0.00     0.085 A 
HETATM   10  N   UNK N   1      30.075  17.180   3.365  0.00  0.00    -0.365 N 
ATOM     11  HN  UNK N   1      29.731  17.773   2.611  1.00  0.00     0.165 HD
ENDROOT
BRANCH   8  12
HETATM   12  O   UNK N   1      31.511  14.837   6.465  0.00  0.00    -0.310 OA
BRANCH  12  13
HETATM   13  C   UNK N   1      32.379  15.259   7.420  0.00  0.00     0.077 A 
HETATM   14  C   UNK N   1      32.481  14.527   8.606  0.00  0.00     0.039 A 
HETATM   15  C   UNK N   1      33.285  14.989   9.652  0.00  0.00     0.034 A 
HETATM   16  C   UNK N   1      34.008  16.179   9.521  0.00  0.00     0.057 A 
HETATM   17  C   UNK N   1      33.907  16.922   8.319  0.00  0.00     0.063 A 
HETATM   18  C   UNK N   1      33.092  16.457   7.292  0.00  0.00     0.063 A 
HETATM   19 Cl   UNK N   1      34.691  18.477   8.082  0.00  0.00    -0.082 Cl
BRANCH  16  20
HETATM   20  N   UNK N   1      34.786  16.627  10.623  0.00  0.00    -0.321 N 
HETATM   21  H   UNK N   1      34.629  17.536  10.965  0.00  0.00     0.169 HD
BRANCH  20  22
HETATM   22  C   UNK N   1      35.778  15.834  11.254  0.00  0.00     0.217 C 
HETATM   23  N   UNK N   1      35.445  14.995  12.175  0.00  0.00    -0.352 N 
ATOM     24  HN  UNK N   1      34.460  14.910  12.425  1.00  0.00     0.163 HD
BRANCH  23  25
HETATM   25  C   UNK N   1      36.406  14.173  12.864  0.00  0.00     0.085 A 
HETATM   26  C   UNK N   1      35.721  13.424  13.991  0.00  0.00     0.027 A 
HETATM   27  C   UNK N   1      36.532  14.667  14.290  0.00  0.00     0.027 A 
ENDBRANCH  23  25
BRANCH  22  28
HETATM   28  O   UNK N   1      37.073  15.992  10.905  0.00  0.00    -0.333 OA
HETATM   29  H   UNK N   1      37.629  15.567  10.283  0.00  0.00     0.220 HD
ENDBRANCH  22  28
ENDBRANCH  20  22
ENDBRANCH  16  20
ENDBRANCH  12  13
ENDBRANCH   8  12
BRANCH   6  30
HETATM   30  C   UNK N   1      28.175  17.892   8.654  0.00  0.00     0.146 C 
HETATM   31  N   UNK N   1      28.557  18.876   9.383  0.00  0.00    -0.379 N 
HETATM   32  H   UNK N   1      29.237  19.518   9.076  0.00  0.00     0.158 HD
ATOM     33  HN  UNK N   1      28.144  18.996  10.308  1.00  0.00     0.158 HD
BRANCH  30  34
HETATM   34  O   UNK N   1      27.333  16.977   9.177  0.00  0.00    -0.346 OA
HETATM   35  H   UNK N   1      26.420  17.164   9.267  0.00  0.00     0.219 HD
ENDBRANCH  30  34
ENDBRANCH   6  30
BRANCH   9  36
HETATM   36  O   UNK N   1      27.291  19.570   6.442  0.00  0.00    -0.355 OA
HETATM   37  C   UNK N   1      26.284  19.919   5.573  0.00  0.00     0.210 C 
ENDBRANCH   9  36
TORSDOF 9
ENDMDL
MODEL 3
REMARK VINA RESULT:      -7.6      3.533      9.633
REMARK  9 active torsions:
REMARK  status: ('A' for Active; 'I' for Inactive)
REMARK    1  A    between atoms: N_27  and  C_11 
REMARK    2  A    between atoms: O_33  and  C_12 
REMARK    3  A    between atoms: C_20  and  C_14 
REMARK    4  A    between atoms: N_29  and  C_16 
REMARK    5  A    between atoms: O_33  and  C_18 
REMARK    6  A    between atoms: O_32  and  C_19 
REMARK    7  A    between atoms: O_30  and  C_20 
REMARK    8  A    between atoms: N_29  and  C_21 
REMARK    9  A    between atoms: O_31  and  C_21 
ROOT
HETATM    1  C   UNK N   1      34.772  11.260  12.608  0.00  0.00     0.055 A 
HETATM    2  C   UNK N   1      34.068  10.422  13.476  0.00  0.00     0.091 A 
HETATM    3  C   UNK N   1      36.112  13.701  15.041  0.00  0.00     0.035 A 
HETATM    4  C   UNK N   1      34.634  12.013  16.703  0.00  0.00     0.068 A 
HETATM    5  C   UNK N   1      35.442  12.604  14.497  0.00  0.00     0.026 A 
HETATM    6  C   UNK N   1      36.057  13.976  16.411  0.00  0.00     0.049 A 
HETATM    7  C   UNK N   1      34.703  11.749  15.335  0.00  0.00     0.047 A 
HETATM    8  C   UNK N   1      35.466  12.369  13.119  0.00  0.00     0.089 A 
HETATM    9  C   UNK N   1      35.301  13.124  17.257  0.00  0.00     0.085 A 
HETATM   10  N   UNK N   1      34.040  10.685  14.811  0.00  0.00    -0.365 N 
ATOM     11  HN  UNK N   1      33.511  10.071  15.429  1.00  0.00     0.165 HD
ENDROOT
BRANCH   8  12
HETATM   12  O   UNK N   1      36.136  13.241  12.315  0.00  0.00    -0.310 OA
BRANCH  12  13
HETATM   13  C   UNK N   1      35.586  14.211  11.540  0.00  0.00     0.077 A 
HETATM   14  C   UNK N   1      36.046  15.522  11.676  0.00  0.00     0.039 A 
HETATM   15  C   UNK N   1      35.431  16.562  10.973  0.00  0.00     0.034 A 
HETATM   16  C   UNK N   1      34.359  16.302  10.113  0.00  0.00     0.057 A 
HETATM   17  C   UNK N   1      33.892  14.973   9.972  0.00  0.00     0.063 A 
HETATM   18  C   UNK N   1      34.504  13.951  10.690  0.00  0.00     0.063 A 
HETATM   19 Cl   UNK N   1      32.492  14.545   8.998  0.00  0.00    -0.082 Cl
BRANCH  16  20
HETATM   20  N   UNK N   1      33.744  17.395   9.443  0.00  0.00    -0.321 N 
HETATM   21  H   UNK N   1      33.067  17.918   9.930  0.00  0.00     0.169 HD
BRANCH  20  22
HETATM   22  C   UNK N   1      34.053  17.770   8.111  0.00  0.00     0.217 C 
HETATM   23  N   UNK N   1      33.438  17.215   7.124  0.00  0.00    -0.352 N 
ATOM     24  HN  UNK N   1      32.723  16.515   7.325  1.00  0.00     0.163 HD
BRANCH  23  25
HETATM   25  C   UNK N   1      33.716  17.541   5.749  0.00  0.00     0.085 A 
HETATM   26  C   UNK N   1      32.472  17.324   4.911  0.00  0.00     0.027 A 
HETATM   27  C   UNK N   1      33.572  16.285   4.915  0.00  0.00     0.027 A 
ENDBRANCH  23  25
BRANCH  22  28
HETATM   28  O   UNK N   1      35.019  18.688   7.889  0.00  0.00    -0.333 OA
HETATM   29  H   UNK N   1      35.132  19.363   7.250  0.00  0.00     0.220 HD
ENDBRANCH  22  28
ENDBRANCH  20  22
ENDBRANCH  16  20
ENDBRANCH  12  13
ENDBRANCH   8  12
BRANCH   6  30
HETATM   30  C   UNK N   1      36.799  15.166  16.909  0.00  0.00     0.146 C 
HETATM   31  N   UNK N   1      36.473  15.740  18.009  0.00  0.00    -0.379 N 
HETATM   32  H   UNK N   1      35.671  15.477  18.516  0.00  0.00     0.158 HD
ATOM     33  HN  UNK N   1      37.061  16.492  18.367  1.00  0.00     0.158 HD
BRANCH  30  34
HETATM   34  O   UNK N   1      37.836  15.653  16.198  0.00  0.00    -0.346 OA
HETATM   35  H   UNK N   1      38.711  15.369  16.373  0.00  0.00     0.219 HD
ENDBRANCH  30  34
ENDBRANCH   6  30
BRANCH   9  36
HETATM   36  O   UNK N   1      35.217  13.384  18.586  0.00  0.00    -0.355 OA
HETATM   37  C   UNK N   1      35.304  12.412  19.556  0.00  0.00     0.210 C 
ENDBRANCH   9  36
TORSDOF 9
ENDMDL
MODEL 4
REMARK VINA RESULT:      -7.5      1.672      2.017
REMARK  9 active torsions:
REMARK  status: ('A' for Active; 'I' for Inactive)
REMARK    1  A    between atoms: N_27  and  C_11 
REMARK    2  A    between atoms: O_33  and  C_12 
REMARK    3  A    between atoms: C_20  and  C_14 
REMARK    4  A    between atoms: N_29  and  C_16 
REMARK    5  A    between atoms: O_33  and  C_18 
REMARK    6  A    between atoms: O_32  and  C_19 
REMARK    7  A    between atoms: O_30  and  C_20 
REMARK    8  A    between atoms: N_29  and  C_21 
REMARK    9  A    between atoms: O_31  and  C_21 
ROOT
HETATM    1  C   UNK N   1      34.100  17.005   6.673  0.00  0.00     0.055 A 
HETATM    2  C   UNK N   1      33.605  16.917   5.369  0.00  0.00     0.091 A 
HETATM    3  C   UNK N   1      30.918  17.263   8.539  0.00  0.00     0.035 A 
HETATM    4  C   UNK N   1      30.008  17.141   5.902  0.00  0.00     0.068 A 
HETATM    5  C   UNK N   1      31.834  17.139   7.494  0.00  0.00     0.026 A 
HETATM    6  C   UNK N   1      29.543  17.329   8.292  0.00  0.00     0.049 A 
HETATM    7  C   UNK N   1      31.376  17.071   6.165  0.00  0.00     0.047 A 
HETATM    8  C   UNK N   1      33.209  17.121   7.752  0.00  0.00     0.089 A 
HETATM    9  C   UNK N   1      29.079  17.276   6.952  0.00  0.00     0.085 A 
HETATM   10  N   UNK N   1      32.264  16.960   5.141  0.00  0.00    -0.365 N 
ATOM     11  HN  UNK N   1      31.919  16.909   4.183  1.00  0.00     0.165 HD
ENDROOT
BRANCH   8  12
HETATM   12  O   UNK N   1      33.638  17.250   9.038  0.00  0.00    -0.310 OA
BRANCH  12  13
HETATM   13  C   UNK N   1      34.337  16.331   9.752  0.00  0.00     0.077 A 
HETATM   14  C   UNK N   1      35.421  16.759  10.521  0.00  0.00     0.039 A 
HETATM   15  C   UNK N   1      36.227  15.828  11.184  0.00  0.00     0.034 A 
HETATM   16  C   UNK N   1      35.948  14.460  11.100  0.00  0.00     0.057 A 
HETATM   17  C   UNK N   1      34.848  14.024  10.323  0.00  0.00     0.063 A 
HETATM   18  C   UNK N   1      34.065  14.961   9.657  0.00  0.00     0.063 A 
HETATM   19 Cl   UNK N   1      34.465  12.327  10.067  0.00  0.00    -0.082 Cl
BRANCH  16  20
HETATM   20  N   UNK N   1      36.813  13.548  11.765  0.00  0.00    -0.321 N 
HETATM   21  H   UNK N   1      37.636  13.266  11.303  0.00  0.00     0.169 HD
BRANCH  20  22
HETATM   22  C   UNK N   1      36.554  13.023  13.056  0.00  0.00     0.217 C 
HETATM   23  N   UNK N   1      35.869  11.938  13.187  0.00  0.00    -0.352 N 
ATOM     24  HN  UNK N   1      35.533  11.468  12.346  1.00  0.00     0.163 HD
BRANCH  23  25
HETATM   25  C   UNK N   1      35.558  11.363  14.470  0.00  0.00     0.085 A 
HETATM   26  C   UNK N   1      34.500  10.291  14.305  0.00  0.00     0.027 A 
HETATM   27  C   UNK N   1      34.112  11.667  14.800  0.00  0.00     0.027 A 
ENDBRANCH  23  25
BRANCH  22  28
HETATM   28  O   UNK N   1      37.001  13.687  14.143  0.00  0.00    -0.333 OA
HETATM   29  H   UNK N   1      36.691  13.766  15.024  0.00  0.00     0.220 HD
ENDBRANCH  22  28
ENDBRANCH  20  22
ENDBRANCH  16  20
ENDBRANCH  12  13
ENDBRANCH   8  12
BRANCH   6  30
HETATM   30  C   UNK N   1      28.635  17.463   9.462  0.00  0.00     0.146 C 
HETATM   31  N   UNK N   1      28.867  16.839  10.559  0.00  0.00    -0.379 N 
HETATM   32  H   UNK N   1      29.597  16.183  10.641  0.00  0.00     0.158 HD
ATOM     33  HN  UNK N   1      28.278  17.028  11.370  1.00  0.00     0.158 HD
BRANCH  30  34
HETATM   34  O   UNK N   1      27.547  18.255   9.377  0.00  0.00    -0.346 OA
HETATM   35  H   UNK N   1      26.811  18.002   8.855  0.00  0.00     0.219 HD
ENDBRANCH  30  34
ENDBRANCH   6  30
BRANCH   9  36
HETATM   36  O   UNK N   1      27.750  17.360   6.689  0.00  0.00    -0.355 OA
HETATM   37  C   UNK N   1      27.142  16.705   5.643  0.00  0.00     0.210 C 
ENDBRANCH   9  36
TORSDOF 9
ENDMDL
MODEL 5
REMARK VINA RESULT:      -7.5      4.661     10.932
REMARK  9 active torsions:
REMARK  status: ('A' for Active; 'I' for Inactive)
REMARK    1  A    between atoms: N_27  and  C_11 
REMARK    2  A    between atoms: O_33  and  C_12 
REMARK    3  A    between atoms: C_20  and  C_14 
REMARK    4  A    between atoms: N_29  and  C_16 
REMARK    5  A    between atoms: O_33  and  C_18 
REMARK    6  A    between atoms: O_32  and  C_19 
REMARK    7  A    between atoms: O_30  and  C_20 
REMARK    8  A    between atoms: N_29  and  C_21 
REMARK    9  A    between atoms: O_31  and  C_21 
ROOT
HETATM    1  C   UNK N   1      27.919  17.152   8.688  0.00  0.00     0.055 A 
HETATM    2  C   UNK N   1      28.662  17.508   9.816  0.00  0.00     0.091 A 
HETATM    3  C   UNK N   1      30.618  17.068   6.161  0.00  0.00     0.035 A 
HETATM    4  C   UNK N   1      32.022  17.834   8.449  0.00  0.00     0.068 A 
HETATM    5  C   UNK N   1      29.945  17.201   7.376  0.00  0.00     0.026 A 
HETATM    6  C   UNK N   1      31.991  17.313   6.064  0.00  0.00     0.049 A 
HETATM    7  C   UNK N   1      30.653  17.581   8.531  0.00  0.00     0.047 A 
HETATM    8  C   UNK N   1      28.563  16.999   7.449  0.00  0.00     0.089 A 
HETATM    9  C   UNK N   1      32.706  17.711   7.223  0.00  0.00     0.085 A 
HETATM   10  N   UNK N   1      30.002  17.723   9.716  0.00  0.00    -0.365 N 
ATOM     11  HN  UNK N   1      30.527  17.995  10.546  1.00  0.00     0.165 HD
ENDROOT
BRANCH   8  12
HETATM   12  O   UNK N   1      27.882  16.692   6.310  0.00  0.00    -0.310 OA
BRANCH  12  13
HETATM   13  C   UNK N   1      27.100  17.532   5.585  0.00  0.00     0.077 A 
HETATM   14  C   UNK N   1      26.343  17.008   4.534  0.00  0.00     0.039 A 
HETATM   15  C   UNK N   1      25.609  17.858   3.702  0.00  0.00     0.034 A 
HETATM   16  C   UNK N   1      25.609  19.240   3.918  0.00  0.00     0.057 A 
HETATM   17  C   UNK N   1      26.374  19.773   4.984  0.00  0.00     0.063 A 
HETATM   18  C   UNK N   1      27.111  18.916   5.795  0.00  0.00     0.063 A 
HETATM   19 Cl   UNK N   1      26.527  21.498   5.288  0.00  0.00    -0.082 Cl
BRANCH  16  20
HETATM   20  N   UNK N   1      24.875  20.068   3.027  0.00  0.00    -0.321 N 
HETATM   21  H   UNK N   1      25.361  20.512   2.295  0.00  0.00     0.169 HD
BRANCH  20  22
HETATM   22  C   UNK N   1      23.478  20.290   3.136  0.00  0.00     0.217 C 
HETATM   23  N   UNK N   1      22.706  19.351   3.563  0.00  0.00    -0.352 N 
ATOM     24  HN  UNK N   1      23.123  18.458   3.829  1.00  0.00     0.163 HD
BRANCH  23  25
HETATM   25  C   UNK N   1      21.280  19.508   3.682  0.00  0.00     0.085 A 
HETATM   26  C   UNK N   1      20.615  18.146   3.693  0.00  0.00     0.027 A 
HETATM   27  C   UNK N   1      20.626  18.972   2.426  0.00  0.00     0.027 A 
ENDBRANCH  23  25
BRANCH  22  28
HETATM   28  O   UNK N   1      22.966  21.481   2.757  0.00  0.00    -0.333 OA
HETATM   29  H   UNK N   1      22.367  22.081   3.154  0.00  0.00     0.220 HD
ENDBRANCH  22  28
ENDBRANCH  20  22
ENDBRANCH  16  20
ENDBRANCH  12  13
ENDBRANCH   8  12
BRANCH   6  30
HETATM   30  C   UNK N   1      32.631  17.149   4.731  0.00  0.00     0.146 C 
HETATM   31  N   UNK N   1      33.651  16.387   4.572  0.00  0.00    -0.379 N 
HETATM   32  H   UNK N   1      34.102  15.955   5.333  0.00  0.00     0.158 HD
ATOM     33  HN  UNK N   1      34.004  16.224   3.629  1.00  0.00     0.158 HD
BRANCH  30  34
HETATM   34  O   UNK N   1      32.134  17.809   3.665  0.00  0.00    -0.346 OA
HETATM   35  H   UNK N   1      31.280  17.610   3.336  0.00  0.00     0.219 HD
ENDBRANCH  30  34
ENDBRANCH   6  30
BRANCH   9  36
HETATM   36  O   UNK N   1      34.035  17.974   7.147  0.00  0.00    -0.355 OA
HETATM   37  C   UNK N   1      34.768  18.486   8.193  0.00  0.00     0.210 C 
ENDBRANCH   9  36
TORSDOF 9
ENDMDL
MODEL 6
REMARK VINA RESULT:      -7.3      3.288      8.909
REMARK  9 active torsions:
REMARK  status: ('A' for Active; 'I' for Inactive)
REMARK    1  A    between atoms: N_27  and  C_11 
REMARK    2  A    between atoms: O_33  and  C_12 
REMARK    3  A    between atoms: C_20  and  C_14 
REMARK    4  A    between atoms: N_29  and  C_16 
REMARK    5  A    between atoms: O_33  and  C_18 
REMARK    6  A    between atoms: O_32  and  C_19 
REMARK    7  A    between atoms: O_30  and  C_20 
REMARK    8  A    between atoms: N_29  and  C_21 
REMARK    9  A    between atoms: O_31  and  C_21 
ROOT
HETATM    1  C   UNK N   1      32.498  14.103   5.619  0.00  0.00     0.055 A 
HETATM    2  C   UNK N   1      32.859  12.758   5.736  0.00  0.00     0.091 A 
HETATM    3  C   UNK N   1      34.407  15.516   8.453  0.00  0.00     0.035 A 
HETATM    4  C   UNK N   1      35.035  12.803   8.657  0.00  0.00     0.068 A 
HETATM    5  C   UNK N   1      33.885  14.611   7.528  0.00  0.00     0.026 A 
HETATM    6  C   UNK N   1      35.244  15.089   9.489  0.00  0.00     0.049 A 
HETATM    7  C   UNK N   1      34.206  13.245   7.626  0.00  0.00     0.047 A 
HETATM    8  C   UNK N   1      33.011  15.044   6.526  0.00  0.00     0.089 A 
HETATM    9  C   UNK N   1      35.558  13.709   9.600  0.00  0.00     0.085 A 
HETATM   10  N   UNK N   1      33.692  12.356   6.735  0.00  0.00    -0.365 N 
ATOM     11  HN  UNK N   1      33.935  11.370   6.815  1.00  0.00     0.165 HD
ENDROOT
BRANCH   8  12
HETATM   12  O   UNK N   1      32.662  16.360   6.482  0.00  0.00    -0.310 OA
BRANCH  12  13
HETATM   13  C   UNK N   1      31.438  16.881   6.755  0.00  0.00     0.077 A 
HETATM   14  C   UNK N   1      30.526  17.041   5.709  0.00  0.00     0.039 A 
HETATM   15  C   UNK N   1      29.298  17.669   5.934  0.00  0.00     0.034 A 
HETATM   16  C   UNK N   1      28.960  18.132   7.210  0.00  0.00     0.057 A 
HETATM   17  C   UNK N   1      29.882  17.971   8.272  0.00  0.00     0.063 A 
HETATM   18  C   UNK N   1      31.106  17.356   8.030  0.00  0.00     0.063 A 
HETATM   19 Cl   UNK N   1      29.605  18.601   9.890  0.00  0.00    -0.082 Cl
BRANCH  16  20
HETATM   20  N   UNK N   1      27.714  18.795   7.385  0.00  0.00    -0.321 N 
HETATM   21  H   UNK N   1      27.166  18.557   8.166  0.00  0.00     0.169 HD
BRANCH  20  22
HETATM   22  C   UNK N   1      27.220  19.780   6.492  0.00  0.00     0.217 C 
HETATM   23  N   UNK N   1      26.257  19.494   5.684  0.00  0.00    -0.352 N 
ATOM     24  HN  UNK N   1      25.857  18.556   5.712  1.00  0.00     0.163 HD
BRANCH  23  25
HETATM   25  C   UNK N   1      25.721  20.444   4.744  0.00  0.00     0.085 A 
HETATM   26  C   UNK N   1      24.959  19.712   3.657  0.00  0.00     0.027 A 
HETATM   27  C   UNK N   1      26.365  20.206   3.394  0.00  0.00     0.027 A 
ENDBRANCH  23  25
BRANCH  22  28
HETATM   28  O   UNK N   1      27.790  21.003   6.475  0.00  0.00    -0.333 OA
HETATM   29  H   UNK N   1      27.524  21.834   6.134  0.00  0.00     0.220 HD
ENDBRANCH  22  28
ENDBRANCH  20  22
ENDBRANCH  16  20
ENDBRANCH  12  13
ENDBRANCH   8  12
BRANCH   6  30
HETATM   30  C   UNK N   1      35.757  16.117  10.433  0.00  0.00     0.146 C 
HETATM   31  N   UNK N   1      35.013  17.081  10.837  0.00  0.00    -0.379 N 
HETATM   32  H   UNK N   1      34.110  17.229  10.473  0.00  0.00     0.158 HD
ATOM     33  HN  UNK N   1      35.366  17.711  11.557  1.00  0.00     0.158 HD
BRANCH  30  34
HETATM   34  O   UNK N   1      37.028  16.040  10.880  0.00  0.00    -0.346 OA
HETATM   35  H   UNK N   1      37.240  15.525  11.632  0.00  0.00     0.219 HD
ENDBRANCH  30  34
ENDBRANCH   6  30
BRANCH   9  36
HETATM   36  O   UNK N   1      36.351  13.271  10.610  0.00  0.00    -0.355 OA
HETATM   37  C   UNK N   1      35.912  12.434  11.610  0.00  0.00     0.210 C 
ENDBRANCH   9  36
TORSDOF 9
ENDMDL
MODEL 7
REMARK VINA RESULT:      -7.2      2.969      9.290
REMARK  9 active torsions:
REMARK  status: ('A' for Active; 'I' for Inactive)
REMARK    1  A    between atoms: N_27  and  C_11 
REMARK    2  A    between atoms: O_33  and  C_12 
REMARK    3  A    between atoms: C_20  and  C_14 
REMARK    4  A    between atoms: N_29  and  C_16 
REMARK    5  A    between atoms: O_33  and  C_18 
REMARK    6  A    between atoms: O_32  and  C_19 
REMARK    7  A    between atoms: O_30  and  C_20 
REMARK    8  A    between atoms: N_29  and  C_21 
REMARK    9  A    between atoms: O_31  and  C_21 
ROOT
HETATM    1  C   UNK N   1      35.022  11.520  12.263  0.00  0.00     0.055 A 
HETATM    2  C   UNK N   1      34.184  10.702  13.025  0.00  0.00     0.091 A 
HETATM    3  C   UNK N   1      36.256  13.791  14.908  0.00  0.00     0.035 A 
HETATM    4  C   UNK N   1      34.517  12.150  16.350  0.00  0.00     0.068 A 
HETATM    5  C   UNK N   1      35.579  12.757  14.259  0.00  0.00     0.026 A 
HETATM    6  C   UNK N   1      36.080  14.025  16.275  0.00  0.00     0.049 A 
HETATM    7  C   UNK N   1      34.708  11.926  14.987  0.00  0.00     0.047 A 
HETATM    8  C   UNK N   1      35.728  12.565  12.882  0.00  0.00     0.089 A 
HETATM    9  C   UNK N   1      35.191  13.198  17.009  0.00  0.00     0.085 A 
HETATM   10  N   UNK N   1      34.037  10.924  14.359  0.00  0.00    -0.365 N 
ATOM     11  HN  UNK N   1      33.411  10.327  14.899  1.00  0.00     0.165 HD
ENDROOT
BRANCH   8  12
HETATM   12  O   UNK N   1      36.527  13.416  12.182  0.00  0.00    -0.310 OA
BRANCH  12  13
HETATM   13  C   UNK N   1      36.121  14.358  11.292  0.00  0.00     0.077 A 
HETATM   14  C   UNK N   1      35.663  15.586  11.774  0.00  0.00     0.039 A 
HETATM   15  C   UNK N   1      35.139  16.538  10.894  0.00  0.00     0.034 A 
HETATM   16  C   UNK N   1      35.081  16.280   9.521  0.00  0.00     0.057 A 
HETATM   17  C   UNK N   1      35.547  15.037   9.029  0.00  0.00     0.063 A 
HETATM   18  C   UNK N   1      36.052  14.094   9.918  0.00  0.00     0.063 A 
HETATM   19 Cl   UNK N   1      35.432  14.567   7.339  0.00  0.00    -0.082 Cl
BRANCH  16  20
HETATM   20  N   UNK N   1      34.511  17.264   8.668  0.00  0.00    -0.321 N 
HETATM   21  H   UNK N   1      35.068  18.031   8.402  0.00  0.00     0.169 HD
BRANCH  20  22
HETATM   22  C   UNK N   1      33.180  17.201   8.181  0.00  0.00     0.217 C 
HETATM   23  N   UNK N   1      32.197  17.546   8.940  0.00  0.00    -0.352 N 
ATOM     24  HN  UNK N   1      32.401  17.874   9.885  1.00  0.00     0.163 HD
BRANCH  23  25
HETATM   25  C   UNK N   1      30.824  17.490   8.511  0.00  0.00     0.085 A 
HETATM   26  C   UNK N   1      30.037  18.605   9.171  0.00  0.00     0.027 A 
HETATM   27  C   UNK N   1      29.952  17.196   9.713  0.00  0.00     0.027 A 
ENDBRANCH  23  25
BRANCH  22  28
HETATM   28  O   UNK N   1      32.954  16.745   6.930  0.00  0.00    -0.333 OA
HETATM   29  H   UNK N   1      32.185  16.459   6.477  0.00  0.00     0.220 HD
ENDBRANCH  22  28
ENDBRANCH  20  22
ENDBRANCH  16  20
ENDBRANCH  12  13
ENDBRANCH   8  12
BRANCH   6  30
HETATM   30  C   UNK N   1      36.839  15.148  16.889  0.00  0.00     0.146 C 
HETATM   31  N   UNK N   1      36.487  15.651  18.015  0.00  0.00    -0.379 N 
HETATM   32  H   UNK N   1      35.658  15.380  18.471  0.00  0.00     0.158 HD
ATOM     33  HN  UNK N   1      37.085  16.354  18.451  1.00  0.00     0.158 HD
BRANCH  30  34
HETATM   34  O   UNK N   1      37.919  15.649  16.256  0.00  0.00    -0.346 OA
HETATM   35  H   UNK N   1      37.850  15.983  15.384  0.00  0.00     0.219 HD
ENDBRANCH  30  34
ENDBRANCH   6  30
BRANCH   9  36
HETATM   36  O   UNK N   1      34.989  13.421  18.333  0.00  0.00    -0.355 OA
HETATM   37  C   UNK N   1      35.263  12.490  19.308  0.00  0.00     0.210 C 
ENDBRANCH   9  36
TORSDOF 9
ENDMDL
MODEL 8
REMARK VINA RESULT:      -7.1      4.033     10.918
REMARK  9 active torsions:
REMARK  status: ('A' for Active; 'I' for Inactive)
REMARK    1  A    between atoms: N_27  and  C_11 
REMARK    2  A    between atoms: O_33  and  C_12 
REMARK    3  A    between atoms: C_20  and  C_14 
REMARK    4  A    between atoms: N_29  and  C_16 
REMARK    5  A    between atoms: O_33  and  C_18 
REMARK    6  A    between atoms: O_32  and  C_19 
REMARK    7  A    between atoms: O_30  and  C_20 
REMARK    8  A    between atoms: N_29  and  C_21 
REMARK    9  A    between atoms: O_31  and  C_21 
ROOT
HETATM    1  C   UNK N   1      35.271   9.454  14.368  0.00  0.00     0.055 A 
HETATM    2  C   UNK N   1      35.855   8.374  15.035  0.00  0.00     0.091 A 
HETATM    3  C   UNK N   1      35.152  11.909  17.132  0.00  0.00     0.035 A 
HETATM    4  C   UNK N   1      36.261   9.687  18.409  0.00  0.00     0.068 A 
HETATM    5  C   UNK N   1      35.387  10.739  16.409  0.00  0.00     0.026 A 
HETATM    6  C   UNK N   1      35.462  11.993  18.493  0.00  0.00     0.049 A 
HETATM    7  C   UNK N   1      35.952   9.621  17.050  0.00  0.00     0.047 A 
HETATM    8  C   UNK N   1      35.029  10.652  15.060  0.00  0.00     0.089 A 
HETATM    9  C   UNK N   1      36.017  10.863  19.146  0.00  0.00     0.085 A 
HETATM   10  N   UNK N   1      36.173   8.474  16.355  0.00  0.00    -0.365 N 
ATOM     11  HN  UNK N   1      36.586   7.672  16.831  1.00  0.00     0.165 HD
ENDROOT
BRANCH   8  12
HETATM   12  O   UNK N   1      34.427  11.722  14.470  0.00  0.00    -0.310 OA
BRANCH  12  13
HETATM   13  C   UNK N   1      34.936  12.486  13.469  0.00  0.00     0.077 A 
HETATM   14  C   UNK N   1      35.567  13.689  13.795  0.00  0.00     0.039 A 
HETATM   15  C   UNK N   1      36.009  14.549  12.786  0.00  0.00     0.034 A 
HETATM   16  C   UNK N   1      35.841  14.211  11.440  0.00  0.00     0.057 A 
HETATM   17  C   UNK N   1      35.203  12.992  11.107  0.00  0.00     0.063 A 
HETATM   18  C   UNK N   1      34.755  12.152  12.122  0.00  0.00     0.063 A 
HETATM   19 Cl   UNK N   1      34.850  12.512   9.453  0.00  0.00    -0.082 Cl
BRANCH  16  20
HETATM   20  N   UNK N   1      36.276  15.132  10.448  0.00  0.00    -0.321 N 
HETATM   21  H   UNK N   1      37.137  14.963  10.001  0.00  0.00     0.169 HD
BRANCH  20  22
HETATM   22  C   UNK N   1      35.537  16.282  10.069  0.00  0.00     0.217 C 
HETATM   23  N   UNK N   1      34.571  16.179   9.223  0.00  0.00    -0.352 N 
ATOM     24  HN  UNK N   1      34.347  15.257   8.846  1.00  0.00     0.163 HD
BRANCH  23  25
HETATM   25  C   UNK N   1      33.793  17.310   8.786  0.00  0.00     0.085 A 
HETATM   26  C   UNK N   1      32.599  16.830   7.986  0.00  0.00     0.027 A 
HETATM   27  C   UNK N   1      33.822  17.363   7.273  0.00  0.00     0.027 A 
ENDBRANCH  23  25
BRANCH  22  28
HETATM   28  O   UNK N   1      35.880  17.485  10.578  0.00  0.00    -0.333 OA
HETATM   29  H   UNK N   1      35.816  17.866  11.431  0.00  0.00     0.220 HD
ENDBRANCH  22  28
ENDBRANCH  20  22
ENDBRANCH  16  20
ENDBRANCH  12  13
ENDBRANCH   8  12
BRANCH   6  30
HETATM   30  C   UNK N   1      35.179  13.277  19.189  0.00  0.00     0.146 C 
HETATM   31  N   UNK N   1      34.719  13.298  20.386  0.00  0.00    -0.379 N 
HETATM   32  H   UNK N   1      34.451  12.474  20.855  0.00  0.00     0.158 HD
ATOM     33  HN  UNK N   1      34.628  14.193  20.866  1.00  0.00     0.158 HD
BRANCH  30  34
HETATM   34  O   UNK N   1      35.411  14.446  18.557  0.00  0.00    -0.346 OA
HETATM   35  H   UNK N   1      34.873  15.194  18.724  0.00  0.00     0.219 HD
ENDBRANCH  30  34
ENDBRANCH   6  30
BRANCH   9  36
HETATM   36  O   UNK N   1      36.306  10.917  20.471  0.00  0.00    -0.355 OA
HETATM   37  C   UNK N   1      37.232  10.100  21.079  0.00  0.00     0.210 C 
ENDBRANCH   9  36
TORSDOF 9
ENDMDL
MODEL 9
REMARK VINA RESULT:      -7.1      2.354      2.863
REMARK  9 active torsions:
REMARK  status: ('A' for Active; 'I' for Inactive)
REMARK    1  A    between atoms: N_27  and  C_11 
REMARK    2  A    between atoms: O_33  and  C_12 
REMARK    3  A    between atoms: C_20  and  C_14 
REMARK    4  A    between atoms: N_29  and  C_16 
REMARK    5  A    between atoms: O_33  and  C_18 
REMARK    6  A    between atoms: O_32  and  C_19 
REMARK    7  A    between atoms: O_30  and  C_20 
REMARK    8  A    between atoms: N_29  and  C_21 
REMARK    9  A    between atoms: O_31  and  C_21 
ROOT
HETATM    1  C   UNK N   1      33.466  15.345   4.001  0.00  0.00     0.055 A 
HETATM    2  C   UNK N   1      32.865  14.403   3.162  0.00  0.00     0.091 A 
HETATM    3  C   UNK N   1      30.545  17.493   4.726  0.00  0.00     0.035 A 
HETATM    4  C   UNK N   1      29.431  15.607   2.996  0.00  0.00     0.068 A 
HETATM    5  C   UNK N   1      31.338  16.462   4.221  0.00  0.00     0.026 A 
HETATM    6  C   UNK N   1      29.195  17.604   4.381  0.00  0.00     0.049 A 
HETATM    7  C   UNK N   1      30.775  15.507   3.354  0.00  0.00     0.047 A 
HETATM    8  C   UNK N   1      32.699  16.391   4.537  0.00  0.00     0.089 A 
HETATM    9  C   UNK N   1      28.628  16.651   3.495  0.00  0.00     0.085 A 
HETATM   10  N   UNK N   1      31.545  14.506   2.850  0.00  0.00    -0.365 N 
ATOM     11  HN  UNK N   1      31.124  13.818   2.225  1.00  0.00     0.165 HD
ENDROOT
BRANCH   8  12
HETATM   12  O   UNK N   1      33.241  17.359   5.327  0.00  0.00    -0.310 OA
BRANCH  12  13
HETATM   13  C   UNK N   1      33.502  17.263   6.656  0.00  0.00     0.077 A 
HETATM   14  C   UNK N   1      34.327  18.221   7.250  0.00  0.00     0.039 A 
HETATM   15  C   UNK N   1      34.702  18.095   8.591  0.00  0.00     0.034 A 
HETATM   16  C   UNK N   1      34.245  17.019   9.359  0.00  0.00     0.057 A 
HETATM   17  C   UNK N   1      33.408  16.047   8.759  0.00  0.00     0.063 A 
HETATM   18  C   UNK N   1      33.054  16.178   7.420  0.00  0.00     0.063 A 
HETATM   19 Cl   UNK N   1      32.856  14.604   9.598  0.00  0.00    -0.082 Cl
BRANCH  16  20
HETATM   20  N   UNK N   1      34.679  16.914  10.708  0.00  0.00    -0.321 N 
HETATM   21  H   UNK N   1      34.293  17.531  11.371  0.00  0.00     0.169 HD
BRANCH  20  22
HETATM   22  C   UNK N   1      35.639  15.968  11.151  0.00  0.00     0.217 C 
HETATM   23  N   UNK N   1      35.293  15.027  11.962  0.00  0.00    -0.352 N 
ATOM     24  HN  UNK N   1      34.320  14.975  12.264  1.00  0.00     0.163 HD
BRANCH  23  25
HETATM   25  C   UNK N   1      36.223  14.047  12.459  0.00  0.00     0.085 A 
HETATM   26  C   UNK N   1      35.518  13.122  13.431  0.00  0.00     0.027 A 
HETATM   27  C   UNK N   1      36.387  14.246  13.951  0.00  0.00     0.027 A 
ENDBRANCH  23  25
BRANCH  22  28
HETATM   28  O   UNK N   1      36.920  16.085  10.740  0.00  0.00    -0.333 OA
HETATM   29  H   UNK N   1      37.733  16.200  11.191  0.00  0.00     0.220 HD
ENDBRANCH  22  28
ENDBRANCH  20  22
ENDBRANCH  16  20
ENDBRANCH  12  13
ENDBRANCH   8  12
BRANCH   6  30
HETATM   30  C   UNK N   1      28.421  18.733   4.963  0.00  0.00     0.146 C 
HETATM   31  N   UNK N   1      27.956  19.672   4.223  0.00  0.00    -0.379 N 
HETATM   32  H   UNK N   1      28.167  19.732   3.263  0.00  0.00     0.158 HD
ATOM     33  HN  UNK N   1      27.350  20.378   4.641  1.00  0.00     0.158 HD
BRANCH  30  34
HETATM   34  O   UNK N   1      28.198  18.776   6.292  0.00  0.00    -0.346 OA
HETATM   35  H   UNK N   1      27.908  19.566   6.703  0.00  0.00     0.219 HD
ENDBRANCH  30  34
ENDBRANCH   6  30
BRANCH   9  36
HETATM   36  O   UNK N   1      27.325  16.751   3.131  0.00  0.00    -0.355 OA
HETATM   37  C   UNK N   1      26.516  15.662   2.901  0.00  0.00     0.210 C 
ENDBRANCH   9  36
TORSDOF 9
ENDMDL
