REMARK  7 active torsions:
REMARK  status: ('A' for Active; 'I' for Inactive)
REMARK    1  A    between atoms: C_15  and  C_6 
REMARK    2  A    between atoms: C_18  and  C_6 
REMARK    3  A    between atoms: N_32  and  C_15 
REMARK    4  A    between atoms: N_34  and  C_18 
REMARK    5  A    between atoms: C_28  and  C_27 
REMARK    6  A    between atoms: O_35  and  C_27 
REMARK    7  A    between atoms: N_33  and  C_28 
ROOT
HETATM    1  C   UNK N   1       3.181  -4.024  -1.069  0.00  0.00     0.118 C 
ENDROOT
BRANCH   1   2
HETATM    2  C   UNK N   1       3.578  -2.553  -1.129  0.00  0.00     0.040 C 
BRANCH   2   3
HETATM    3  C   UNK N   1       3.727  -1.963   0.263  0.00  0.00     0.131 C 
BRANCH   3   4
HETATM    4  N   UNK N   1       3.619  -0.510   0.192  0.00  0.00    -0.346 N 
HETATM    5  C   UNK N   1       4.865   0.231   0.316  0.00  0.00     0.041 A 
HETATM    6  C   UNK N   1       6.075  -0.500   0.294  0.00  0.00     0.030 A 
HETATM    7  C   UNK N   1       4.965   1.643   0.490  0.00  0.00    -0.031 A 
HETATM    8  C   UNK N   1       7.316   0.121   0.414  0.00  0.00     0.002 A 
HETATM    9  C   UNK N   1       7.389   1.499   0.568  0.00  0.00     0.001 A 
HETATM   10  C   UNK N   1       6.220   2.252   0.609  0.00  0.00     0.009 A 
HETATM   11  C   UNK N   1       3.797   2.536   0.563  0.00  0.00     0.045 C 
HETATM   12  C   UNK N   1       3.027   2.355  -0.701  0.00  0.00     0.045 C 
HETATM   13  C   UNK N   1       1.986   1.359  -0.408  0.00  0.00    -0.031 A 
HETATM   14  C   UNK N   1       0.658   1.774  -0.570  0.00  0.00     0.011 A 
HETATM   15  C   UNK N   1       2.279   0.029   0.011  0.00  0.00     0.042 A 
HETATM   16  C   UNK N   1      -0.399   0.901  -0.330  0.00  0.00     0.024 A 
HETATM   17  C   UNK N   1      -0.137  -0.404   0.070  0.00  0.00     0.036 A 
HETATM   18  C   UNK N   1       1.179  -0.831   0.232  0.00  0.00     0.054 A 
HETATM   19 Cl   UNK N   1      -1.461  -1.507   0.373  0.00  0.00    -0.084 Cl
ENDBRANCH   3   4
ENDBRANCH   2   3
ENDBRANCH   1   2
BRANCH   1  20
HETATM   20  N   UNK N   1       4.306  -4.966  -1.020  0.00  0.00    -0.412 N 
HETATM   21  C   UNK N   1       5.513  -4.611  -1.784  0.00  0.00     0.119 C 
HETATM   22  C   UNK N   1       6.538  -3.844  -0.941  0.00  0.00     0.070 C 
HETATM   23  C   UNK N   1       6.891  -4.612   0.343  0.00  0.00     0.225 C 
HETATM   24  C   UNK N   1       5.568  -4.755   1.117  0.00  0.00     0.070 C 
HETATM   25  C   UNK N   1       4.534  -5.538   0.311  0.00  0.00     0.119 C 
BRANCH  23  26
HETATM   26  C   UNK N   1       7.875  -3.783   1.165  0.00  0.00     0.149 C 
HETATM   27  N   UNK N   1       9.023  -3.472   0.685  0.00  0.00    -0.381 N 
HETATM   28  H   UNK N   1       9.670  -4.116   0.317  0.00  0.00     0.158 HD
ATOM     29  HN  UNK N   1       9.285  -2.486   0.685  1.00  0.00     0.158 HD
BRANCH  26  30
HETATM   30  O   UNK N   1       7.550  -3.367   2.406  0.00  0.00    -0.348 OA
HETATM   31  H   UNK N   1       7.688  -3.027   3.268  0.00  0.00     0.219 HD
ENDBRANCH  26  30
ENDBRANCH  23  26
BRANCH  23  32
HETATM   32  N   UNK N   1       7.443  -5.956   0.016  0.00  0.00     0.106 N 
HETATM   33  C   UNK N   1       8.631  -5.872  -0.867  0.00  0.00     0.274 C 
HETATM   34  C   UNK N   1       9.684  -6.957  -0.612  0.00  0.00     0.030 C 
HETATM   35  C   UNK N   1       9.008  -8.290  -0.320  0.00  0.00     0.003 C 
HETATM   36  C   UNK N   1       8.045  -8.193   0.868  0.00  0.00     0.030 C 
HETATM   37  C   UNK N   1       7.700  -6.746   1.231  0.00  0.00     0.274 C 
ENDBRANCH  23  32
ENDBRANCH   1  20
TORSDOF 7
