REMARK  3 active torsions:
REMARK  status: ('A' for Active; 'I' for Inactive)
REMARK    1  A    between atoms: C_22  and  C_18 
REMARK    2  A    between atoms: N_33  and  C_20 
REMARK       I    between atoms: N_32  and  C_22 
REMARK    3  A    between atoms: N_31  and  C_23 
ROOT
HETATM    1  C   UNK N   1      -2.137  -1.491   1.625  0.00  0.00     0.032 C 
HETATM    2  C   UNK N   1      -0.169  -1.487   0.171  0.00  0.00     0.045 C 
HETATM    3  C   UNK N   1       0.458  -1.009  -1.132  0.00  0.00     0.128 C 
HETATM    4  C   UNK N   1       0.354   1.441  -0.715  0.00  0.00     0.146 C 
HETATM    5  C   UNK N   1      -0.317   1.292   0.621  0.00  0.00     0.146 C 
HETATM    6  C   UNK N   1      -1.562  -0.883   0.355  0.00  0.00     0.085 C 
HETATM    7  C   UNK N   1      -2.684   1.398   0.287  0.00  0.00     0.256 C 
HETATM    8  N   UNK N   1       1.118   0.252  -0.905  0.00  0.00    -0.345 N 
HETATM    9  N   UNK N   1      -1.571   0.590   0.430  0.00  0.00    -0.342 N 
HETATM   10  O   UNK N   1      -2.481   2.594   0.287  0.00  0.00    -0.267 OA
ENDROOT
BRANCH   7  11
HETATM   11  C   UNK N   1      -4.113   0.915   0.098  0.00  0.00     0.063 A 
HETATM   12  C   UNK N   1      -4.324  -0.469   0.046  0.00  0.00     0.026 A 
HETATM   13  C   UNK N   1      -5.569  -1.048  -0.116  0.00  0.00    -0.061 A 
HETATM   14  C   UNK N   1      -5.696  -2.529  -0.147  0.00  0.00     0.048 C 
HETATM   15  C   UNK N   1      -6.684  -0.243  -0.245  0.00  0.00     0.009 A 
HETATM   16  C   UNK N   1      -6.541   1.138  -0.205  0.00  0.00     0.035 A 
HETATM   17  C   UNK N   1      -5.290   1.767  -0.032  0.00  0.00     0.090 A 
BRANCH  17  18
HETATM   18  N   UNK N   1      -5.326   3.227   0.011  0.00  0.00    -0.197 N 
HETATM   19  N   UNK N   1      -4.328   4.053   0.261  0.00  0.00    -0.289 N 
HETATM   20  C   UNK N   1      -4.805   5.308   0.218  0.00  0.00     0.127 A 
ATOM     21  HN  UNK N   1      -3.362   3.786   0.452  1.00  0.00     0.188 HD
HETATM   22  C   UNK N   1      -6.152   5.215  -0.064  0.00  0.00     0.127 A 
HETATM   23  N   UNK N   1      -6.444   3.906  -0.183  0.00  0.00    -0.289 N 
ATOM     24  HN  UNK N   1      -7.362   3.510  -0.387  1.00  0.00     0.188 HD
ENDBRANCH  17  18
ENDBRANCH   7  11
BRANCH   8  25
HETATM   25  C   UNK N   1       2.464   0.266  -0.517  0.00  0.00     0.227 A 
HETATM   26  N   UNK N   1       3.210  -0.854  -0.394  0.00  0.00    -0.320 N 
HETATM   27  C   UNK N   1       4.417  -0.373  -0.091  0.00  0.00     0.071 A 
ATOM     28  HN  UNK N   1       2.922  -1.826  -0.505  1.00  0.00     0.169 HD
HETATM   29  C   UNK N   1       5.590  -1.085   0.058  0.00  0.00     0.056 A 
HETATM   30  C   UNK N   1       4.371   0.987  -0.030  0.00  0.00     0.106 A 
HETATM   31  C   UNK N   1       6.765  -0.347   0.265  0.00  0.00     0.036 A 
HETATM   32  C   UNK N   1       6.725   1.070   0.334  0.00  0.00     0.026 A 
HETATM   33 Cl   UNK N   1       8.290  -1.191   0.350  0.00  0.00    -0.084 Cl
HETATM   34  C   UNK N   1       5.503   1.758   0.193  0.00  0.00     0.041 A 
HETATM   35  O   UNK N   1       3.153   1.370  -0.283  0.00  0.00    -0.277 OA
ENDBRANCH   8  25
TORSDOF 3
