REMARK  1 active torsions:
REMARK  status: ('A' for Active; 'I' for Inactive)
REMARK    1  A    between atoms: C_4  and  C_8 
ROOT
HETATM    1  C   UNK N   1       1.510   2.055  -1.483  0.00  0.00     0.016 C 
HETATM    2  C   UNK N   1       1.990   1.676  -0.063  0.00  0.00    -0.026 C 
HETATM    3  C   UNK N   1       2.150   0.160   0.075  0.00  0.00     0.003 C 
HETATM    4  C   UNK N   1       3.441   2.158   0.145  0.00  0.00     0.024 C 
HETATM    5  C   UNK N   1       0.965   2.183   0.959  0.00  0.00     0.011 C 
HETATM    6  C   UNK N   1       0.827  -0.573  -0.224  0.00  0.00     0.018 C 
HETATM    7  C   UNK N   1       3.359  -0.135  -0.803  0.00  0.00     0.007 C 
HETATM    8  C   UNK N   1       3.875   2.034   1.609  0.00  0.00     0.024 C 
HETATM    9  C   UNK N   1       4.247   1.124  -0.670  0.00  0.00     0.018 C 
HETATM   10  C   UNK N   1      -0.380   1.465   0.774  0.00  0.00     0.007 C 
HETATM   11  C   UNK N   1      -0.240  -0.076   0.778  0.00  0.00     0.006 C 
HETATM   12  C   UNK N   1       0.974  -2.071  -0.074  0.00  0.00    -0.014 C 
HETATM   13  C   UNK N   1      -1.616  -0.761   0.534  0.00  0.00    -0.012 C 
HETATM   14  C   UNK N   1      -0.108  -2.855   0.056  0.00  0.00    -0.058 C 
HETATM   15  C   UNK N   1      -2.395  -0.639   1.853  0.00  0.00     0.021 C 
HETATM   16  C   UNK N   1      -1.461  -2.236   0.158  0.00  0.00    -0.040 C 
HETATM   17  C   UNK N   1      -2.457  -0.120  -0.582  0.00  0.00     0.022 C 
HETATM   18  C   UNK N   1       0.063  -4.339   0.016  0.00  0.00     0.048 C 
HETATM   19  C   UNK N   1      -2.552  -2.945  -0.188  0.00  0.00     0.058 C 
HETATM   20  C   UNK N   1      -3.870  -0.750  -0.620  0.00  0.00     0.084 C 
HETATM   21  C   UNK N   1      -3.843  -2.249  -0.394  0.00  0.00     0.149 C 
HETATM   22  O   UNK N   1      -4.878  -2.891  -0.461  0.00  0.00    -0.293 OA
ENDROOT
BRANCH   4  23
HETATM   23  C   UNK N   1       3.665   3.598  -0.282  0.00  0.00     0.132 C 
HETATM   24  C   UNK N   1       4.636   3.945  -1.364  0.00  0.00     0.091 C 
HETATM   25  O   UNK N   1       3.038   4.496   0.259  0.00  0.00    -0.298 OA
ENDBRANCH   4  23
TORSDOF 1
