REMARK  5 active torsions:
REMARK  status: ('A' for Active; 'I' for Inactive)
REMARK    1  A    between atoms: C_15  and  C_2 
REMARK    2  A    between atoms: C_10  and  C_9 
REMARK    3  A    between atoms: N_16  and  C_9 
REMARK    4  A    between atoms: C_13  and  C_11 
REMARK    5  A    between atoms: O_18  and  C_15 
ROOT
HETATM    1  C   UNK N   1       3.176   3.926  -0.965  0.00  0.00     0.016 A 
HETATM    2  C   UNK N   1       1.865   4.407  -0.409  0.00  0.00     0.012 A 
HETATM    3  C   UNK N   1       2.000   2.952  -0.872  0.00  0.00     0.025 A 
ENDROOT
BRANCH   3   4
HETATM    4  C   UNK N   1       2.429   1.680  -0.164  0.00  0.00    -0.044 A 
HETATM    5  C   UNK N   1       3.768   1.410   0.207  0.00  0.00     0.008 A 
HETATM    6  C   UNK N   1       4.127   0.142   0.712  0.00  0.00     0.003 A 
HETATM    7  C   UNK N   1       3.160  -0.867   0.841  0.00  0.00     0.037 A 
HETATM    8  C   UNK N   1       1.847  -0.571   0.477  0.00  0.00     0.075 A 
HETATM    9  C   UNK N   1       1.494   0.647  -0.000  0.00  0.00    -0.016 A 
HETATM   10  O   UNK N   1       0.819  -1.410   0.525  0.00  0.00    -0.350 OA
HETATM   11  C   UNK N   1       0.047   0.648  -0.327  0.00  0.00     0.068 A 
HETATM   12  C   UNK N   1      -0.346  -0.804   0.073  0.00  0.00     0.180 A 
ENDBRANCH   3   4
BRANCH   2  13
HETATM   13  C   UNK N   1       2.036   4.904   1.022  0.00  0.00     0.126 C 
BRANCH  13  14
HETATM   14  N   UNK N   1       1.763   6.334   1.040  0.00  0.00    -0.374 N 
HETATM   15  C   UNK N   1       2.577   7.207   0.545  0.00  0.00     0.110 C 
ATOM     16  HN  UNK N   1       0.892   6.660   1.460  1.00  0.00     0.161 HD
BRANCH  15  17
HETATM   17  C   UNK N   1       2.175   8.655   0.510  0.00  0.00     0.079 C 
HETATM   18  C   UNK N   1       3.201   9.521  -0.208  0.00  0.00     0.013 C 
ENDBRANCH  15  17
BRANCH  15  19
HETATM   19  O   UNK N   1       3.770   6.822   0.041  0.00  0.00    -0.350 OA
HETATM   20  H   UNK N   1       3.952   5.972  -0.309  0.00  0.00     0.219 HD
ENDBRANCH  15  19
ENDBRANCH  13  14
ENDBRANCH   2  13
TORSDOF 5
