MODEL 1
REMARK VINA RESULT:      -6.8      0.000      0.000
REMARK  3 active torsions:
REMARK  status: ('A' for Active; 'I' for Inactive)
REMARK    1  A    between atoms: N_20  and  C_16 
REMARK    2  A    between atoms: S_21  and  C_17 
REMARK    3  A    between atoms: S_21  and  C_18 
ROOT
HETATM    1  C   UNK N   1      29.277  17.702   9.728  0.00  0.00     0.002 A 
HETATM    2  C   UNK N   1      28.189  18.123   8.976  0.00  0.00     0.002 A 
HETATM    3  C   UNK N   1      30.433  17.266   9.089  0.00  0.00     0.031 A 
HETATM    4  C   UNK N   1      28.263  18.114   7.586  0.00  0.00     0.021 A 
HETATM    5  C   UNK N   1      30.549  17.265   7.683  0.00  0.00     0.047 A 
HETATM    6  C   UNK N   1      29.431  17.735   6.912  0.00  0.00     0.032 A 
ENDROOT
BRANCH   6   7
HETATM    7  S   UNK N   1      29.317  17.615   5.105  0.00  0.00    -0.088 SA
BRANCH   7   8
HETATM    8  C   UNK N   1      27.767  18.374   4.495  0.00  0.00     0.011 A 
HETATM    9  C   UNK N   1      27.804  19.774   4.390  0.00  0.00     0.020 A 
HETATM   10  C   UNK N   1      26.747  20.491   3.825  0.00  0.00     0.008 A 
HETATM   11  C   UNK N   1      25.626  19.819   3.348  0.00  0.00    -0.061 A 
HETATM   12  C   UNK N   1      24.518  20.575   2.707  0.00  0.00     0.048 C 
HETATM   13  C   UNK N   1      25.557  18.430   3.453  0.00  0.00     0.014 A 
HETATM   14  C   UNK N   1      26.609  17.698   4.018  0.00  0.00    -0.044 A 
HETATM   15  C   UNK N   1      26.448  16.228   4.042  0.00  0.00     0.049 C 
ENDBRANCH   7   8
ENDBRANCH   6   7
BRANCH   5  16
HETATM   16  N   UNK N   1      31.764  16.743   7.114  0.00  0.00    -0.377 N 
HETATM   17  C   UNK N   1      31.868  15.335   6.794  0.00  0.00     0.150 C 
HETATM   18  C   UNK N   1      32.197  15.205   5.307  0.00  0.00     0.252 C 
HETATM   19  N   UNK N   1      33.432  15.937   5.012  0.00  0.00    -0.072 N 
HETATM   20  C   UNK N   1      33.233  17.360   5.296  0.00  0.00     0.252 C 
HETATM   21  H   UNK N   1      34.296  15.520   4.663  0.00  0.00     0.277 HD
HETATM   22  H   UNK N   1      34.221  16.562   4.847  0.00  0.00     0.277 HD
HETATM   23  C   UNK N   1      32.901  17.567   6.774  0.00  0.00     0.150 C 
ENDBRANCH   5  16
TORSDOF 3
ENDMDL
MODEL 2
REMARK VINA RESULT:      -6.4      2.761      6.808
REMARK  3 active torsions:
REMARK  status: ('A' for Active; 'I' for Inactive)
REMARK    1  A    between atoms: N_20  and  C_16 
REMARK    2  A    between atoms: S_21  and  C_17 
REMARK    3  A    between atoms: S_21  and  C_18 
ROOT
HETATM    1  C   UNK N   1      26.665  19.807   3.892  0.00  0.00     0.002 A 
HETATM    2  C   UNK N   1      27.868  20.001   4.556  0.00  0.00     0.002 A 
HETATM    3  C   UNK N   1      26.235  18.515   3.603  0.00  0.00     0.031 A 
HETATM    4  C   UNK N   1      28.634  18.904   4.937  0.00  0.00     0.021 A 
HETATM    5  C   UNK N   1      26.976  17.380   3.995  0.00  0.00     0.047 A 
HETATM    6  C   UNK N   1      28.203  17.590   4.712  0.00  0.00     0.032 A 
ENDROOT
BRANCH   6   7
HETATM    7  S   UNK N   1      29.387  16.273   5.113  0.00  0.00    -0.088 SA
BRANCH   7   8
HETATM    8  C   UNK N   1      30.917  16.968   5.838  0.00  0.00     0.011 A 
HETATM    9  C   UNK N   1      30.900  17.085   7.237  0.00  0.00     0.020 A 
HETATM   10  C   UNK N   1      32.034  17.480   7.950  0.00  0.00     0.008 A 
HETATM   11  C   UNK N   1      33.217  17.764   7.275  0.00  0.00    -0.061 A 
HETATM   12  C   UNK N   1      34.438  18.143   8.033  0.00  0.00     0.048 C 
HETATM   13  C   UNK N   1      33.258  17.670   5.885  0.00  0.00     0.014 A 
HETATM   14  C   UNK N   1      32.128  17.276   5.156  0.00  0.00    -0.044 A 
HETATM   15  C   UNK N   1      32.295  17.170   3.690  0.00  0.00     0.049 C 
ENDBRANCH   7   8
ENDBRANCH   6   7
BRANCH   5  16
HETATM   16  N   UNK N   1      26.477  16.089   3.601  0.00  0.00    -0.377 N 
HETATM   17  C   UNK N   1      25.525  15.393   4.442  0.00  0.00     0.150 C 
HETATM   18  C   UNK N   1      24.271  15.114   3.612  0.00  0.00     0.252 C 
HETATM   19  N   UNK N   1      24.632  14.341   2.421  0.00  0.00    -0.072 N 
HETATM   20  C   UNK N   1      25.542  15.131   1.588  0.00  0.00     0.252 C 
HETATM   21  H   UNK N   1      24.301  13.401   2.205  0.00  0.00     0.277 HD
HETATM   22  H   UNK N   1      24.962  13.916   1.555  0.00  0.00     0.277 HD
HETATM   23  C   UNK N   1      26.827  15.447   2.355  0.00  0.00     0.150 C 
ENDBRANCH   5  16
TORSDOF 3
ENDMDL
MODEL 3
REMARK VINA RESULT:      -6.3      2.996      7.015
REMARK  3 active torsions:
REMARK  status: ('A' for Active; 'I' for Inactive)
REMARK    1  A    between atoms: N_20  and  C_16 
REMARK    2  A    between atoms: S_21  and  C_17 
REMARK    3  A    between atoms: S_21  and  C_18 
ROOT
HETATM    1  C   UNK N   1      26.605  20.059   3.705  0.00  0.00     0.002 A 
HETATM    2  C   UNK N   1      27.697  20.164   4.555  0.00  0.00     0.002 A 
HETATM    3  C   UNK N   1      25.814  18.914   3.732  0.00  0.00     0.031 A 
HETATM    4  C   UNK N   1      27.992  19.128   5.435  0.00  0.00     0.021 A 
HETATM    5  C   UNK N   1      26.072  17.855   4.628  0.00  0.00     0.047 A 
HETATM    6  C   UNK N   1      27.184  17.987   5.528  0.00  0.00     0.032 A 
ENDROOT
BRANCH   6   7
HETATM    7  S   UNK N   1      27.792  16.653   6.599  0.00  0.00    -0.088 SA
BRANCH   7   8
HETATM    8  C   UNK N   1      29.457  17.044   7.249  0.00  0.00     0.011 A 
HETATM    9  C   UNK N   1      30.518  16.635   6.423  0.00  0.00     0.020 A 
HETATM   10  C   UNK N   1      31.841  16.969   6.717  0.00  0.00     0.008 A 
HETATM   11  C   UNK N   1      32.134  17.725   7.848  0.00  0.00    -0.061 A 
HETATM   12  C   UNK N   1      33.537  18.119   8.141  0.00  0.00     0.048 C 
HETATM   13  C   UNK N   1      31.103  18.132   8.693  0.00  0.00     0.014 A 
HETATM   14  C   UNK N   1      29.770  17.804   8.411  0.00  0.00    -0.044 A 
HETATM   15  C   UNK N   1      28.753  18.321   9.352  0.00  0.00     0.049 C 
ENDBRANCH   7   8
ENDBRANCH   6   7
BRANCH   5  16
HETATM   16  N   UNK N   1      25.231  16.689   4.542  0.00  0.00    -0.377 N 
HETATM   17  C   UNK N   1      23.952  16.668   5.218  0.00  0.00     0.150 C 
HETATM   18  C   UNK N   1      22.865  16.400   4.176  0.00  0.00     0.252 C 
HETATM   19  N   UNK N   1      23.150  15.143   3.480  0.00  0.00    -0.072 N 
HETATM   20  C   UNK N   1      24.424  15.262   2.766  0.00  0.00     0.252 C 
HETATM   21  H   UNK N   1      22.554  14.315   3.490  0.00  0.00     0.277 HD
HETATM   22  H   UNK N   1      23.467  14.331   2.950  0.00  0.00     0.277 HD
HETATM   23  C   UNK N   1      25.563  15.527   3.751  0.00  0.00     0.150 C 
ENDBRANCH   5  16
TORSDOF 3
ENDMDL
MODEL 4
REMARK VINA RESULT:      -6.3      9.782     13.062
REMARK  3 active torsions:
REMARK  status: ('A' for Active; 'I' for Inactive)
REMARK    1  A    between atoms: N_20  and  C_16 
REMARK    2  A    between atoms: S_21  and  C_17 
REMARK    3  A    between atoms: S_21  and  C_18 
ROOT
HETATM    1  C   UNK N   1      33.555  10.035  11.026  0.00  0.00     0.002 A 
HETATM    2  C   UNK N   1      33.499  10.020  12.412  0.00  0.00     0.002 A 
HETATM    3  C   UNK N   1      34.483  10.846  10.379  0.00  0.00     0.031 A 
HETATM    4  C   UNK N   1      34.376  10.810  13.149  0.00  0.00     0.021 A 
HETATM    5  C   UNK N   1      35.402  11.642  11.096  0.00  0.00     0.047 A 
HETATM    6  C   UNK N   1      35.359  11.594  12.532  0.00  0.00     0.032 A 
ENDROOT
BRANCH   6   7
HETATM    7  S   UNK N   1      36.313  12.694  13.616  0.00  0.00    -0.088 SA
BRANCH   7   8
HETATM    8  C   UNK N   1      36.165  12.177  15.365  0.00  0.00     0.011 A 
HETATM    9  C   UNK N   1      35.422  13.053  16.173  0.00  0.00     0.020 A 
HETATM   10  C   UNK N   1      35.114  12.740  17.499  0.00  0.00     0.008 A 
HETATM   11  C   UNK N   1      35.541  11.535  18.046  0.00  0.00    -0.061 A 
HETATM   12  C   UNK N   1      35.179  11.177  19.443  0.00  0.00     0.048 C 
HETATM   13  C   UNK N   1      36.293  10.652  17.271  0.00  0.00     0.014 A 
HETATM   14  C   UNK N   1      36.611  10.954  15.941  0.00  0.00    -0.044 A 
HETATM   15  C   UNK N   1      37.378   9.929  15.199  0.00  0.00     0.049 C 
ENDBRANCH   7   8
ENDBRANCH   6   7
BRANCH   5  16
HETATM   16  N   UNK N   1      36.285  12.489  10.338  0.00  0.00    -0.377 N 
HETATM   17  C   UNK N   1      35.853  13.811   9.937  0.00  0.00     0.150 C 
HETATM   18  C   UNK N   1      36.847  14.829  10.498  0.00  0.00     0.252 C 
HETATM   19  N   UNK N   1      38.196  14.513  10.021  0.00  0.00    -0.072 N 
HETATM   20  C   UNK N   1      38.590  13.193  10.519  0.00  0.00     0.252 C 
HETATM   21  H   UNK N   1      38.770  15.118   9.434  0.00  0.00     0.277 HD
HETATM   22  H   UNK N   1      39.120  14.171   9.759  0.00  0.00     0.277 HD
HETATM   23  C   UNK N   1      37.638  12.119   9.992  0.00  0.00     0.150 C 
ENDBRANCH   5  16
TORSDOF 3
ENDMDL
MODEL 5
REMARK VINA RESULT:      -6.2      6.490      9.250
REMARK  3 active torsions:
REMARK  status: ('A' for Active; 'I' for Inactive)
REMARK    1  A    between atoms: N_20  and  C_16 
REMARK    2  A    between atoms: S_21  and  C_17 
REMARK    3  A    between atoms: S_21  and  C_18 
ROOT
HETATM    1  C   UNK N   1      38.371  12.633  10.332  0.00  0.00     0.002 A 
HETATM    2  C   UNK N   1      37.974  13.485   9.312  0.00  0.00     0.002 A 
HETATM    3  C   UNK N   1      37.718  12.672  11.561  0.00  0.00     0.031 A 
HETATM    4  C   UNK N   1      36.920  14.370   9.519  0.00  0.00     0.021 A 
HETATM    5  C   UNK N   1      36.631  13.541  11.796  0.00  0.00     0.047 A 
HETATM    6  C   UNK N   1      36.205  14.396  10.723  0.00  0.00     0.032 A 
ENDROOT
BRANCH   6   7
HETATM    7  S   UNK N   1      34.971  15.716  10.900  0.00  0.00    -0.088 SA
BRANCH   7   8
HETATM    8  C   UNK N   1      34.260  16.169   9.276  0.00  0.00     0.011 A 
HETATM    9  C   UNK N   1      34.599  17.456   8.828  0.00  0.00     0.020 A 
HETATM   10  C   UNK N   1      34.238  17.904   7.555  0.00  0.00     0.008 A 
HETATM   11  C   UNK N   1      33.531  17.068   6.698  0.00  0.00    -0.061 A 
HETATM   12  C   UNK N   1      33.183  17.525   5.327  0.00  0.00     0.048 C 
HETATM   13  C   UNK N   1      33.168  15.790   7.122  0.00  0.00     0.014 A 
HETATM   14  C   UNK N   1      33.522  15.328   8.396  0.00  0.00    -0.044 A 
HETATM   15  C   UNK N   1      33.121  13.943   8.727  0.00  0.00     0.049 C 
ENDBRANCH   7   8
ENDBRANCH   6   7
BRANCH   5  16
HETATM   16  N   UNK N   1      36.057  13.548  13.116  0.00  0.00    -0.377 N 
HETATM   17  C   UNK N   1      35.058  12.564  13.477  0.00  0.00     0.150 C 
HETATM   18  C   UNK N   1      35.565  11.794  14.697  0.00  0.00     0.252 C 
HETATM   19  N   UNK N   1      35.845  12.732  15.788  0.00  0.00    -0.072 N 
HETATM   20  C   UNK N   1      36.908  13.652  15.376  0.00  0.00     0.252 C 
HETATM   21  H   UNK N   1      35.374  12.741  16.693  0.00  0.00     0.277 HD
HETATM   22  H   UNK N   1      36.137  13.439  16.461  0.00  0.00     0.277 HD
HETATM   23  C   UNK N   1      36.467  14.462  14.157  0.00  0.00     0.150 C 
ENDBRANCH   5  16
TORSDOF 3
ENDMDL
MODEL 6
REMARK VINA RESULT:      -6.2     10.080     13.768
REMARK  3 active torsions:
REMARK  status: ('A' for Active; 'I' for Inactive)
REMARK    1  A    between atoms: N_20  and  C_16 
REMARK    2  A    between atoms: S_21  and  C_17 
REMARK    3  A    between atoms: S_21  and  C_18 
ROOT
HETATM    1  C   UNK N   1      33.944  10.411  12.013  0.00  0.00     0.002 A 
HETATM    2  C   UNK N   1      33.581  10.294  13.347  0.00  0.00     0.002 A 
HETATM    3  C   UNK N   1      34.909  11.340  11.637  0.00  0.00     0.031 A 
HETATM    4  C   UNK N   1      34.188  11.102  14.303  0.00  0.00     0.021 A 
HETATM    5  C   UNK N   1      35.561  12.158  12.584  0.00  0.00     0.047 A 
HETATM    6  C   UNK N   1      35.203  12.007  13.967  0.00  0.00     0.032 A 
ENDROOT
BRANCH   6   7
HETATM    7  S   UNK N   1      35.777  13.105  15.294  0.00  0.00    -0.088 SA
BRANCH   7   8
HETATM    8  C   UNK N   1      35.625  12.292  16.927  0.00  0.00     0.011 A 
HETATM    9  C   UNK N   1      35.984  10.935  16.940  0.00  0.00     0.020 A 
HETATM   10  C   UNK N   1      36.041  10.206  18.130  0.00  0.00     0.008 A 
HETATM   11  C   UNK N   1      35.743  10.825  19.339  0.00  0.00    -0.061 A 
HETATM   12  C   UNK N   1      35.845  10.065  20.613  0.00  0.00     0.048 C 
HETATM   13  C   UNK N   1      35.370  12.169  19.355  0.00  0.00     0.014 A 
HETATM   14  C   UNK N   1      35.307  12.911  18.169  0.00  0.00    -0.044 A 
HETATM   15  C   UNK N   1      34.940  14.337  18.305  0.00  0.00     0.049 C 
ENDBRANCH   7   8
ENDBRANCH   6   7
BRANCH   5  16
HETATM   16  N   UNK N   1      36.504  13.128  12.091  0.00  0.00    -0.377 N 
HETATM   17  C   UNK N   1      37.827  12.707  11.681  0.00  0.00     0.150 C 
HETATM   18  C   UNK N   1      38.030  13.125  10.224  0.00  0.00     0.252 C 
HETATM   19  N   UNK N   1      37.840  14.572  10.096  0.00  0.00    -0.072 N 
HETATM   20  C   UNK N   1      36.463  14.914  10.463  0.00  0.00     0.252 C 
HETATM   21  H   UNK N   1      38.554  15.237   9.797  0.00  0.00     0.277 HD
HETATM   22  H   UNK N   1      37.574  15.555  10.049  0.00  0.00     0.277 HD
HETATM   23  C   UNK N   1      36.189  14.527  11.917  0.00  0.00     0.150 C 
ENDBRANCH   5  16
TORSDOF 3
ENDMDL
MODEL 7
REMARK VINA RESULT:      -6.1     11.913     14.912
REMARK  3 active torsions:
REMARK  status: ('A' for Active; 'I' for Inactive)
REMARK    1  A    between atoms: N_20  and  C_16 
REMARK    2  A    between atoms: S_21  and  C_17 
REMARK    3  A    between atoms: S_21  and  C_18 
ROOT
HETATM    1  C   UNK N   1      25.737  22.317  -7.520  0.00  0.00     0.002 A 
HETATM    2  C   UNK N   1      25.235  23.159  -8.503  0.00  0.00     0.002 A 
HETATM    3  C   UNK N   1      26.670  22.798  -6.606  0.00  0.00     0.031 A 
HETATM    4  C   UNK N   1      25.661  24.482  -8.564  0.00  0.00     0.021 A 
HETATM    5  C   UNK N   1      27.106  24.140  -6.627  0.00  0.00     0.047 A 
HETATM    6  C   UNK N   1      26.555  25.014  -7.626  0.00  0.00     0.032 A 
ENDROOT
BRANCH   6   7
HETATM    7  S   UNK N   1      27.144  26.702  -7.938  0.00  0.00    -0.088 SA
BRANCH   7   8
HETATM    8  C   UNK N   1      26.956  27.747  -6.448  0.00  0.00     0.011 A 
HETATM    9  C   UNK N   1      27.941  28.737  -6.300  0.00  0.00     0.020 A 
HETATM   10  C   UNK N   1      27.869  29.693  -5.284  0.00  0.00     0.008 A 
HETATM   11  C   UNK N   1      26.802  29.679  -4.391  0.00  0.00    -0.061 A 
HETATM   12  C   UNK N   1      26.699  30.720  -3.335  0.00  0.00     0.048 C 
HETATM   13  C   UNK N   1      25.818  28.699  -4.505  0.00  0.00     0.014 A 
HETATM   14  C   UNK N   1      25.878  27.733  -5.518  0.00  0.00    -0.044 A 
HETATM   15  C   UNK N   1      24.761  26.765  -5.571  0.00  0.00     0.049 C 
ENDBRANCH   7   8
ENDBRANCH   6   7
BRANCH   5  16
HETATM   16  N   UNK N   1      28.115  24.528  -5.676  0.00  0.00    -0.377 N 
HETATM   17  C   UNK N   1      27.745  24.818  -4.307  0.00  0.00     0.150 C 
HETATM   18  C   UNK N   1      28.541  23.889  -3.390  0.00  0.00     0.252 C 
HETATM   19  N   UNK N   1      29.975  24.070  -3.632  0.00  0.00    -0.072 N 
HETATM   20  C   UNK N   1      30.285  23.694  -5.014  0.00  0.00     0.252 C 
HETATM   21  H   UNK N   1      30.652  24.404  -2.945  0.00  0.00     0.277 HD
HETATM   22  H   UNK N   1      30.946  24.149  -3.932  0.00  0.00     0.277 HD
HETATM   23  C   UNK N   1      29.523  24.590  -5.992  0.00  0.00     0.150 C 
ENDBRANCH   5  16
TORSDOF 3
ENDMDL
MODEL 8
REMARK VINA RESULT:      -6.1     10.822     13.910
REMARK  3 active torsions:
REMARK  status: ('A' for Active; 'I' for Inactive)
REMARK    1  A    between atoms: N_20  and  C_16 
REMARK    2  A    between atoms: S_21  and  C_17 
REMARK    3  A    between atoms: S_21  and  C_18 
ROOT
HETATM    1  C   UNK N   1      30.126  28.518  -3.045  0.00  0.00     0.002 A 
HETATM    2  C   UNK N   1      31.159  27.602  -3.190  0.00  0.00     0.002 A 
HETATM    3  C   UNK N   1      28.853  28.205  -3.512  0.00  0.00     0.031 A 
HETATM    4  C   UNK N   1      30.916  26.374  -3.797  0.00  0.00     0.021 A 
HETATM    5  C   UNK N   1      28.567  26.960  -4.111  0.00  0.00     0.047 A 
HETATM    6  C   UNK N   1      29.634  26.005  -4.227  0.00  0.00     0.032 A 
ENDROOT
BRANCH   6   7
HETATM    7  S   UNK N   1      29.511  24.445  -5.147  0.00  0.00    -0.088 SA
BRANCH   7   8
HETATM    8  C   UNK N   1      30.696  23.209  -4.501  0.00  0.00     0.011 A 
HETATM    9  C   UNK N   1      31.734  22.876  -5.387  0.00  0.00     0.020 A 
HETATM   10  C   UNK N   1      32.786  22.044  -4.998  0.00  0.00     0.008 A 
HETATM   11  C   UNK N   1      32.823  21.527  -3.707  0.00  0.00    -0.061 A 
HETATM   12  C   UNK N   1      33.963  20.675  -3.276  0.00  0.00     0.048 C 
HETATM   13  C   UNK N   1      31.799  21.829  -2.812  0.00  0.00     0.014 A 
HETATM   14  C   UNK N   1      30.737  22.661  -3.188  0.00  0.00    -0.044 A 
HETATM   15  C   UNK N   1      29.726  22.948  -2.147  0.00  0.00     0.049 C 
ENDBRANCH   7   8
ENDBRANCH   6   7
BRANCH   5  16
HETATM   16  N   UNK N   1      27.234  26.752  -4.613  0.00  0.00    -0.377 N 
HETATM   17  C   UNK N   1      26.857  27.281  -5.907  0.00  0.00     0.150 C 
HETATM   18  C   UNK N   1      26.381  26.119  -6.778  0.00  0.00     0.252 C 
HETATM   19  N   UNK N   1      25.273  25.427  -6.113  0.00  0.00    -0.072 N 
HETATM   20  C   UNK N   1      25.745  24.862  -4.846  0.00  0.00     0.252 C 
HETATM   21  H   UNK N   1      24.323  25.351  -6.476  0.00  0.00     0.277 HD
HETATM   22  H   UNK N   1      24.596  24.916  -5.548  0.00  0.00     0.277 HD
HETATM   23  C   UNK N   1      26.235  25.974  -3.918  0.00  0.00     0.150 C 
ENDBRANCH   5  16
TORSDOF 3
ENDMDL
MODEL 9
REMARK VINA RESULT:      -6.0     10.995     13.855
REMARK  3 active torsions:
REMARK  status: ('A' for Active; 'I' for Inactive)
REMARK    1  A    between atoms: N_20  and  C_16 
REMARK    2  A    between atoms: S_21  and  C_17 
REMARK    3  A    between atoms: S_21  and  C_18 
ROOT
HETATM    1  C   UNK N   1      30.627  22.244  -3.270  0.00  0.00     0.002 A 
HETATM    2  C   UNK N   1      29.900  22.787  -2.220  0.00  0.00     0.002 A 
HETATM    3  C   UNK N   1      30.220  22.469  -4.582  0.00  0.00     0.031 A 
HETATM    4  C   UNK N   1      28.773  23.560  -2.483  0.00  0.00     0.021 A 
HETATM    5  C   UNK N   1      29.096  23.266  -4.885  0.00  0.00     0.047 A 
HETATM    6  C   UNK N   1      28.370  23.853  -3.793  0.00  0.00     0.032 A 
ENDROOT
BRANCH   6   7
HETATM    7  S   UNK N   1      26.790  24.729  -3.973  0.00  0.00    -0.088 SA
BRANCH   7   8
HETATM    8  C   UNK N   1      27.063  26.489  -4.393  0.00  0.00     0.011 A 
HETATM    9  C   UNK N   1      28.333  26.981  -4.054  0.00  0.00     0.020 A 
HETATM   10  C   UNK N   1      28.740  28.266  -4.419  0.00  0.00     0.008 A 
HETATM   11  C   UNK N   1      27.880  29.089  -5.140  0.00  0.00    -0.061 A 
HETATM   12  C   UNK N   1      28.325  30.442  -5.569  0.00  0.00     0.048 C 
HETATM   13  C   UNK N   1      26.608  28.632  -5.479  0.00  0.00     0.014 A 
HETATM   14  C   UNK N   1      26.186  27.346  -5.117  0.00  0.00    -0.044 A 
HETATM   15  C   UNK N   1      24.833  26.948  -5.563  0.00  0.00     0.049 C 
ENDBRANCH   7   8
ENDBRANCH   6   7
BRANCH   5  16
HETATM   16  N   UNK N   1      28.722  23.394  -6.269  0.00  0.00    -0.377 N 
HETATM   17  C   UNK N   1      27.924  22.365  -6.902  0.00  0.00     0.150 C 
HETATM   18  C   UNK N   1      26.652  23.015  -7.448  0.00  0.00     0.252 C 
HETATM   19  N   UNK N   1      27.010  24.093  -8.374  0.00  0.00    -0.072 N 
HETATM   20  C   UNK N   1      27.757  25.126  -7.651  0.00  0.00     0.252 C 
HETATM   21  H   UNK N   1      26.776  24.119  -9.367  0.00  0.00     0.277 HD
HETATM   22  H   UNK N   1      27.321  24.904  -8.907  0.00  0.00     0.277 HD
HETATM   23  C   UNK N   1      29.050  24.545  -7.078  0.00  0.00     0.150 C 
ENDBRANCH   5  16
TORSDOF 3
ENDMDL
