MODEL 1
REMARK VINA RESULT:      -7.2      0.000      0.000
REMARK  5 active torsions:
REMARK  status: ('A' for Active; 'I' for Inactive)
REMARK    1  A    between atoms: C_14  and  O_24 
REMARK    2  A    between atoms: C_17  and  C_19 
REMARK    3  A    between atoms: C_17  and  O_23 
REMARK    4  A    between atoms: C_19  and  C_20 
REMARK    5  A    between atoms: C_20  and  S_22 
ROOT
HETATM    1  C   UNK N   1      32.454  21.815  -4.054  0.00  0.00     0.084 C 
HETATM    2  C   UNK N   1      31.876  20.579  -4.694  0.00  0.00     0.149 C 
HETATM    3  C   UNK N   1      30.730  20.675  -5.624  0.00  0.00     0.053 C 
HETATM    4  C   UNK N   1      30.018  21.809  -5.727  0.00  0.00    -0.068 C 
HETATM    5  C   UNK N   1      30.280  22.954  -4.749  0.00  0.00    -0.014 C 
HETATM    6  C   UNK N   1      31.802  23.105  -4.583  0.00  0.00     0.022 C 
HETATM    7  C   UNK N   1      28.880  21.831  -6.720  0.00  0.00     0.035 C 
HETATM    8  C   UNK N   1      28.137  23.159  -6.865  0.00  0.00     0.010 C 
HETATM    9  C   UNK N   1      28.142  24.007  -5.595  0.00  0.00    -0.002 C 
HETATM   10  C   UNK N   1      29.623  24.293  -5.206  0.00  0.00     0.031 C 
HETATM   11  C   UNK N   1      27.385  25.326  -5.829  0.00  0.00     0.002 C 
HETATM   12  C   UNK N   1      27.442  26.221  -4.593  0.00  0.00     0.001 C 
HETATM   13  C   UNK N   1      28.893  26.639  -4.365  0.00  0.00     0.045 C 
HETATM   14  C   UNK N   1      29.744  25.388  -4.098  0.00  0.00     0.124 C 
HETATM   15  C   UNK N   1      25.887  25.214  -6.105  0.00  0.00     0.009 C 
HETATM   16  C   UNK N   1      25.282  26.524  -5.559  0.00  0.00     0.047 C 
HETATM   17  C   UNK N   1      26.455  27.335  -4.977  0.00  0.00     0.126 C 
HETATM   18  O   UNK N   1      32.368  19.489  -4.452  0.00  0.00    -0.293 OA
HETATM   19  C   UNK N   1      29.688  22.542  -3.391  0.00  0.00     0.020 C 
HETATM   20  C   UNK N   1      26.923  25.491  -3.330  0.00  0.00     0.019 C 
ENDROOT
BRANCH  17  21
HETATM   21  C   UNK N   1      26.101  28.232  -3.800  0.00  0.00     0.170 C 
HETATM   22  O   UNK N   1      25.282  27.843  -2.981  0.00  0.00    -0.294 OA
BRANCH  21  23
HETATM   23  C   UNK N   1      26.672  29.610  -3.644  0.00  0.00     0.152 C 
BRANCH  23  24
HETATM   24  S   UNK N   1      27.912  29.672  -2.319  0.00  0.00    -0.175 SA
HETATM   25  H   UNK N   1      27.654  29.172  -1.080  0.00  0.00     0.102 HD
ENDBRANCH  23  24
ENDBRANCH  21  23
ENDBRANCH  17  21
BRANCH  17  26
HETATM   26  O   UNK N   1      26.979  28.129  -6.004  0.00  0.00    -0.381 OA
HETATM   27  H   UNK N   1      27.182  28.854  -6.615  0.00  0.00     0.211 HD
ENDBRANCH  17  26
BRANCH  14  28
HETATM   28  O   UNK N   1      31.072  25.772  -3.909  0.00  0.00    -0.395 OA
HETATM   29  H   UNK N   1      31.636  26.478  -4.261  0.00  0.00     0.210 HD
ENDBRANCH  14  28
TORSDOF 5
ENDMDL
MODEL 2
REMARK VINA RESULT:      -7.1      2.908      4.108
REMARK  5 active torsions:
REMARK  status: ('A' for Active; 'I' for Inactive)
REMARK    1  A    between atoms: C_14  and  O_24 
REMARK    2  A    between atoms: C_17  and  C_19 
REMARK    3  A    between atoms: C_17  and  O_23 
REMARK    4  A    between atoms: C_19  and  C_20 
REMARK    5  A    between atoms: C_20  and  S_22 
ROOT
HETATM    1  C   UNK N   1      32.805  20.120  -5.108  0.00  0.00     0.084 C 
HETATM    2  C   UNK N   1      33.386  20.686  -3.837  0.00  0.00     0.149 C 
HETATM    3  C   UNK N   1      32.558  21.512  -2.931  0.00  0.00     0.053 C 
HETATM    4  C   UNK N   1      31.367  21.989  -3.326  0.00  0.00    -0.068 C 
HETATM    5  C   UNK N   1      30.938  21.828  -4.784  0.00  0.00    -0.014 C 
HETATM    6  C   UNK N   1      31.297  20.402  -5.236  0.00  0.00     0.022 C 
HETATM    7  C   UNK N   1      30.575  22.802  -2.330  0.00  0.00     0.035 C 
HETATM    8  C   UNK N   1      29.192  23.268  -2.786  0.00  0.00     0.010 C 
HETATM    9  C   UNK N   1      29.081  23.474  -4.296  0.00  0.00    -0.002 C 
HETATM   10  C   UNK N   1      29.422  22.126  -4.998  0.00  0.00     0.031 C 
HETATM   11  C   UNK N   1      27.661  23.931  -4.671  0.00  0.00     0.002 C 
HETATM   12  C   UNK N   1      27.509  24.072  -6.183  0.00  0.00     0.001 C 
HETATM   13  C   UNK N   1      27.654  22.689  -6.815  0.00  0.00     0.045 C 
HETATM   14  C   UNK N   1      29.058  22.142  -6.517  0.00  0.00     0.124 C 
HETATM   15  C   UNK N   1      27.223  25.298  -4.150  0.00  0.00     0.009 C 
HETATM   16  C   UNK N   1      26.219  25.821  -5.200  0.00  0.00     0.047 C 
HETATM   17  C   UNK N   1      26.128  24.738  -6.290  0.00  0.00     0.126 C 
HETATM   18  O   UNK N   1      34.547  20.450  -3.547  0.00  0.00    -0.293 OA
HETATM   19  C   UNK N   1      31.767  22.818  -5.618  0.00  0.00     0.020 C 
HETATM   20  C   UNK N   1      28.579  25.016  -6.783  0.00  0.00     0.019 C 
ENDROOT
BRANCH  17  21
HETATM   21  C   UNK N   1      25.836  25.253  -7.691  0.00  0.00     0.170 C 
HETATM   22  O   UNK N   1      25.852  26.458  -7.898  0.00  0.00    -0.294 OA
BRANCH  21  23
HETATM   23  C   UNK N   1      25.460  24.339  -8.820  0.00  0.00     0.152 C 
BRANCH  23  24
HETATM   24  S   UNK N   1      25.194  25.258 -10.363  0.00  0.00    -0.175 SA
HETATM   25  H   UNK N   1      25.912  26.376 -10.657  0.00  0.00     0.102 HD
ENDBRANCH  23  24
ENDBRANCH  21  23
ENDBRANCH  17  21
BRANCH  17  26
HETATM   26  O   UNK N   1      25.115  23.843  -5.923  0.00  0.00    -0.381 OA
HETATM   27  H   UNK N   1      24.296  23.327  -5.871  0.00  0.00     0.211 HD
ENDBRANCH  17  26
BRANCH  14  28
HETATM   28  O   UNK N   1      29.181  20.871  -7.080  0.00  0.00    -0.395 OA
HETATM   29  H   UNK N   1      29.181  20.522  -7.985  0.00  0.00     0.210 HD
ENDBRANCH  14  28
TORSDOF 5
ENDMDL
MODEL 3
REMARK VINA RESULT:      -7.0     19.713     22.616
REMARK  5 active torsions:
REMARK  status: ('A' for Active; 'I' for Inactive)
REMARK    1  A    between atoms: C_14  and  O_24 
REMARK    2  A    between atoms: C_17  and  C_19 
REMARK    3  A    between atoms: C_17  and  O_23 
REMARK    4  A    between atoms: C_19  and  C_20 
REMARK    5  A    between atoms: C_20  and  S_22 
ROOT
HETATM    1  C   UNK N   1      35.550  10.340  16.914  0.00  0.00     0.084 C 
HETATM    2  C   UNK N   1      35.696   8.951  16.345  0.00  0.00     0.149 C 
HETATM    3  C   UNK N   1      36.304   8.740  15.014  0.00  0.00     0.053 C 
HETATM    4  C   UNK N   1      36.505   9.770  14.175  0.00  0.00    -0.068 C 
HETATM    5  C   UNK N   1      35.941  11.147  14.526  0.00  0.00    -0.014 C 
HETATM    6  C   UNK N   1      36.204  11.408  16.019  0.00  0.00     0.022 C 
HETATM    7  C   UNK N   1      37.156   9.471  12.846  0.00  0.00     0.035 C 
HETATM    8  C   UNK N   1      37.437  10.674  11.946  0.00  0.00     0.010 C 
HETATM    9  C   UNK N   1      36.462  11.833  12.148  0.00  0.00    -0.002 C 
HETATM   10  C   UNK N   1      36.539  12.281  13.637  0.00  0.00     0.031 C 
HETATM   11  C   UNK N   1      36.821  13.003  11.216  0.00  0.00     0.002 C 
HETATM   12  C   UNK N   1      35.901  14.199  11.454  0.00  0.00     0.001 C 
HETATM   13  C   UNK N   1      36.155  14.730  12.864  0.00  0.00     0.045 C 
HETATM   14  C   UNK N   1      35.806  13.638  13.886  0.00  0.00     0.124 C 
HETATM   15  C   UNK N   1      36.678  12.751   9.717  0.00  0.00     0.009 C 
HETATM   16  C   UNK N   1      36.342  14.131   9.111  0.00  0.00     0.047 C 
HETATM   17  C   UNK N   1      36.293  15.121  10.289  0.00  0.00     0.126 C 
HETATM   18  O   UNK N   1      35.320   7.990  16.997  0.00  0.00    -0.293 OA
HETATM   19  C   UNK N   1      34.421  11.088  14.309  0.00  0.00     0.020 C 
HETATM   20  C   UNK N   1      34.409  13.813  11.322  0.00  0.00     0.019 C 
ENDROOT
BRANCH  17  21
HETATM   21  C   UNK N   1      35.328  16.284  10.116  0.00  0.00     0.170 C 
HETATM   22  O   UNK N   1      35.305  17.169  10.958  0.00  0.00    -0.294 OA
BRANCH  21  23
HETATM   23  C   UNK N   1      34.350  16.352   8.980  0.00  0.00     0.152 C 
BRANCH  23  24
HETATM   24  S   UNK N   1      34.327  17.999   8.217  0.00  0.00    -0.175 SA
HETATM   25  H   UNK N   1      33.524  18.279   7.155  0.00  0.00     0.102 HD
ENDBRANCH  23  24
ENDBRANCH  21  23
ENDBRANCH  17  21
BRANCH  17  26
HETATM   26  O   UNK N   1      37.583  15.634  10.472  0.00  0.00    -0.381 OA
HETATM   27  H   UNK N   1      38.346  16.203  10.655  0.00  0.00     0.211 HD
ENDBRANCH  17  26
BRANCH  14  28
HETATM   28  O   UNK N   1      36.057  14.120  15.172  0.00  0.00    -0.395 OA
HETATM   29  H   UNK N   1      36.731  14.695  15.566  0.00  0.00     0.210 HD
ENDBRANCH  14  28
TORSDOF 5
ENDMDL
MODEL 4
REMARK VINA RESULT:      -6.9      2.770      7.238
REMARK  5 active torsions:
REMARK  status: ('A' for Active; 'I' for Inactive)
REMARK    1  A    between atoms: C_14  and  O_24 
REMARK    2  A    between atoms: C_17  and  C_19 
REMARK    3  A    between atoms: C_17  and  O_23 
REMARK    4  A    between atoms: C_19  and  C_20 
REMARK    5  A    between atoms: C_20  and  S_22 
ROOT
HETATM    1  C   UNK N   1      26.582  25.883  -3.529  0.00  0.00     0.084 C 
HETATM    2  C   UNK N   1      26.089  26.129  -4.932  0.00  0.00     0.149 C 
HETATM    3  C   UNK N   1      26.373  25.160  -6.013  0.00  0.00     0.053 C 
HETATM    4  C   UNK N   1      27.277  24.181  -5.843  0.00  0.00    -0.068 C 
HETATM    5  C   UNK N   1      28.150  24.173  -4.589  0.00  0.00    -0.014 C 
HETATM    6  C   UNK N   1      27.259  24.508  -3.381  0.00  0.00     0.022 C 
HETATM    7  C   UNK N   1      27.487  23.219  -6.988  0.00  0.00     0.035 C 
HETATM    8  C   UNK N   1      28.469  22.074  -6.736  0.00  0.00     0.010 C 
HETATM    9  C   UNK N   1      29.568  22.418  -5.733  0.00  0.00    -0.002 C 
HETATM   10  C   UNK N   1      28.892  22.815  -4.387  0.00  0.00     0.031 C 
HETATM   11  C   UNK N   1      30.503  21.214  -5.529  0.00  0.00     0.002 C 
HETATM   12  C   UNK N   1      31.566  21.513  -4.475  0.00  0.00     0.001 C 
HETATM   13  C   UNK N   1      30.871  21.701  -3.127  0.00  0.00     0.045 C 
HETATM   14  C   UNK N   1      29.918  22.903  -3.212  0.00  0.00     0.124 C 
HETATM   15  C   UNK N   1      31.328  20.777  -6.737  0.00  0.00     0.009 C 
HETATM   16  C   UNK N   1      32.615  20.168  -6.141  0.00  0.00     0.047 C 
HETATM   17  C   UNK N   1      32.485  20.289  -4.612  0.00  0.00     0.126 C 
HETATM   18  O   UNK N   1      25.438  27.132  -5.176  0.00  0.00    -0.293 OA
HETATM   19  C   UNK N   1      29.189  25.295  -4.745  0.00  0.00     0.020 C 
HETATM   20  C   UNK N   1      32.366  22.795  -4.812  0.00  0.00     0.019 C 
ENDROOT
BRANCH  17  21
HETATM   21  C   UNK N   1      33.798  20.459  -3.862  0.00  0.00     0.170 C 
HETATM   22  O   UNK N   1      33.775  20.831  -2.699  0.00  0.00    -0.294 OA
BRANCH  21  23
HETATM   23  C   UNK N   1      35.129  20.251  -4.521  0.00  0.00     0.152 C 
BRANCH  23  24
HETATM   24  S   UNK N   1      36.289  21.588  -4.118  0.00  0.00    -0.175 SA
HETATM   25  H   UNK N   1      35.912  22.651  -3.358  0.00  0.00     0.102 HD
ENDBRANCH  23  24
ENDBRANCH  21  23
ENDBRANCH  17  21
BRANCH  17  26
HETATM   26  O   UNK N   1      31.848  19.134  -4.143  0.00  0.00    -0.381 OA
HETATM   27  H   UNK N   1      31.588  18.218  -3.959  0.00  0.00     0.211 HD
ENDBRANCH  17  26
BRANCH  14  28
HETATM   28  O   UNK N   1      29.271  23.060  -1.986  0.00  0.00    -0.395 OA
HETATM   29  H   UNK N   1      28.504  22.647  -1.561  0.00  0.00     0.210 HD
ENDBRANCH  14  28
TORSDOF 5
ENDMDL
MODEL 5
REMARK VINA RESULT:      -6.9     22.791     25.755
REMARK  5 active torsions:
REMARK  status: ('A' for Active; 'I' for Inactive)
REMARK    1  A    between atoms: C_14  and  O_24 
REMARK    2  A    between atoms: C_17  and  C_19 
REMARK    3  A    between atoms: C_17  and  O_23 
REMARK    4  A    between atoms: C_19  and  C_20 
REMARK    5  A    between atoms: C_20  and  S_22 
ROOT
HETATM    1  C   UNK N   1      34.898   8.507  19.359  0.00  0.00     0.084 C 
HETATM    2  C   UNK N   1      35.299   9.431  20.480  0.00  0.00     0.149 C 
HETATM    3  C   UNK N   1      35.338  10.895  20.275  0.00  0.00     0.053 C 
HETATM    4  C   UNK N   1      35.270  11.421  19.041  0.00  0.00    -0.068 C 
HETATM    5  C   UNK N   1      35.330  10.498  17.825  0.00  0.00    -0.014 C 
HETATM    6  C   UNK N   1      34.441   9.275  18.106  0.00  0.00     0.022 C 
HETATM    7  C   UNK N   1      35.290  12.927  18.922  0.00  0.00     0.035 C 
HETATM    8  C   UNK N   1      35.137  13.495  17.511  0.00  0.00     0.010 C 
HETATM    9  C   UNK N   1      35.670  12.571  16.417  0.00  0.00    -0.002 C 
HETATM   10  C   UNK N   1      34.906  11.217  16.507  0.00  0.00     0.031 C 
HETATM   11  C   UNK N   1      35.469  13.210  15.032  0.00  0.00     0.002 C 
HETATM   12  C   UNK N   1      35.929  12.271  13.919  0.00  0.00     0.001 C 
HETATM   13  C   UNK N   1      35.022  11.041  13.918  0.00  0.00     0.045 C 
HETATM   14  C   UNK N   1      35.162  10.309  15.262  0.00  0.00     0.124 C 
HETATM   15  C   UNK N   1      36.252  14.490  14.749  0.00  0.00     0.009 C 
HETATM   16  C   UNK N   1      36.491  14.482  13.225  0.00  0.00     0.047 C 
HETATM   17  C   UNK N   1      35.846  13.190  12.690  0.00  0.00     0.126 C 
HETATM   18  O   UNK N   1      35.583   8.967  21.572  0.00  0.00    -0.293 OA
HETATM   19  C   UNK N   1      36.783  10.014  17.688  0.00  0.00     0.020 C 
HETATM   20  C   UNK N   1      37.395  11.816  14.120  0.00  0.00     0.019 C 
ENDROOT
BRANCH  17  21
HETATM   21  C   UNK N   1      36.520  12.589  11.466  0.00  0.00     0.170 C 
HETATM   22  O   UNK N   1      35.972  11.669  10.877  0.00  0.00    -0.294 OA
BRANCH  21  23
HETATM   23  C   UNK N   1      37.870  13.039  10.993  0.00  0.00     0.152 C 
BRANCH  23  24
HETATM   24  S   UNK N   1      37.765  13.898   9.397  0.00  0.00    -0.175 SA
HETATM   25  H   UNK N   1      37.652  15.252   9.324  0.00  0.00     0.102 HD
ENDBRANCH  23  24
ENDBRANCH  21  23
ENDBRANCH  17  21
BRANCH  17  26
HETATM   26  O   UNK N   1      34.513  13.476  12.373  0.00  0.00    -0.381 OA
HETATM   27  H   UNK N   1      33.648  13.544  11.939  0.00  0.00     0.211 HD
ENDBRANCH  17  26
BRANCH  14  28
HETATM   28  O   UNK N   1      34.318   9.197  15.264  0.00  0.00    -0.395 OA
HETATM   29  H   UNK N   1      33.954   8.614  14.580  0.00  0.00     0.210 HD
ENDBRANCH  14  28
TORSDOF 5
ENDMDL
MODEL 6
REMARK VINA RESULT:      -6.8     12.243     15.177
REMARK  5 active torsions:
REMARK  status: ('A' for Active; 'I' for Inactive)
REMARK    1  A    between atoms: C_14  and  O_24 
REMARK    2  A    between atoms: C_17  and  C_19 
REMARK    3  A    between atoms: C_17  and  O_23 
REMARK    4  A    between atoms: C_19  and  C_20 
REMARK    5  A    between atoms: C_20  and  S_22 
ROOT
HETATM    1  C   UNK N   1      26.874  16.440   3.050  0.00  0.00     0.084 C 
HETATM    2  C   UNK N   1      25.845  16.587   4.142  0.00  0.00     0.149 C 
HETATM    3  C   UNK N   1      26.223  17.118   5.470  0.00  0.00     0.053 C 
HETATM    4  C   UNK N   1      27.514  17.241   5.822  0.00  0.00    -0.068 C 
HETATM    5  C   UNK N   1      28.600  16.664   4.915  0.00  0.00    -0.014 C 
HETATM    6  C   UNK N   1      28.244  17.010   3.460  0.00  0.00     0.022 C 
HETATM    7  C   UNK N   1      27.812  17.817   7.186  0.00  0.00     0.035 C 
HETATM    8  C   UNK N   1      29.290  18.012   7.527  0.00  0.00     0.010 C 
HETATM    9  C   UNK N   1      30.217  17.020   6.826  0.00  0.00    -0.002 C 
HETATM   10  C   UNK N   1      30.025  17.177   5.289  0.00  0.00     0.031 C 
HETATM   11  C   UNK N   1      31.682  17.291   7.214  0.00  0.00     0.002 C 
HETATM   12  C   UNK N   1      32.631  16.357   6.467  0.00  0.00     0.001 C 
HETATM   13  C   UNK N   1      32.555  16.682   4.976  0.00  0.00     0.045 C 
HETATM   14  C   UNK N   1      31.126  16.425   4.475  0.00  0.00     0.124 C 
HETATM   15  C   UNK N   1      32.054  17.064   8.677  0.00  0.00     0.009 C 
HETATM   16  C   UNK N   1      33.542  16.656   8.651  0.00  0.00     0.047 C 
HETATM   17  C   UNK N   1      33.965  16.652   7.170  0.00  0.00     0.126 C 
HETATM   18  O   UNK N   1      24.686  16.277   3.924  0.00  0.00    -0.293 OA
HETATM   19  C   UNK N   1      28.560  15.135   5.069  0.00  0.00     0.020 C 
HETATM   20  C   UNK N   1      32.260  14.870   6.678  0.00  0.00     0.019 C 
ENDROOT
BRANCH  17  21
HETATM   21  C   UNK N   1      35.049  15.648   6.809  0.00  0.00     0.170 C 
HETATM   22  O   UNK N   1      35.533  15.672   5.687  0.00  0.00    -0.294 OA
BRANCH  21  23
HETATM   23  C   UNK N   1      35.502  14.581   7.762  0.00  0.00     0.152 C 
BRANCH  23  24
HETATM   24  S   UNK N   1      36.951  13.692   7.127  0.00  0.00    -0.175 SA
HETATM   25  H   UNK N   1      37.335  13.795   5.825  0.00  0.00     0.102 HD
ENDBRANCH  23  24
ENDBRANCH  21  23
ENDBRANCH  17  21
BRANCH  17  26
HETATM   26  O   UNK N   1      34.421  17.938   6.852  0.00  0.00    -0.381 OA
HETATM   27  H   UNK N   1      34.597  18.891   6.837  0.00  0.00     0.211 HD
ENDBRANCH  17  26
BRANCH  14  28
HETATM   28  O   UNK N   1      31.056  16.741   3.117  0.00  0.00    -0.395 OA
HETATM   29  H   UNK N   1      31.371  17.477   2.570  0.00  0.00     0.210 HD
ENDBRANCH  14  28
TORSDOF 5
ENDMDL
MODEL 7
REMARK VINA RESULT:      -6.6      1.445      2.092
REMARK  5 active torsions:
REMARK  status: ('A' for Active; 'I' for Inactive)
REMARK    1  A    between atoms: C_14  and  O_24 
REMARK    2  A    between atoms: C_17  and  C_19 
REMARK    3  A    between atoms: C_17  and  O_23 
REMARK    4  A    between atoms: C_19  and  C_20 
REMARK    5  A    between atoms: C_20  and  S_22 
ROOT
HETATM    1  C   UNK N   1      34.248  21.065  -3.878  0.00  0.00     0.084 C 
HETATM    2  C   UNK N   1      33.830  19.683  -4.309  0.00  0.00     0.149 C 
HETATM    3  C   UNK N   1      32.638  19.485  -5.162  0.00  0.00     0.053 C 
HETATM    4  C   UNK N   1      31.760  20.482  -5.362  0.00  0.00    -0.068 C 
HETATM    5  C   UNK N   1      31.896  21.777  -4.563  0.00  0.00    -0.014 C 
HETATM    6  C   UNK N   1      33.385  22.164  -4.525  0.00  0.00     0.022 C 
HETATM    7  C   UNK N   1      30.584  20.204  -6.268  0.00  0.00     0.035 C 
HETATM    8  C   UNK N   1      29.644  21.380  -6.534  0.00  0.00     0.010 C 
HETATM    9  C   UNK N   1      29.586  22.390  -5.390  0.00  0.00    -0.002 C 
HETATM   10  C   UNK N   1      31.025  22.933  -5.146  0.00  0.00     0.031 C 
HETATM   11  C   UNK N   1      28.629  23.543  -5.741  0.00  0.00     0.002 C 
HETATM   12  C   UNK N   1      28.613  24.600  -4.640  0.00  0.00     0.001 C 
HETATM   13  C   UNK N   1      29.996  25.247  -4.570  0.00  0.00     0.045 C 
HETATM   14  C   UNK N   1      31.036  24.178  -4.202  0.00  0.00     0.124 C 
HETATM   15  C   UNK N   1      27.154  23.183  -5.896  0.00  0.00     0.009 C 
HETATM   16  C   UNK N   1      26.388  24.459  -5.485  0.00  0.00     0.047 C 
HETATM   17  C   UNK N   1      27.454  25.500  -5.097  0.00  0.00     0.126 C 
HETATM   18  O   UNK N   1      34.490  18.717  -3.960  0.00  0.00    -0.293 OA
HETATM   19  C   UNK N   1      31.440  21.480  -3.126  0.00  0.00     0.020 C 
HETATM   20  C   UNK N   1      28.272  23.989  -3.259  0.00  0.00     0.019 C 
ENDROOT
BRANCH  17  21
HETATM   21  C   UNK N   1      27.029  26.493  -4.027  0.00  0.00     0.170 C 
HETATM   22  O   UNK N   1      26.130  26.190  -3.257  0.00  0.00    -0.294 OA
BRANCH  21  23
HETATM   23  C   UNK N   1      27.629  27.864  -3.923  0.00  0.00     0.152 C 
BRANCH  23  24
HETATM   24  S   UNK N   1      26.349  29.140  -3.749  0.00  0.00    -0.175 SA
HETATM   25  H   UNK N   1      25.631  29.274  -2.601  0.00  0.00     0.102 HD
ENDBRANCH  23  24
ENDBRANCH  21  23
ENDBRANCH  17  21
BRANCH  17  26
HETATM   26  O   UNK N   1      27.801  26.208  -6.254  0.00  0.00    -0.381 OA
HETATM   27  H   UNK N   1      28.277  26.614  -6.995  0.00  0.00     0.211 HD
ENDBRANCH  17  26
BRANCH  14  28
HETATM   28  O   UNK N   1      32.300  24.768  -4.157  0.00  0.00    -0.395 OA
HETATM   29  H   UNK N   1      32.633  25.652  -3.939  0.00  0.00     0.210 HD
ENDBRANCH  14  28
TORSDOF 5
ENDMDL
MODEL 8
REMARK VINA RESULT:      -6.6     15.810     17.498
REMARK  5 active torsions:
REMARK  status: ('A' for Active; 'I' for Inactive)
REMARK    1  A    between atoms: C_14  and  O_24 
REMARK    2  A    between atoms: C_17  and  C_19 
REMARK    3  A    between atoms: C_17  and  O_23 
REMARK    4  A    between atoms: C_19  and  C_20 
REMARK    5  A    between atoms: C_20  and  S_22 
ROOT
HETATM    1  C   UNK N   1      22.605  12.576  10.948  0.00  0.00     0.084 C 
HETATM    2  C   UNK N   1      24.101  12.398  10.974  0.00  0.00     0.149 C 
HETATM    3  C   UNK N   1      24.951  12.993   9.919  0.00  0.00     0.053 C 
HETATM    4  C   UNK N   1      24.410  13.480   8.790  0.00  0.00    -0.068 C 
HETATM    5  C   UNK N   1      22.923  13.260   8.512  0.00  0.00    -0.014 C 
HETATM    6  C   UNK N   1      22.148  13.513   9.816  0.00  0.00     0.022 C 
HETATM    7  C   UNK N   1      25.346  14.093   7.776  0.00  0.00     0.035 C 
HETATM    8  C   UNK N   1      24.692  14.704   6.536  0.00  0.00     0.010 C 
HETATM    9  C   UNK N   1      23.373  14.038   6.148  0.00  0.00    -0.002 C 
HETATM   10  C   UNK N   1      22.394  14.159   7.352  0.00  0.00     0.031 C 
HETATM   11  C   UNK N   1      22.779  14.716   4.901  0.00  0.00     0.002 C 
HETATM   12  C   UNK N   1      21.423  14.113   4.540  0.00  0.00     0.001 C 
HETATM   13  C   UNK N   1      20.438  14.429   5.664  0.00  0.00     0.045 C 
HETATM   14  C   UNK N   1      20.929  13.775   6.965  0.00  0.00     0.124 C 
HETATM   15  C   UNK N   1      23.573  14.581   3.605  0.00  0.00     0.009 C 
HETATM   16  C   UNK N   1      22.515  14.625   2.482  0.00  0.00     0.047 C 
HETATM   17  C   UNK N   1      21.149  14.772   3.179  0.00  0.00     0.126 C 
HETATM   18  O   UNK N   1      24.618  11.767  11.881  0.00  0.00    -0.293 OA
HETATM   19  C   UNK N   1      22.743  11.783   8.125  0.00  0.00     0.020 C 
HETATM   20  C   UNK N   1      21.507  12.578   4.358  0.00  0.00     0.019 C 
ENDROOT
BRANCH  17  21
HETATM   21  C   UNK N   1      19.979  14.133   2.447  0.00  0.00     0.170 C 
HETATM   22  O   UNK N   1      18.881  14.114   2.983  0.00  0.00    -0.294 OA
BRANCH  21  23
HETATM   23  C   UNK N   1      20.136  13.463   1.114  0.00  0.00     0.152 C 
BRANCH  23  24
HETATM   24  S   UNK N   1      18.542  12.885   0.466  0.00  0.00    -0.175 SA
HETATM   25  H   UNK N   1      17.380  13.529   0.758  0.00  0.00     0.102 HD
ENDBRANCH  23  24
ENDBRANCH  21  23
ENDBRANCH  17  21
BRANCH  17  26
HETATM   26  O   UNK N   1      20.891  16.139   3.331  0.00  0.00    -0.381 OA
HETATM   27  H   UNK N   1      20.967  17.101   3.423  0.00  0.00     0.211 HD
ENDBRANCH  17  26
BRANCH  14  28
HETATM   28  O   UNK N   1      20.037  14.081   7.994  0.00  0.00    -0.395 OA
HETATM   29  H   UNK N   1      20.127  14.430   8.894  0.00  0.00     0.210 HD
ENDBRANCH  14  28
TORSDOF 5
ENDMDL
MODEL 9
REMARK VINA RESULT:      -6.5     14.933     18.498
REMARK  5 active torsions:
REMARK  status: ('A' for Active; 'I' for Inactive)
REMARK    1  A    between atoms: C_14  and  O_24 
REMARK    2  A    between atoms: C_17  and  C_19 
REMARK    3  A    between atoms: C_17  and  O_23 
REMARK    4  A    between atoms: C_19  and  C_20 
REMARK    5  A    between atoms: C_20  and  S_22 
ROOT
HETATM    1  C   UNK N   1      33.503  15.339   3.461  0.00  0.00     0.084 C 
HETATM    2  C   UNK N   1      32.729  16.621   3.633  0.00  0.00     0.149 C 
HETATM    3  C   UNK N   1      32.931  17.471   4.826  0.00  0.00     0.053 C 
HETATM    4  C   UNK N   1      33.603  17.013   5.895  0.00  0.00    -0.068 C 
HETATM    5  C   UNK N   1      34.012  15.542   5.953  0.00  0.00    -0.014 C 
HETATM    6  C   UNK N   1      34.552  15.139   4.570  0.00  0.00     0.022 C 
HETATM    7  C   UNK N   1      33.787  17.956   7.060  0.00  0.00     0.035 C 
HETATM    8  C   UNK N   1      34.619  17.429   8.230  0.00  0.00     0.010 C 
HETATM    9  C   UNK N   1      34.553  15.912   8.395  0.00  0.00    -0.002 C 
HETATM   10  C   UNK N   1      35.057  15.256   7.076  0.00  0.00     0.031 C 
HETATM   11  C   UNK N   1      35.423  15.465   9.583  0.00  0.00     0.002 C 
HETATM   12  C   UNK N   1      35.429  13.944   9.720  0.00  0.00     0.001 C 
HETATM   13  C   UNK N   1      36.112  13.350   8.489  0.00  0.00     0.045 C 
HETATM   14  C   UNK N   1      35.307  13.722   7.235  0.00  0.00     0.124 C 
HETATM   15  C   UNK N   1      34.983  15.934  10.967  0.00  0.00     0.009 C 
HETATM   16  C   UNK N   1      35.463  14.831  11.934  0.00  0.00     0.047 C 
HETATM   17  C   UNK N   1      36.150  13.761  11.064  0.00  0.00     0.126 C 
HETATM   18  O   UNK N   1      31.936  16.967   2.772  0.00  0.00    -0.293 OA
HETATM   19  C   UNK N   1      32.741  14.723   6.229  0.00  0.00     0.020 C 
HETATM   20  C   UNK N   1      33.995  13.370   9.826  0.00  0.00     0.019 C 
ENDROOT
BRANCH  17  21
HETATM   21  C   UNK N   1      36.051  12.338  11.591  0.00  0.00     0.170 C 
HETATM   22  O   UNK N   1      36.672  11.449  11.027  0.00  0.00    -0.294 OA
BRANCH  21  23
HETATM   23  C   UNK N   1      35.162  11.970  12.742  0.00  0.00     0.152 C 
BRANCH  23  24
HETATM   24  S   UNK N   1      34.255  10.431  12.418  0.00  0.00    -0.175 SA
HETATM   25  H   UNK N   1      34.728   9.496  11.550  0.00  0.00     0.102 HD
ENDBRANCH  23  24
ENDBRANCH  21  23
ENDBRANCH  17  21
BRANCH  17  26
HETATM   26  O   UNK N   1      37.503  14.104  10.953  0.00  0.00    -0.381 OA
HETATM   27  H   UNK N   1      38.383  14.492  11.077  0.00  0.00     0.211 HD
ENDBRANCH  17  26
BRANCH  14  28
HETATM   28  O   UNK N   1      35.944  13.194   6.111  0.00  0.00    -0.395 OA
HETATM   29  H   UNK N   1      36.561  13.542   5.449  0.00  0.00     0.210 HD
ENDBRANCH  14  28
TORSDOF 5
ENDMDL
