MODEL 1
REMARK VINA RESULT:      -7.8      0.000      0.000
REMARK  7 active torsions:
REMARK  status: ('A' for Active; 'I' for Inactive)
REMARK    1  A    between atoms: C_15  and  C_6 
REMARK    2  A    between atoms: C_18  and  C_6 
REMARK    3  A    between atoms: N_32  and  C_15 
REMARK    4  A    between atoms: N_34  and  C_18 
REMARK    5  A    between atoms: C_28  and  C_27 
REMARK    6  A    between atoms: O_35  and  C_27 
REMARK    7  A    between atoms: N_33  and  C_28 
ROOT
HETATM    1  C   UNK N   1      25.756  13.901   5.904  0.00  0.00     0.118 C 
ENDROOT
BRANCH   1   2
HETATM    2  C   UNK N   1      25.050  13.277   7.103  0.00  0.00     0.040 C 
BRANCH   2   3
HETATM    3  C   UNK N   1      23.677  12.749   6.723  0.00  0.00     0.131 C 
BRANCH   3   4
HETATM    4  N   UNK N   1      22.651  13.494   7.444  0.00  0.00    -0.346 N 
HETATM    5  C   UNK N   1      22.319  13.002   8.773  0.00  0.00     0.041 A 
HETATM    6  C   UNK N   1      23.137  11.992   9.329  0.00  0.00     0.030 A 
HETATM    7  C   UNK N   1      21.209  13.440   9.555  0.00  0.00    -0.031 A 
HETATM    8  C   UNK N   1      22.893  11.454  10.590  0.00  0.00     0.002 A 
HETATM    9  C   UNK N   1      21.815  11.906  11.339  0.00  0.00     0.001 A 
HETATM   10  C   UNK N   1      20.978  12.889  10.822  0.00  0.00     0.009 A 
HETATM   11  C   UNK N   1      20.251  14.462   9.103  0.00  0.00     0.045 C 
HETATM   12  C   UNK N   1      21.032  15.698   8.814  0.00  0.00     0.045 C 
HETATM   13  C   UNK N   1      21.322  15.673   7.373  0.00  0.00    -0.031 A 
HETATM   14  C   UNK N   1      20.826  16.741   6.615  0.00  0.00     0.011 A 
HETATM   15  C   UNK N   1      22.075  14.636   6.750  0.00  0.00     0.042 A 
HETATM   16  C   UNK N   1      21.058  16.815   5.245  0.00  0.00     0.024 A 
HETATM   17  C   UNK N   1      21.797  15.820   4.617  0.00  0.00     0.036 A 
HETATM   18  C   UNK N   1      22.300  14.754   5.359  0.00  0.00     0.054 A 
HETATM   19 Cl   UNK N   1      22.093  15.907   2.895  0.00  0.00    -0.084 Cl
ENDBRANCH   3   4
ENDBRANCH   2   3
ENDBRANCH   1   2
BRANCH   1  20
HETATM   20  N   UNK N   1      25.805  15.368   5.911  0.00  0.00    -0.412 N 
HETATM   21  C   UNK N   1      26.749  16.005   6.844  0.00  0.00     0.119 C 
HETATM   22  C   UNK N   1      28.113  16.284   6.202  0.00  0.00     0.070 C 
HETATM   23  C   UNK N   1      27.964  17.101   4.909  0.00  0.00     0.225 C 
HETATM   24  C   UNK N   1      27.102  16.237   3.970  0.00  0.00     0.070 C 
HETATM   25  C   UNK N   1      25.726  15.964   4.573  0.00  0.00     0.119 C 
BRANCH  23  26
HETATM   26  C   UNK N   1      29.343  17.308   4.288  0.00  0.00     0.149 C 
HETATM   27  N   UNK N   1      29.526  17.122   3.033  0.00  0.00    -0.381 N 
HETATM   28  H   UNK N   1      29.286  16.300   2.547  0.00  0.00     0.158 HD
ATOM     29  HN  UNK N   1      29.952  17.880   2.499  1.00  0.00     0.158 HD
BRANCH  26  30
HETATM   30  O   UNK N   1      30.388  17.688   5.052  0.00  0.00    -0.348 OA
HETATM   31  H   UNK N   1      30.829  18.063   5.789  0.00  0.00     0.219 HD
ENDBRANCH  26  30
ENDBRANCH  23  26
BRANCH  23  32
HETATM   32  N   UNK N   1      27.284  18.398   5.183  0.00  0.00     0.106 N 
HETATM   33  C   UNK N   1      27.823  19.066   6.391  0.00  0.00     0.274 C 
HETATM   34  C   UNK N   1      27.834  20.598   6.313  0.00  0.00     0.030 C 
HETATM   35  C   UNK N   1      26.570  21.100   5.627  0.00  0.00     0.003 C 
HETATM   36  C   UNK N   1      26.401  20.496   4.229  0.00  0.00     0.030 C 
HETATM   37  C   UNK N   1      27.297  19.276   4.001  0.00  0.00     0.274 C 
ENDBRANCH  23  32
ENDBRANCH   1  20
TORSDOF 7
ENDMDL
MODEL 2
REMARK VINA RESULT:      -7.6      7.661     10.828
REMARK  7 active torsions:
REMARK  status: ('A' for Active; 'I' for Inactive)
REMARK    1  A    between atoms: C_15  and  C_6 
REMARK    2  A    between atoms: C_18  and  C_6 
REMARK    3  A    between atoms: N_32  and  C_15 
REMARK    4  A    between atoms: N_34  and  C_18 
REMARK    5  A    between atoms: C_28  and  C_27 
REMARK    6  A    between atoms: O_35  and  C_27 
REMARK    7  A    between atoms: N_33  and  C_28 
ROOT
HETATM    1  C   UNK N   1      34.332  16.522   8.955  0.00  0.00     0.118 C 
ENDROOT
BRANCH   1   2
HETATM    2  C   UNK N   1      33.247  16.209   7.931  0.00  0.00     0.040 C 
BRANCH   2   3
HETATM    3  C   UNK N   1      32.796  17.464   7.203  0.00  0.00     0.131 C 
BRANCH   3   4
HETATM    4  N   UNK N   1      31.448  17.269   6.682  0.00  0.00    -0.346 N 
HETATM    5  C   UNK N   1      30.358  17.547   7.605  0.00  0.00     0.041 A 
HETATM    6  C   UNK N   1      30.676  18.161   8.839  0.00  0.00     0.030 A 
HETATM    7  C   UNK N   1      28.989  17.220   7.380  0.00  0.00    -0.031 A 
HETATM    8  C   UNK N   1      29.703  18.458   9.789  0.00  0.00     0.002 A 
HETATM    9  C   UNK N   1      28.373  18.143   9.541  0.00  0.00     0.001 A 
HETATM   10  C   UNK N   1      28.022  17.525   8.345  0.00  0.00     0.009 A 
HETATM   11  C   UNK N   1      28.504  16.552   6.160  0.00  0.00     0.045 C 
HETATM   12  C   UNK N   1      28.893  17.413   5.006  0.00  0.00     0.045 C 
HETATM   13  C   UNK N   1      30.168  16.879   4.507  0.00  0.00    -0.031 A 
HETATM   14  C   UNK N   1      30.184  16.431   3.180  0.00  0.00     0.011 A 
HETATM   15  C   UNK N   1      31.349  16.815   5.302  0.00  0.00     0.042 A 
HETATM   16  C   UNK N   1      31.346  15.919   2.610  0.00  0.00     0.024 A 
HETATM   17  C   UNK N   1      32.512  15.857   3.364  0.00  0.00     0.036 A 
HETATM   18  C   UNK N   1      32.512  16.302   4.684  0.00  0.00     0.054 A 
HETATM   19 Cl   UNK N   1      33.977  15.216   2.655  0.00  0.00    -0.084 Cl
ENDBRANCH   3   4
ENDBRANCH   2   3
ENDBRANCH   1   2
BRANCH   1  20
HETATM   20  N   UNK N   1      34.277  15.714  10.180  0.00  0.00    -0.412 N 
HETATM   21  C   UNK N   1      33.984  14.280  10.026  0.00  0.00     0.119 C 
HETATM   22  C   UNK N   1      35.255  13.430   9.909  0.00  0.00     0.070 C 
HETATM   23  C   UNK N   1      36.208  13.687  11.088  0.00  0.00     0.225 C 
HETATM   24  C   UNK N   1      36.562  15.183  11.016  0.00  0.00     0.070 C 
HETATM   25  C   UNK N   1      35.317  16.056  11.156  0.00  0.00     0.119 C 
BRANCH  23  26
HETATM   26  C   UNK N   1      37.474  12.854  10.896  0.00  0.00     0.149 C 
HETATM   27  N   UNK N   1      38.624  13.420  10.857  0.00  0.00    -0.381 N 
HETATM   28  H   UNK N   1      38.864  14.163  10.258  0.00  0.00     0.158 HD
ATOM     29  HN  UNK N   1      39.343  13.074  11.494  1.00  0.00     0.158 HD
BRANCH  26  30
HETATM   30  O   UNK N   1      37.398  11.514  10.764  0.00  0.00    -0.348 OA
HETATM   31  H   UNK N   1      36.996  10.668  10.747  0.00  0.00     0.219 HD
ENDBRANCH  26  30
ENDBRANCH  23  26
BRANCH  23  32
HETATM   32  N   UNK N   1      35.538  13.379  12.382  0.00  0.00     0.106 N 
HETATM   33  C   UNK N   1      34.832  12.075  12.349  0.00  0.00     0.274 C 
HETATM   34  C   UNK N   1      34.838  11.321  13.684  0.00  0.00     0.030 C 
HETATM   35  C   UNK N   1      34.648  12.294  14.840  0.00  0.00     0.003 C 
HETATM   36  C   UNK N   1      35.719  13.390  14.844  0.00  0.00     0.030 C 
HETATM   37  C   UNK N   1      36.473  13.483  13.514  0.00  0.00     0.274 C 
ENDBRANCH  23  32
ENDBRANCH   1  20
TORSDOF 7
ENDMDL
MODEL 3
REMARK VINA RESULT:      -7.6      9.923     12.517
REMARK  7 active torsions:
REMARK  status: ('A' for Active; 'I' for Inactive)
REMARK    1  A    between atoms: C_15  and  C_6 
REMARK    2  A    between atoms: C_18  and  C_6 
REMARK    3  A    between atoms: N_32  and  C_15 
REMARK    4  A    between atoms: N_34  and  C_18 
REMARK    5  A    between atoms: C_28  and  C_27 
REMARK    6  A    between atoms: O_35  and  C_27 
REMARK    7  A    between atoms: N_33  and  C_28 
ROOT
HETATM    1  C   UNK N   1      36.640  14.100  10.002  0.00  0.00     0.118 C 
ENDROOT
BRANCH   1   2
HETATM    2  C   UNK N   1      36.432  14.092  11.513  0.00  0.00     0.040 C 
BRANCH   2   3
HETATM    3  C   UNK N   1      37.078  12.875  12.153  0.00  0.00     0.131 C 
BRANCH   3   4
HETATM    4  N   UNK N   1      36.087  12.156  12.946  0.00  0.00    -0.346 N 
HETATM    5  C   UNK N   1      35.321  11.139  12.242  0.00  0.00     0.041 A 
HETATM    6  C   UNK N   1      35.724  10.795  10.932  0.00  0.00     0.030 A 
HETATM    7  C   UNK N   1      34.168  10.477  12.760  0.00  0.00    -0.031 A 
HETATM    8  C   UNK N   1      35.048   9.838  10.178  0.00  0.00     0.002 A 
HETATM    9  C   UNK N   1      33.937   9.196  10.708  0.00  0.00     0.001 A 
HETATM   10  C   UNK N   1      33.500   9.518  11.989  0.00  0.00     0.009 A 
HETATM   11  C   UNK N   1      33.608  10.747  14.094  0.00  0.00     0.045 C 
HETATM   12  C   UNK N   1      34.688  10.477  15.086  0.00  0.00     0.045 C 
HETATM   13  C   UNK N   1      35.331  11.772  15.354  0.00  0.00    -0.031 A 
HETATM   14  C   UNK N   1      35.295  12.227  16.679  0.00  0.00     0.011 A 
HETATM   15  C   UNK N   1      35.975  12.543  14.345  0.00  0.00     0.042 A 
HETATM   16  C   UNK N   1      35.887  13.434  17.037  0.00  0.00     0.024 A 
HETATM   17  C   UNK N   1      36.530  14.199  16.071  0.00  0.00     0.036 A 
HETATM   18  C   UNK N   1      36.576  13.757  14.750  0.00  0.00     0.054 A 
HETATM   19 Cl   UNK N   1      37.277  15.718  16.514  0.00  0.00    -0.084 Cl
ENDBRANCH   3   4
ENDBRANCH   2   3
ENDBRANCH   1   2
BRANCH   1  20
HETATM   20  N   UNK N   1      35.410  13.998   9.208  0.00  0.00    -0.412 N 
HETATM   21  C   UNK N   1      34.209  14.660   9.742  0.00  0.00     0.119 C 
HETATM   22  C   UNK N   1      34.044  16.091   9.218  0.00  0.00     0.070 C 
HETATM   23  C   UNK N   1      34.071  16.129   7.682  0.00  0.00     0.225 C 
HETATM   24  C   UNK N   1      35.447  15.571   7.277  0.00  0.00     0.070 C 
HETATM   25  C   UNK N   1      35.630  14.135   7.765  0.00  0.00     0.119 C 
BRANCH  23  26
HETATM   26  C   UNK N   1      33.952  17.578   7.217  0.00  0.00     0.149 C 
HETATM   27  N   UNK N   1      33.653  18.506   8.051  0.00  0.00    -0.381 N 
HETATM   28  H   UNK N   1      32.869  18.495   8.645  0.00  0.00     0.158 HD
ATOM     29  HN  UNK N   1      34.273  19.315   8.101  1.00  0.00     0.158 HD
BRANCH  26  30
HETATM   30  O   UNK N   1      34.160  17.902   5.924  0.00  0.00    -0.348 OA
HETATM   31  H   UNK N   1      33.937  18.122   5.041  0.00  0.00     0.219 HD
ENDBRANCH  26  30
ENDBRANCH  23  26
BRANCH  23  32
HETATM   32  N   UNK N   1      32.986  15.279   7.117  0.00  0.00     0.106 N 
HETATM   33  C   UNK N   1      31.645  15.884   7.310  0.00  0.00     0.274 C 
HETATM   34  C   UNK N   1      30.656  15.601   6.173  0.00  0.00     0.030 C 
HETATM   35  C   UNK N   1      30.815  14.168   5.680  0.00  0.00     0.003 C 
HETATM   36  C   UNK N   1      32.248  13.878   5.224  0.00  0.00     0.030 C 
HETATM   37  C   UNK N   1      33.248  14.930   5.711  0.00  0.00     0.274 C 
ENDBRANCH  23  32
ENDBRANCH   1  20
TORSDOF 7
ENDMDL
MODEL 4
REMARK VINA RESULT:      -7.5      9.966     12.815
REMARK  7 active torsions:
REMARK  status: ('A' for Active; 'I' for Inactive)
REMARK    1  A    between atoms: C_15  and  C_6 
REMARK    2  A    between atoms: C_18  and  C_6 
REMARK    3  A    between atoms: N_32  and  C_15 
REMARK    4  A    between atoms: N_34  and  C_18 
REMARK    5  A    between atoms: C_28  and  C_27 
REMARK    6  A    between atoms: O_35  and  C_27 
REMARK    7  A    between atoms: N_33  and  C_28 
ROOT
HETATM    1  C   UNK N   1      35.069  15.755  11.041  0.00  0.00     0.118 C 
ENDROOT
BRANCH   1   2
HETATM    2  C   UNK N   1      35.048  14.470  11.861  0.00  0.00     0.040 C 
BRANCH   2   3
HETATM    3  C   UNK N   1      36.175  14.446  12.880  0.00  0.00     0.131 C 
BRANCH   3   4
HETATM    4  N   UNK N   1      36.568  13.065  13.142  0.00  0.00    -0.346 N 
HETATM    5  C   UNK N   1      36.242  12.547  14.462  0.00  0.00     0.041 A 
HETATM    6  C   UNK N   1      35.414  13.333  15.296  0.00  0.00     0.030 A 
HETATM    7  C   UNK N   1      36.719  11.315  14.999  0.00  0.00    -0.031 A 
HETATM    8  C   UNK N   1      35.054  12.924  16.578  0.00  0.00     0.002 A 
HETATM    9  C   UNK N   1      35.519  11.713  17.074  0.00  0.00     0.001 A 
HETATM   10  C   UNK N   1      36.348  10.918  16.290  0.00  0.00     0.009 A 
HETATM   11  C   UNK N   1      37.612  10.402  14.267  0.00  0.00     0.045 C 
HETATM   12  C   UNK N   1      36.916  10.030  13.002  0.00  0.00     0.045 C 
HETATM   13  C   UNK N   1      37.410  10.957  11.974  0.00  0.00    -0.031 A 
HETATM   14  C   UNK N   1      38.061  10.384  10.874  0.00  0.00     0.011 A 
HETATM   15  C   UNK N   1      37.243  12.370  12.056  0.00  0.00     0.042 A 
HETATM   16  C   UNK N   1      38.554  11.177   9.841  0.00  0.00     0.024 A 
HETATM   17  C   UNK N   1      38.394  12.556   9.895  0.00  0.00     0.036 A 
HETATM   18  C   UNK N   1      37.745  13.139  10.982  0.00  0.00     0.054 A 
HETATM   19 Cl   UNK N   1      39.010  13.559   8.600  0.00  0.00    -0.084 Cl
ENDBRANCH   3   4
ENDBRANCH   2   3
ENDBRANCH   1   2
BRANCH   1  20
HETATM   20  N   UNK N   1      34.682  15.595   9.634  0.00  0.00    -0.412 N 
HETATM   21  C   UNK N   1      33.562  14.685   9.344  0.00  0.00     0.119 C 
HETATM   22  C   UNK N   1      32.212  15.411   9.298  0.00  0.00     0.070 C 
HETATM   23  C   UNK N   1      32.246  16.591   8.314  0.00  0.00     0.225 C 
HETATM   24  C   UNK N   1      33.340  17.538   8.841  0.00  0.00     0.070 C 
HETATM   25  C   UNK N   1      34.703  16.850   8.874  0.00  0.00     0.119 C 
BRANCH  23  26
HETATM   26  C   UNK N   1      30.897  17.304   8.344  0.00  0.00     0.149 C 
HETATM   27  N   UNK N   1      30.751  18.391   9.009  0.00  0.00    -0.381 N 
HETATM   28  H   UNK N   1      30.978  18.502   9.960  0.00  0.00     0.158 HD
ATOM     29  HN  UNK N   1      30.371  19.200   8.517  1.00  0.00     0.158 HD
BRANCH  26  30
HETATM   30  O   UNK N   1      29.841  16.801   7.672  0.00  0.00    -0.348 OA
HETATM   31  H   UNK N   1      29.370  16.438   6.948  0.00  0.00     0.219 HD
ENDBRANCH  26  30
ENDBRANCH  23  26
BRANCH  23  32
HETATM   32  N   UNK N   1      32.590  16.122   6.943  0.00  0.00     0.106 N 
HETATM   33  C   UNK N   1      31.746  14.980   6.516  0.00  0.00     0.274 C 
HETATM   34  C   UNK N   1      31.426  14.959   5.016  0.00  0.00     0.030 C 
HETATM   35  C   UNK N   1      32.646  15.386   4.211  0.00  0.00     0.003 C 
HETATM   36  C   UNK N   1      33.149  16.772   4.628  0.00  0.00     0.030 C 
HETATM   37  C   UNK N   1      32.574  17.228   5.972  0.00  0.00     0.274 C 
ENDBRANCH  23  32
ENDBRANCH   1  20
TORSDOF 7
ENDMDL
MODEL 5
REMARK VINA RESULT:      -7.5     13.558     16.223
REMARK  7 active torsions:
REMARK  status: ('A' for Active; 'I' for Inactive)
REMARK    1  A    between atoms: C_15  and  C_6 
REMARK    2  A    between atoms: C_18  and  C_6 
REMARK    3  A    between atoms: N_32  and  C_15 
REMARK    4  A    between atoms: N_34  and  C_18 
REMARK    5  A    between atoms: C_28  and  C_27 
REMARK    6  A    between atoms: O_35  and  C_27 
REMARK    7  A    between atoms: N_33  and  C_28 
ROOT
HETATM    1  C   UNK N   1      30.060  26.173  -6.634  0.00  0.00     0.118 C 
ENDROOT
BRANCH   1   2
HETATM    2  C   UNK N   1      29.378  26.146  -7.998  0.00  0.00     0.040 C 
BRANCH   2   3
HETATM    3  C   UNK N   1      27.986  26.751  -7.933  0.00  0.00     0.131 C 
BRANCH   3   4
HETATM    4  N   UNK N   1      27.206  26.073  -6.902  0.00  0.00    -0.346 N 
HETATM    5  C   UNK N   1      26.793  24.712  -7.204  0.00  0.00     0.041 A 
HETATM    6  C   UNK N   1      27.334  24.095  -8.356  0.00  0.00     0.030 A 
HETATM    7  C   UNK N   1      25.855  23.952  -6.444  0.00  0.00    -0.031 A 
HETATM    8  C   UNK N   1      26.991  22.798  -8.731  0.00  0.00     0.002 A 
HETATM    9  C   UNK N   1      26.086  22.073  -7.967  0.00  0.00     0.001 A 
HETATM   10  C   UNK N   1      25.521  22.650  -6.834  0.00  0.00     0.009 A 
HETATM   11  C   UNK N   1      25.183  24.465  -5.239  0.00  0.00     0.045 C 
HETATM   12  C   UNK N   1      26.252  24.843  -4.269  0.00  0.00     0.045 C 
HETATM   13  C   UNK N   1      26.488  26.282  -4.461  0.00  0.00    -0.031 A 
HETATM   14  C   UNK N   1      26.267  27.106  -3.350  0.00  0.00     0.011 A 
HETATM   15  C   UNK N   1      26.929  26.839  -5.696  0.00  0.00     0.042 A 
HETATM   16  C   UNK N   1      26.476  28.480  -3.427  0.00  0.00     0.024 A 
HETATM   17  C   UNK N   1      26.915  29.045  -4.618  0.00  0.00     0.036 A 
HETATM   18  C   UNK N   1      27.142  28.236  -5.729  0.00  0.00     0.054 A 
HETATM   19 Cl   UNK N   1      27.180  30.772  -4.721  0.00  0.00    -0.084 Cl
ENDBRANCH   3   4
ENDBRANCH   2   3
ENDBRANCH   1   2
BRANCH   1  20
HETATM   20  N   UNK N   1      30.767  24.938  -6.272  0.00  0.00    -0.412 N 
HETATM   21  C   UNK N   1      31.755  25.025  -5.185  0.00  0.00     0.119 C 
HETATM   22  C   UNK N   1      31.152  24.699  -3.814  0.00  0.00     0.070 C 
HETATM   23  C   UNK N   1      30.447  23.333  -3.825  0.00  0.00     0.225 C 
HETATM   24  C   UNK N   1      29.332  23.451  -4.881  0.00  0.00     0.070 C 
HETATM   25  C   UNK N   1      29.906  23.751  -6.264  0.00  0.00     0.119 C 
BRANCH  23  26
HETATM   26  C   UNK N   1      29.825  23.082  -2.454  0.00  0.00     0.149 C 
HETATM   27  N   UNK N   1      28.553  22.977  -2.326  0.00  0.00    -0.381 N 
HETATM   28  H   UNK N   1      27.900  23.640  -2.646  0.00  0.00     0.158 HD
ATOM     29  HN  UNK N   1      28.191  22.145  -1.858  1.00  0.00     0.158 HD
BRANCH  26  30
HETATM   30  O   UNK N   1      30.604  22.969  -1.359  0.00  0.00    -0.348 OA
HETATM   31  H   UNK N   1      30.814  22.934  -0.446  0.00  0.00     0.219 HD
ENDBRANCH  26  30
ENDBRANCH  23  26
BRANCH  23  32
HETATM   32  N   UNK N   1      31.400  22.253  -4.203  0.00  0.00     0.106 N 
HETATM   33  C   UNK N   1      32.655  22.315  -3.416  0.00  0.00     0.274 C 
HETATM   34  C   UNK N   1      33.277  20.947  -3.111  0.00  0.00     0.030 C 
HETATM   35  C   UNK N   1      33.145  20.028  -4.318  0.00  0.00     0.003 C 
HETATM   36  C   UNK N   1      31.685  19.864  -4.753  0.00  0.00     0.030 C 
HETATM   37  C   UNK N   1      30.765  20.926  -4.145  0.00  0.00     0.274 C 
ENDBRANCH  23  32
ENDBRANCH   1  20
TORSDOF 7
ENDMDL
MODEL 6
REMARK VINA RESULT:      -7.5     11.040     13.405
REMARK  7 active torsions:
REMARK  status: ('A' for Active; 'I' for Inactive)
REMARK    1  A    between atoms: C_15  and  C_6 
REMARK    2  A    between atoms: C_18  and  C_6 
REMARK    3  A    between atoms: N_32  and  C_15 
REMARK    4  A    between atoms: N_34  and  C_18 
REMARK    5  A    between atoms: C_28  and  C_27 
REMARK    6  A    between atoms: O_35  and  C_27 
REMARK    7  A    between atoms: N_33  and  C_28 
ROOT
HETATM    1  C   UNK N   1      35.796  14.894  12.299  0.00  0.00     0.118 C 
ENDROOT
BRANCH   1   2
HETATM    2  C   UNK N   1      35.394  13.794  13.276  0.00  0.00     0.040 C 
BRANCH   2   3
HETATM    3  C   UNK N   1      36.558  13.391  14.165  0.00  0.00     0.131 C 
BRANCH   3   4
HETATM    4  N   UNK N   1      36.206  12.192  14.917  0.00  0.00    -0.346 N 
HETATM    5  C   UNK N   1      35.838  12.394  16.310  0.00  0.00     0.041 A 
HETATM    6  C   UNK N   1      35.660  13.722  16.761  0.00  0.00     0.030 A 
HETATM    7  C   UNK N   1      35.671  11.355  17.273  0.00  0.00    -0.031 A 
HETATM    8  C   UNK N   1      35.316  14.015  18.079  0.00  0.00     0.002 A 
HETATM    9  C   UNK N   1      35.144  12.986  18.995  0.00  0.00     0.001 A 
HETATM   10  C   UNK N   1      35.325  11.667  18.593  0.00  0.00     0.009 A 
HETATM   11  C   UNK N   1      35.852   9.927  16.965  0.00  0.00     0.045 C 
HETATM   12  C   UNK N   1      34.902   9.592  15.866  0.00  0.00     0.045 C 
HETATM   13  C   UNK N   1      35.663   9.715  14.614  0.00  0.00    -0.031 A 
HETATM   14  C   UNK N   1      35.767   8.560  13.828  0.00  0.00     0.011 A 
HETATM   15  C   UNK N   1      36.268  10.933  14.188  0.00  0.00     0.042 A 
HETATM   16  C   UNK N   1      36.457   8.577  12.619  0.00  0.00     0.024 A 
HETATM   17  C   UNK N   1      37.046   9.756  12.179  0.00  0.00     0.036 A 
HETATM   18  C   UNK N   1      36.948  10.913  12.949  0.00  0.00     0.054 A 
HETATM   19 Cl   UNK N   1      37.914   9.785  10.660  0.00  0.00    -0.084 Cl
ENDBRANCH   3   4
ENDBRANCH   2   3
ENDBRANCH   1   2
BRANCH   1  20
HETATM   20  N   UNK N   1      35.556  14.582  10.885  0.00  0.00    -0.412 N 
HETATM   21  C   UNK N   1      34.261  13.971  10.542  0.00  0.00     0.119 C 
HETATM   22  C   UNK N   1      33.203  15.011  10.159  0.00  0.00     0.070 C 
HETATM   23  C   UNK N   1      33.706  15.930   9.034  0.00  0.00     0.225 C 
HETATM   24  C   UNK N   1      34.957  16.629   9.598  0.00  0.00     0.070 C 
HETATM   25  C   UNK N   1      36.040  15.617   9.966  0.00  0.00     0.119 C 
BRANCH  23  26
HETATM   26  C   UNK N   1      32.635  16.974   8.727  0.00  0.00     0.149 C 
HETATM   27  N   UNK N   1      31.400  16.732   8.975  0.00  0.00    -0.381 N 
HETATM   28  H   UNK N   1      30.909  15.941   8.654  0.00  0.00     0.158 HD
ATOM     29  HN  UNK N   1      30.890  17.406   9.546  1.00  0.00     0.158 HD
BRANCH  26  30
HETATM   30  O   UNK N   1      32.973  18.165   8.191  0.00  0.00    -0.348 OA
HETATM   31  H   UNK N   1      33.509  18.794   7.750  0.00  0.00     0.219 HD
ENDBRANCH  26  30
ENDBRANCH  23  26
BRANCH  23  32
HETATM   32  N   UNK N   1      34.062  15.135   7.826  0.00  0.00     0.106 N 
HETATM   33  C   UNK N   1      32.924  14.317   7.341  0.00  0.00     0.274 C 
HETATM   34  C   UNK N   1      32.873  14.148   5.818  0.00  0.00     0.030 C 
HETATM   35  C   UNK N   1      34.278  13.960   5.261  0.00  0.00     0.003 C 
HETATM   36  C   UNK N   1      35.201  15.123   5.637  0.00  0.00     0.030 C 
HETATM   37  C   UNK N   1      34.635  15.984   6.769  0.00  0.00     0.274 C 
ENDBRANCH  23  32
ENDBRANCH   1  20
TORSDOF 7
ENDMDL
MODEL 7
REMARK VINA RESULT:      -7.4     12.698     14.787
REMARK  7 active torsions:
REMARK  status: ('A' for Active; 'I' for Inactive)
REMARK    1  A    between atoms: C_15  and  C_6 
REMARK    2  A    between atoms: C_18  and  C_6 
REMARK    3  A    between atoms: N_32  and  C_15 
REMARK    4  A    between atoms: N_34  and  C_18 
REMARK    5  A    between atoms: C_28  and  C_27 
REMARK    6  A    between atoms: O_35  and  C_27 
REMARK    7  A    between atoms: N_33  and  C_28 
ROOT
HETATM    1  C   UNK N   1      35.296  10.330  12.709  0.00  0.00     0.118 C 
ENDROOT
BRANCH   1   2
HETATM    2  C   UNK N   1      34.893  10.206  14.174  0.00  0.00     0.040 C 
BRANCH   2   3
HETATM    3  C   UNK N   1      36.111  10.121  15.078  0.00  0.00     0.131 C 
BRANCH   3   4
HETATM    4  N   UNK N   1      35.683  10.040  16.470  0.00  0.00    -0.346 N 
HETATM    5  C   UNK N   1      35.529  11.309  17.166  0.00  0.00     0.041 A 
HETATM    6  C   UNK N   1      35.610  12.497  16.404  0.00  0.00     0.030 A 
HETATM    7  C   UNK N   1      35.333  11.454  18.571  0.00  0.00    -0.031 A 
HETATM    8  C   UNK N   1      35.483  13.757  16.983  0.00  0.00     0.002 A 
HETATM    9  C   UNK N   1      35.279  13.873  18.351  0.00  0.00     0.001 A 
HETATM   10  C   UNK N   1      35.208  12.728  19.138  0.00  0.00     0.009 A 
HETATM   11  C   UNK N   1      35.258  10.315  19.502  0.00  0.00     0.045 C 
HETATM   12  C   UNK N   1      34.137   9.447  19.042  0.00  0.00     0.045 C 
HETATM   13  C   UNK N   1      34.743   8.409  18.195  0.00  0.00    -0.031 A 
HETATM   14  C   UNK N   1      34.573   7.082  18.610  0.00  0.00     0.011 A 
HETATM   15  C   UNK N   1      35.464   8.703  17.001  0.00  0.00     0.042 A 
HETATM   16  C   UNK N   1      35.098   6.027  17.870  0.00  0.00     0.024 A 
HETATM   17  C   UNK N   1      35.796   6.290  16.697  0.00  0.00     0.036 A 
HETATM   18  C   UNK N   1      35.970   7.604  16.270  0.00  0.00     0.054 A 
HETATM   19 Cl   UNK N   1      36.458   4.968  15.761  0.00  0.00    -0.084 Cl
ENDBRANCH   3   4
ENDBRANCH   2   3
ENDBRANCH   1   2
BRANCH   1  20
HETATM   20  N   UNK N   1      34.868  11.573  12.054  0.00  0.00    -0.412 N 
HETATM   21  C   UNK N   1      35.383  12.835  12.608  0.00  0.00     0.119 C 
HETATM   22  C   UNK N   1      36.672  13.296  11.919  0.00  0.00     0.070 C 
HETATM   23  C   UNK N   1      36.491  13.383  10.395  0.00  0.00     0.225 C 
HETATM   24  C   UNK N   1      36.126  11.958   9.940  0.00  0.00     0.070 C 
HETATM   25  C   UNK N   1      34.830  11.481  10.591  0.00  0.00     0.119 C 
BRANCH  23  26
HETATM   26  C   UNK N   1      37.815  13.798   9.758  0.00  0.00     0.149 C 
HETATM   27  N   UNK N   1      38.395  13.034   8.907  0.00  0.00    -0.381 N 
HETATM   28  H   UNK N   1      38.616  12.087   9.063  0.00  0.00     0.158 HD
ATOM     29  HN  UNK N   1      38.646  13.436   8.003  1.00  0.00     0.158 HD
BRANCH  26  30
HETATM   30  O   UNK N   1      38.391  14.974  10.081  0.00  0.00    -0.348 OA
HETATM   31  H   UNK N   1      38.445  15.895  10.242  0.00  0.00     0.219 HD
ENDBRANCH  26  30
ENDBRANCH  23  26
BRANCH  23  32
HETATM   32  N   UNK N   1      35.393  14.329  10.050  0.00  0.00     0.106 N 
HETATM   33  C   UNK N   1      35.532  15.626  10.755  0.00  0.00     0.274 C 
HETATM   34  C   UNK N   1      35.047  16.837   9.950  0.00  0.00     0.030 C 
HETATM   35  C   UNK N   1      33.780  16.486   9.181  0.00  0.00     0.003 C 
HETATM   36  C   UNK N   1      33.989  15.281   8.257  0.00  0.00     0.030 C 
HETATM   37  C   UNK N   1      35.258  14.493   8.593  0.00  0.00     0.274 C 
ENDBRANCH  23  32
ENDBRANCH   1  20
TORSDOF 7
ENDMDL
MODEL 8
REMARK VINA RESULT:      -7.4     13.629     17.672
REMARK  7 active torsions:
REMARK  status: ('A' for Active; 'I' for Inactive)
REMARK    1  A    between atoms: C_15  and  C_6 
REMARK    2  A    between atoms: C_18  and  C_6 
REMARK    3  A    between atoms: N_32  and  C_15 
REMARK    4  A    between atoms: N_34  and  C_18 
REMARK    5  A    between atoms: C_28  and  C_27 
REMARK    6  A    between atoms: O_35  and  C_27 
REMARK    7  A    between atoms: N_33  and  C_28 
ROOT
HETATM    1  C   UNK N   1      30.290  27.406  -5.735  0.00  0.00     0.118 C 
ENDROOT
BRANCH   1   2
HETATM    2  C   UNK N   1      30.444  28.168  -7.047  0.00  0.00     0.040 C 
BRANCH   2   3
HETATM    3  C   UNK N   1      29.169  28.911  -7.408  0.00  0.00     0.131 C 
BRANCH   3   4
HETATM    4  N   UNK N   1      28.055  27.971  -7.463  0.00  0.00    -0.346 N 
HETATM    5  C   UNK N   1      27.977  27.140  -8.655  0.00  0.00     0.041 A 
HETATM    6  C   UNK N   1      29.069  27.164  -9.552  0.00  0.00     0.030 A 
HETATM    7  C   UNK N   1      26.865  26.320  -9.010  0.00  0.00    -0.031 A 
HETATM    8  C   UNK N   1      29.081  26.410 -10.723  0.00  0.00     0.002 A 
HETATM    9  C   UNK N   1      27.993  25.607 -11.040  0.00  0.00     0.001 A 
HETATM   10  C   UNK N   1      26.893  25.567 -10.190  0.00  0.00     0.009 A 
HETATM   11  C   UNK N   1      25.644  26.212  -8.196  0.00  0.00     0.045 C 
HETATM   12  C   UNK N   1      26.058  25.738  -6.844  0.00  0.00     0.045 C 
HETATM   13  C   UNK N   1      26.217  26.944  -6.018  0.00  0.00    -0.031 A 
HETATM   14  C   UNK N   1      25.402  27.038  -4.883  0.00  0.00     0.011 A 
HETATM   15  C   UNK N   1      27.150  27.977  -6.323  0.00  0.00     0.042 A 
HETATM   16  C   UNK N   1      25.487  28.134  -4.030  0.00  0.00     0.024 A 
HETATM   17  C   UNK N   1      26.397  29.149  -4.302  0.00  0.00     0.036 A 
HETATM   18  C   UNK N   1      27.215  29.067  -5.425  0.00  0.00     0.054 A 
HETATM   19 Cl   UNK N   1      26.509  30.530  -3.233  0.00  0.00    -0.084 Cl
ENDBRANCH   3   4
ENDBRANCH   2   3
ENDBRANCH   1   2
BRANCH   1  20
HETATM   20  N   UNK N   1      30.745  26.010  -5.774  0.00  0.00    -0.412 N 
HETATM   21  C   UNK N   1      31.766  25.609  -4.793  0.00  0.00     0.119 C 
HETATM   22  C   UNK N   1      31.154  25.035  -3.510  0.00  0.00     0.070 C 
HETATM   23  C   UNK N   1      30.188  23.880  -3.820  0.00  0.00     0.225 C 
HETATM   24  C   UNK N   1      29.086  24.489  -4.707  0.00  0.00     0.070 C 
HETATM   25  C   UNK N   1      29.663  25.047  -6.006  0.00  0.00     0.119 C 
BRANCH  23  26
HETATM   26  C   UNK N   1      29.573  23.381  -2.515  0.00  0.00     0.149 C 
HETATM   27  N   UNK N   1      28.302  23.245  -2.405  0.00  0.00    -0.381 N 
HETATM   28  H   UNK N   1      27.644  23.951  -2.597  0.00  0.00     0.158 HD
ATOM     29  HN  UNK N   1      27.948  22.340  -2.094  1.00  0.00     0.158 HD
BRANCH  26  30
HETATM   30  O   UNK N   1      30.358  23.075  -1.462  0.00  0.00    -0.348 OA
HETATM   31  H   UNK N   1      31.130  23.069  -0.932  0.00  0.00     0.219 HD
ENDBRANCH  26  30
ENDBRANCH  23  26
BRANCH  23  32
HETATM   32  N   UNK N   1      30.891  22.789  -4.550  0.00  0.00     0.106 N 
HETATM   33  C   UNK N   1      32.142  22.378  -3.870  0.00  0.00     0.274 C 
HETATM   34  C   UNK N   1      32.471  20.886  -4.003  0.00  0.00     0.030 C 
HETATM   35  C   UNK N   1      32.134  20.395  -5.405  0.00  0.00     0.003 C 
HETATM   36  C   UNK N   1      30.666  20.650  -5.761  0.00  0.00     0.030 C 
HETATM   37  C   UNK N   1      29.995  21.652  -4.817  0.00  0.00     0.274 C 
ENDBRANCH  23  32
ENDBRANCH   1  20
TORSDOF 7
ENDMDL
MODEL 9
REMARK VINA RESULT:      -7.3      4.301      7.745
REMARK  7 active torsions:
REMARK  status: ('A' for Active; 'I' for Inactive)
REMARK    1  A    between atoms: C_15  and  C_6 
REMARK    2  A    between atoms: C_18  and  C_6 
REMARK    3  A    between atoms: N_32  and  C_15 
REMARK    4  A    between atoms: N_34  and  C_18 
REMARK    5  A    between atoms: C_28  and  C_27 
REMARK    6  A    between atoms: O_35  and  C_27 
REMARK    7  A    between atoms: N_33  and  C_28 
ROOT
HETATM    1  C   UNK N   1      24.072  13.029   4.641  0.00  0.00     0.118 C 
ENDROOT
BRANCH   1   2
HETATM    2  C   UNK N   1      23.967  12.919   6.158  0.00  0.00     0.040 C 
BRANCH   2   3
HETATM    3  C   UNK N   1      24.246  14.252   6.831  0.00  0.00     0.131 C 
BRANCH   3   4
HETATM    4  N   UNK N   1      22.985  14.898   7.178  0.00  0.00    -0.346 N 
HETATM    5  C   UNK N   1      22.625  16.066   6.389  0.00  0.00     0.041 A 
HETATM    6  C   UNK N   1      23.404  16.358   5.246  0.00  0.00     0.030 A 
HETATM    7  C   UNK N   1      21.561  16.965   6.694  0.00  0.00    -0.031 A 
HETATM    8  C   UNK N   1      23.141  17.458   4.433  0.00  0.00     0.002 A 
HETATM    9  C   UNK N   1      22.090  18.312   4.742  0.00  0.00     0.001 A 
HETATM   10  C   UNK N   1      21.309  18.066   5.867  0.00  0.00     0.009 A 
HETATM   11  C   UNK N   1      20.681  16.813   7.865  0.00  0.00     0.045 C 
HETATM   12  C   UNK N   1      20.037  15.473   7.759  0.00  0.00     0.045 C 
HETATM   13  C   UNK N   1      20.864  14.556   8.558  0.00  0.00    -0.031 A 
HETATM   14  C   UNK N   1      20.231  13.916   9.631  0.00  0.00     0.011 A 
HETATM   15  C   UNK N   1      22.237  14.303   8.276  0.00  0.00     0.042 A 
HETATM   16  C   UNK N   1      20.924  13.020  10.440  0.00  0.00     0.024 A 
HETATM   17  C   UNK N   1      22.262  12.750  10.178  0.00  0.00     0.036 A 
HETATM   18  C   UNK N   1      22.903  13.377   9.112  0.00  0.00     0.054 A 
HETATM   19 Cl   UNK N   1      23.140  11.624  11.190  0.00  0.00    -0.084 Cl
ENDBRANCH   3   4
ENDBRANCH   2   3
ENDBRANCH   1   2
BRANCH   1  20
HETATM   20  N   UNK N   1      22.907  12.526   3.903  0.00  0.00    -0.412 N 
HETATM   21  C   UNK N   1      21.806  11.954   4.695  0.00  0.00     0.119 C 
HETATM   22  C   UNK N   1      20.732  12.991   5.043  0.00  0.00     0.070 C 
HETATM   23  C   UNK N   1      20.210  13.699   3.783  0.00  0.00     0.225 C 
HETATM   24  C   UNK N   1      21.435  14.393   3.160  0.00  0.00     0.070 C 
HETATM   25  C   UNK N   1      22.513  13.381   2.778  0.00  0.00     0.119 C 
BRANCH  23  26
HETATM   26  C   UNK N   1      19.182  14.751   4.192  0.00  0.00     0.149 C 
HETATM   27  N   UNK N   1      19.304  15.967   3.801  0.00  0.00    -0.381 N 
HETATM   28  H   UNK N   1      20.111  16.517   3.925  0.00  0.00     0.158 HD
ATOM     29  HN  UNK N   1      18.508  16.395   3.328  1.00  0.00     0.158 HD
BRANCH  26  30
HETATM   30  O   UNK N   1      18.132  14.417   4.970  0.00  0.00    -0.348 OA
HETATM   31  H   UNK N   1      17.477  13.864   5.347  0.00  0.00     0.219 HD
ENDBRANCH  26  30
ENDBRANCH  23  26
BRANCH  23  32
HETATM   32  N   UNK N   1      19.636  12.712   2.826  0.00  0.00     0.106 N 
HETATM   33  C   UNK N   1      18.663  11.803   3.478  0.00  0.00     0.274 C 
HETATM   34  C   UNK N   1      17.501  11.372   2.576  0.00  0.00     0.030 C 
HETATM   35  C   UNK N   1      18.000  11.113   1.161  0.00  0.00     0.003 C 
HETATM   36  C   UNK N   1      18.705  12.339   0.571  0.00  0.00     0.030 C 
HETATM   37  C   UNK N   1      19.077  13.374   1.636  0.00  0.00     0.274 C 
ENDBRANCH  23  32
ENDBRANCH   1  20
TORSDOF 7
ENDMDL
