REMARK  1 active torsions:
REMARK  status: ('A' for Active; 'I' for Inactive)
REMARK    1  A    between atoms: C_6  and  O_12 
ROOT
HETATM    1  C   UNK N   1      -1.896   0.907   0.004  0.00  0.00     0.043 A 
HETATM    2  C   UNK N   1      -1.957  -0.485  -0.022  0.00  0.00     0.040 A 
HETATM    3  C   UNK N   1      -0.793  -1.253  -0.038  0.00  0.00     0.020 A 
HETATM    4  C   UNK N   1       0.462  -0.614  -0.026  0.00  0.00     0.010 A 
HETATM    5  C   UNK N   1       0.529   0.799  -0.001  0.00  0.00     0.078 A 
HETATM    6  C   UNK N   1      -0.652   1.557   0.013  0.00  0.00     0.109 A 
HETATM    7  C   UNK N   1       1.653  -1.348  -0.041  0.00  0.00     0.016 A 
HETATM    8  C   UNK N   1       2.880  -0.682  -0.032  0.00  0.00     0.018 A 
HETATM    9  C   UNK N   1       2.906   0.713  -0.008  0.00  0.00     0.088 A 
HETATM   10  N   UNK N   1       1.744   1.420   0.007  0.00  0.00    -0.363 N 
ATOM     11  HN  UNK N   1       1.781   2.439   0.024  1.00  0.00     0.165 HD
HETATM   12  I   UNK N   1      -3.707   1.987   0.021  0.00  0.00    -0.042 I 
HETATM   13  I   UNK N   1      -1.016  -3.355  -0.091  0.00  0.00    -0.044 I 
ENDROOT
BRANCH   6  14
HETATM   14  O   UNK N   1      -0.593   2.900   0.032  0.00  0.00    -0.357 OA
HETATM   15  H   UNK N   1       0.238   3.333   0.046  0.00  0.00     0.217 HD
ENDBRANCH   6  14
TORSDOF 1
