REMARK  4 active torsions:
REMARK  status: ('A' for Active; 'I' for Inactive)
REMARK    1  A    between atoms: C_18  and  C_12 
REMARK    2  A    between atoms: N_19  and  C_12 
REMARK    3  A    between atoms: C_15  and  C_13 
REMARK    4  A    between atoms: C_18  and  C_17 
ROOT
HETATM    1  C   UNK N   1      -1.773  -0.021  -1.107  0.00  0.00     0.001 A 
HETATM    2  C   UNK N   1      -1.798  -1.424  -1.062  0.00  0.00     0.001 A 
HETATM    3  C   UNK N   1      -0.692   0.686  -0.562  0.00  0.00     0.008 A 
HETATM    4  C   UNK N   1      -0.743  -2.134  -0.473  0.00  0.00     0.009 A 
HETATM    5  C   UNK N   1       1.539   0.124   2.146  0.00  0.00     0.015 C 
HETATM    6  C   UNK N   1       1.529  -1.449   2.202  0.00  0.00     0.022 C 
HETATM    7  C   UNK N   1       1.560   0.634   0.677  0.00  0.00     0.052 C 
HETATM    8  C   UNK N   1       0.355  -0.021   0.029  0.00  0.00    -0.042 A 
HETATM    9  C   UNK N   1       0.336  -1.430   0.075  0.00  0.00    -0.036 A 
HETATM   10  C   UNK N   1       1.544  -2.053   0.771  0.00  0.00     0.030 C 
ENDROOT
BRANCH  10  11
HETATM   11  C   UNK N   1       1.539  -3.586   0.837  0.00  0.00     0.132 C 
BRANCH  11  12
HETATM   12  N   UNK N   1       1.577  -4.177  -0.492  0.00  0.00    -0.424 N 
HETATM   13  C   UNK N   1       1.712  -5.610  -0.306  0.00  0.00     0.139 C 
HETATM   14  H   UNK N   1       1.519  -3.681  -1.381  0.00  0.00     0.152 HD
ENDBRANCH  11  12
ENDBRANCH  10  11
BRANCH  10  15
HETATM   15  C   UNK N   1       2.777  -1.443   0.106  0.00  0.00    -0.036 A 
HETATM   16  C   UNK N   1       3.860  -2.159  -0.416  0.00  0.00     0.009 A 
HETATM   17  C   UNK N   1       4.936  -1.462  -0.981  0.00  0.00     0.001 A 
HETATM   18  C   UNK N   1       4.927  -0.059  -1.028  0.00  0.00     0.001 A 
HETATM   19  C   UNK N   1       3.842   0.660  -0.509  0.00  0.00     0.008 A 
HETATM   20  C   UNK N   1       2.773  -0.034   0.058  0.00  0.00    -0.042 A 
BRANCH  20  21
ENDBRANCH  20  21
ENDBRANCH  10  15
TORSDOF 4
