MODEL 1
REMARK VINA RESULT:      -3.5      0.000      0.000
REMARK  1 active torsions:
REMARK  status: ('A' for Active; 'I' for Inactive)
REMARK    1  A    between atoms: Al_1  and  H_13 
ROOT
HETATM    1  O   UNK N   1      34.189  18.086   6.624  0.00  0.00    -0.565 OA
HETATM    2  S   UNK N   1      34.716  17.929   8.248  0.00  0.00     0.261 S 
HETATM    3  O   UNK N   1      35.246  17.780   9.874  0.00  0.00    -0.565 OA
HETATM    4  O   UNK N   1      35.354  19.282   8.567  0.00  0.00    -0.565 OA
HETATM    5  O   UNK N   1      34.309  16.500   8.651  0.00  0.00    -0.565 OA
ENDROOT
TORSDOF 1
ENDMDL
MODEL 2
REMARK VINA RESULT:      -3.5      0.394      1.941
REMARK  1 active torsions:
REMARK  status: ('A' for Active; 'I' for Inactive)
REMARK    1  A    between atoms: Al_1  and  H_13 
ROOT
HETATM    1  O   UNK N   1      33.981  16.096   8.301  0.00  0.00    -0.565 OA
HETATM    2  S   UNK N   1      34.665  17.665   8.421  0.00  0.00     0.261 S 
HETATM    3  O   UNK N   1      35.348  19.235   8.533  0.00  0.00    -0.565 OA
HETATM    4  O   UNK N   1      34.394  18.297   7.055  0.00  0.00    -0.565 OA
HETATM    5  O   UNK N   1      35.243  17.727   9.846  0.00  0.00    -0.565 OA
ENDROOT
TORSDOF 1
ENDMDL
MODEL 3
REMARK VINA RESULT:      -3.4     14.476     15.325
REMARK  1 active torsions:
REMARK  status: ('A' for Active; 'I' for Inactive)
REMARK    1  A    between atoms: Al_1  and  H_13 
ROOT
HETATM    1  O   UNK N   1      21.332  20.680   0.431  0.00  0.00    -0.565 OA
HETATM    2  S   UNK N   1      21.100  20.515   2.123  0.00  0.00     0.261 S 
HETATM    3  O   UNK N   1      20.862  20.345   3.815  0.00  0.00    -0.565 OA
HETATM    4  O   UNK N   1      19.887  19.591   2.247  0.00  0.00    -0.565 OA
HETATM    5  O   UNK N   1      22.215  21.370   2.751  0.00  0.00    -0.565 OA
ENDROOT
TORSDOF 1
ENDMDL
MODEL 4
REMARK VINA RESULT:      -3.2     14.000     15.055
REMARK  1 active torsions:
REMARK  status: ('A' for Active; 'I' for Inactive)
REMARK    1  A    between atoms: Al_1  and  H_13 
ROOT
HETATM    1  O   UNK N   1      22.990  21.379   2.873  0.00  0.00    -0.565 OA
HETATM    2  S   UNK N   1      21.511  20.615   2.458  0.00  0.00     0.261 S 
HETATM    3  O   UNK N   1      20.034  19.850   2.035  0.00  0.00    -0.565 OA
HETATM    4  O   UNK N   1      21.530  20.567   0.929  0.00  0.00    -0.565 OA
HETATM    5  O   UNK N   1      20.835  20.322   3.809  0.00  0.00    -0.565 OA
ENDROOT
TORSDOF 1
ENDMDL
MODEL 5
REMARK VINA RESULT:      -3.0     12.106     12.876
REMARK  1 active torsions:
REMARK  status: ('A' for Active; 'I' for Inactive)
REMARK    1  A    between atoms: Al_1  and  H_13 
ROOT
HETATM    1  O   UNK N   1      30.339  21.683  -4.411  0.00  0.00    -0.565 OA
HETATM    2  S   UNK N   1      30.345  22.399  -2.852  0.00  0.00     0.261 S 
HETATM    3  O   UNK N   1      30.358  23.113  -1.291  0.00  0.00    -0.565 OA
HETATM    4  O   UNK N   1      31.699  22.000  -2.261  0.00  0.00    -0.565 OA
HETATM    5  O   UNK N   1      28.988  23.118  -2.751  0.00  0.00    -0.565 OA
ENDROOT
TORSDOF 1
ENDMDL
MODEL 6
REMARK VINA RESULT:      -2.9     11.811     12.705
REMARK  1 active torsions:
REMARK  status: ('A' for Active; 'I' for Inactive)
REMARK    1  A    between atoms: Al_1  and  H_13 
ROOT
HETATM    1  O   UNK N   1      31.129  20.920  -4.347  0.00  0.00    -0.565 OA
HETATM    2  S   UNK N   1      30.911  21.946  -2.990  0.00  0.00     0.261 S 
HETATM    3  O   UNK N   1      30.686  22.976  -1.635  0.00  0.00    -0.565 OA
HETATM    4  O   UNK N   1      29.572  22.637  -3.254  0.00  0.00    -0.565 OA
HETATM    5  O   UNK N   1      32.159  21.709  -2.120  0.00  0.00    -0.565 OA
ENDROOT
TORSDOF 1
ENDMDL
MODEL 7
REMARK VINA RESULT:      -2.8     15.182     15.590
REMARK  1 active torsions:
REMARK  status: ('A' for Active; 'I' for Inactive)
REMARK    1  A    between atoms: Al_1  and  H_13 
ROOT
HETATM    1  O   UNK N   1      18.501  16.225   8.485  0.00  0.00    -0.565 OA
HETATM    2  S   UNK N   1      19.238  17.690   8.989  0.00  0.00     0.261 S 
HETATM    3  O   UNK N   1      19.970  19.157   9.498  0.00  0.00    -0.565 OA
HETATM    4  O   UNK N   1      18.309  18.221  10.082  0.00  0.00    -0.565 OA
HETATM    5  O   UNK N   1      20.499  17.810   8.115  0.00  0.00    -0.565 OA
ENDROOT
TORSDOF 1
ENDMDL
MODEL 8
REMARK VINA RESULT:      -2.8     12.219     13.009
REMARK  1 active torsions:
REMARK  status: ('A' for Active; 'I' for Inactive)
REMARK    1  A    between atoms: Al_1  and  H_13 
ROOT
HETATM    1  O   UNK N   1      24.801  20.929   2.185  0.00  0.00    -0.565 OA
HETATM    2  S   UNK N   1      23.387  20.371   2.981  0.00  0.00     0.261 S 
HETATM    3  O   UNK N   1      21.968  19.818   3.774  0.00  0.00    -0.565 OA
HETATM    4  O   UNK N   1      22.345  21.454   2.697  0.00  0.00    -0.565 OA
HETATM    5  O   UNK N   1      23.804  19.034   3.619  0.00  0.00    -0.565 OA
ENDROOT
TORSDOF 1
ENDMDL
MODEL 9
REMARK VINA RESULT:      -2.6     10.390     11.009
REMARK  1 active torsions:
REMARK  status: ('A' for Active; 'I' for Inactive)
REMARK    1  A    between atoms: Al_1  and  H_13 
ROOT
HETATM    1  O   UNK N   1      42.462  22.886   2.004  0.00  0.00    -0.565 OA
HETATM    2  S   UNK N   1      43.362  22.688   3.450  0.00  0.00     0.261 S 
HETATM    3  O   UNK N   1      44.264  22.497   4.898  0.00  0.00    -0.565 OA
HETATM    4  O   UNK N   1      43.966  24.070   3.708  0.00  0.00    -0.565 OA
HETATM    5  O   UNK N   1      43.155  21.213   3.836  0.00  0.00    -0.565 OA
ENDROOT
TORSDOF 1
ENDMDL
