REMARK  4 active torsions:
REMARK  status: ('A' for Active; 'I' for Inactive)
REMARK       I    between atoms: C_2  and  N_4 
REMARK    1  A    between atoms: N_4  and  C_5 
REMARK    2  A    between atoms: C_7  and  C_16 
REMARK    3  A    between atoms: C_9  and  C_12 
REMARK    4  A    between atoms: C_12  and  O_14 
REMARK       I    between atoms: C_16  and  N_18 
ROOT
HETATM    1  C   UNK N   1       0.574   1.686   0.180  0.00  0.00     0.070 A 
HETATM    2  C   UNK N   1       1.803   1.032   0.034  0.00  0.00     0.051 A 
HETATM    3  C   UNK N   1       1.877  -0.394  -0.040  0.00  0.00     0.068 A 
HETATM    4  C   UNK N   1       0.639  -1.147  -0.005  0.00  0.00     0.041 A 
HETATM    5  C   UNK N   1      -0.629  -0.464   0.139  0.00  0.00     0.074 A 
HETATM    6  C   UNK N   1      -0.631   0.963   0.264  0.00  0.00     0.052 A 
HETATM    7  I   UNK N   1      -2.423   2.119   0.681  0.00  0.00    -0.041 I 
HETATM    8  I   UNK N   1       0.673  -3.320  -0.144  0.00  0.00    -0.042 I 
HETATM    9  I   UNK N   1       3.514   2.359  -0.058  0.00  0.00    -0.041 I 
ENDROOT
BRANCH   1  10
HETATM   10  N   UNK N   1       0.585   3.110   0.294  0.00  0.00    -0.325 N 
HETATM   11  C   UNK N   1      -0.064   3.963  -0.541  0.00  0.00     0.218 C 
HETATM   12  C   UNK N   1      -0.002   5.428  -0.284  0.00  0.00     0.117 C 
HETATM   13  O   UNK N   1      -0.675   3.548  -1.515  0.00  0.00    -0.274 OA
HETATM   14  H   UNK N   1       1.102   3.504   1.033  0.00  0.00     0.169 HD
ENDBRANCH   1  10
BRANCH   3  15
HETATM   15  C   UNK N   1       3.250  -1.066  -0.136  0.00  0.00     0.253 C 
HETATM   16  O   UNK N   1       4.261  -0.387  -0.200  0.00  0.00    -0.268 OA
HETATM   17  N   UNK N   1       3.396  -2.408  -0.117  0.00  0.00    -0.361 N 
HETATM   18  C   UNK N   1       4.687  -3.051  -0.172  0.00  0.00     0.149 C 
HETATM   19  H   UNK N   1       2.590  -2.971  -0.063  0.00  0.00     0.162 HD
ENDBRANCH   3  15
BRANCH   5  20
HETATM   20  C   UNK N   1      -1.955  -1.222   0.167  0.00  0.00     0.178 C 
HETATM   21  O   UNK N   1      -3.010  -0.633   0.303  0.00  0.00    -0.646 OA
BRANCH  20  22
HETATM   22  O   UNK N   1      -2.028  -2.550   0.000  0.00  0.00    -0.773 OA
HETATM   23  H   UNK N   1      -2.857  -2.970  -0.116  0.00  0.00     0.167 HD
ENDBRANCH  20  22
ENDBRANCH   5  20
TORSDOF 4
