MODEL 1
REMARK VINA RESULT:      -7.5      0.000      0.000
REMARK  9 active torsions:
REMARK  status: ('A' for Active; 'I' for Inactive)
REMARK    1  A    between atoms: C_13  and  C_9 
REMARK    2  A    between atoms: C_15  and  C_9 
REMARK    3  A    between atoms: C_19  and  C_11 
REMARK    4  A    between atoms: O_25  and  C_11 
REMARK    5  A    between atoms: C_23  and  C_14 
REMARK    6  A    between atoms: O_30  and  C_16 
REMARK    7  A    between atoms: C_17  and  O_30 
REMARK    8  A    between atoms: C_21  and  O_27 
REMARK    9  A    between atoms: C_22  and  O_28 
ROOT
HETATM    1  C   UNK N   1      21.387  18.091   3.196  0.00  0.00     0.177 C 
HETATM    2  C   UNK N   1      20.861  19.539   3.223  0.00  0.00     0.180 C 
HETATM    3  C   UNK N   1      21.867  20.409   2.465  0.00  0.00     0.181 C 
HETATM    4  C   UNK N   1      23.249  20.252   3.095  0.00  0.00     0.182 C 
HETATM    5  C   UNK N   1      23.645  18.752   3.192  0.00  0.00     0.186 C 
HETATM    6  O   UNK N   1      20.734  19.987   4.544  0.00  0.00    -0.390 OA
HETATM    7  O   UNK N   1      22.634  18.008   3.868  0.00  0.00    -0.368 OA
HETATM    8  H   UNK N   1      20.757  20.377   5.432  0.00  0.00     0.210 HD
ENDROOT
BRANCH   1   9
HETATM    9  C   UNK N   1      20.402  17.117   3.841  0.00  0.00     0.198 C 
BRANCH   9  10
HETATM   10  O   UNK N   1      19.079  17.486   3.585  0.00  0.00    -0.398 OA
HETATM   11  H   UNK N   1      18.227  17.635   3.147  0.00  0.00     0.209 HD
ENDBRANCH   9  10
ENDBRANCH   1   9
BRANCH   3  12
HETATM   12  O   UNK N   1      21.473  21.750   2.500  0.00  0.00    -0.390 OA
HETATM   13  H   UNK N   1      21.278  22.297   3.277  0.00  0.00     0.210 HD
ENDBRANCH   3  12
BRANCH   4  14
HETATM   14  O   UNK N   1      24.184  20.968   2.340  0.00  0.00    -0.390 OA
HETATM   15  H   UNK N   1      24.836  20.546   1.757  0.00  0.00     0.210 HD
ENDBRANCH   4  14
BRANCH   5  16
HETATM   16  C   UNK N   1      24.926  18.672   3.993  0.00  0.00    -0.026 A 
HETATM   17  C   UNK N   1      25.415  19.803   4.664  0.00  0.00     0.011 A 
HETATM   18  C   UNK N   1      26.538  19.707   5.485  0.00  0.00     0.025 A 
HETATM   19  C   UNK N   1      27.189  18.483   5.646  0.00  0.00     0.040 A 
HETATM   20  C   UNK N   1      26.717  17.346   4.960  0.00  0.00    -0.032 A 
HETATM   21 Cl   UNK N   1      28.583  18.406   6.712  0.00  0.00    -0.084 Cl
HETATM   22  C   UNK N   1      25.592  17.448   4.141  0.00  0.00     0.019 A 
BRANCH  20  23
HETATM   23  C   UNK N   1      27.426  16.032   5.047  0.00  0.00     0.078 C 
BRANCH  23  24
HETATM   24  C   UNK N   1      26.573  15.118   5.855  0.00  0.00    -0.054 A 
HETATM   25  C   UNK N   1      26.236  15.453   7.168  0.00  0.00     0.010 A 
HETATM   26  C   UNK N   1      25.532  14.544   7.958  0.00  0.00     0.037 A 
HETATM   27  C   UNK N   1      25.174  13.293   7.436  0.00  0.00     0.069 A 
HETATM   28  C   UNK N   1      25.502  12.964   6.120  0.00  0.00     0.037 A 
HETATM   29  C   UNK N   1      26.200  13.874   5.329  0.00  0.00     0.010 A 
BRANCH  27  30
HETATM   30  O   UNK N   1      24.511  12.399   8.199  0.00  0.00    -0.344 OA
BRANCH  30  31
HETATM   31  C   UNK N   1      23.770  12.730   9.320  0.00  0.00     0.154 C 
HETATM   32  C   UNK N   1      22.399  12.150   9.263  0.00  0.00     0.061 C 
HETATM   33  C   UNK N   1      22.040  12.030  10.735  0.00  0.00     0.170 C 
HETATM   34  O   UNK N   1      23.197  12.218  11.521  0.00  0.00    -0.389 OA
HETATM   35  C   UNK N   1      24.272  12.157  10.624  0.00  0.00     0.200 C 
ENDBRANCH  30  31
ENDBRANCH  27  30
ENDBRANCH  23  24
ENDBRANCH  20  23
ENDBRANCH   5  16
TORSDOF 9
ENDMDL
MODEL 2
REMARK VINA RESULT:      -7.4      2.824      4.317
REMARK  9 active torsions:
REMARK  status: ('A' for Active; 'I' for Inactive)
REMARK    1  A    between atoms: C_13  and  C_9 
REMARK    2  A    between atoms: C_15  and  C_9 
REMARK    3  A    between atoms: C_19  and  C_11 
REMARK    4  A    between atoms: O_25  and  C_11 
REMARK    5  A    between atoms: C_23  and  C_14 
REMARK    6  A    between atoms: O_30  and  C_16 
REMARK    7  A    between atoms: C_17  and  O_30 
REMARK    8  A    between atoms: C_21  and  O_27 
REMARK    9  A    between atoms: C_22  and  O_28 
ROOT
HETATM    1  C   UNK N   1      21.727  19.376   3.261  0.00  0.00     0.177 C 
HETATM    2  C   UNK N   1      20.380  19.595   2.544  0.00  0.00     0.180 C 
HETATM    3  C   UNK N   1      19.435  18.477   2.988  0.00  0.00     0.181 C 
HETATM    4  C   UNK N   1      20.072  17.123   2.684  0.00  0.00     0.182 C 
HETATM    5  C   UNK N   1      21.499  17.035   3.295  0.00  0.00     0.186 C 
HETATM    6  O   UNK N   1      20.556  19.557   1.154  0.00  0.00    -0.390 OA
HETATM    7  O   UNK N   1      22.297  18.138   2.870  0.00  0.00    -0.368 OA
HETATM    8  H   UNK N   1      20.613  19.407   0.198  0.00  0.00     0.210 HD
ENDROOT
BRANCH   1   9
HETATM    9  C   UNK N   1      22.716  20.502   2.965  0.00  0.00     0.198 C 
BRANCH   9  10
HETATM   10  O   UNK N   1      22.056  21.690   2.643  0.00  0.00    -0.398 OA
HETATM   11  H   UNK N   1      21.867  22.618   2.433  0.00  0.00     0.209 HD
ENDBRANCH   9  10
ENDBRANCH   1   9
BRANCH   3  12
HETATM   12  O   UNK N   1      18.207  18.587   2.327  0.00  0.00    -0.390 OA
HETATM   13  H   UNK N   1      17.355  18.873   2.692  0.00  0.00     0.210 HD
ENDBRANCH   3  12
BRANCH   4  14
HETATM   14  O   UNK N   1      19.252  16.104   3.182  0.00  0.00    -0.390 OA
HETATM   15  H   UNK N   1      18.462  16.270   3.721  0.00  0.00     0.210 HD
ENDBRANCH   4  14
BRANCH   5  16
HETATM   16  C   UNK N   1      22.130  15.755   2.792  0.00  0.00    -0.026 A 
HETATM   17  C   UNK N   1      21.670  15.155   1.611  0.00  0.00     0.011 A 
HETATM   18  C   UNK N   1      22.316  14.033   1.090  0.00  0.00     0.025 A 
HETATM   19  C   UNK N   1      23.426  13.496   1.742  0.00  0.00     0.040 A 
HETATM   20  C   UNK N   1      23.883  14.080   2.941  0.00  0.00    -0.032 A 
HETATM   21 Cl   UNK N   1      24.222  12.099   1.034  0.00  0.00    -0.084 Cl
HETATM   22  C   UNK N   1      23.233  15.202   3.456  0.00  0.00     0.019 A 
BRANCH  20  23
HETATM   23  C   UNK N   1      25.023  13.493   3.711  0.00  0.00     0.078 C 
BRANCH  23  24
HETATM   24  C   UNK N   1      24.587  13.367   5.128  0.00  0.00    -0.054 A 
HETATM   25  C   UNK N   1      23.488  12.571   5.454  0.00  0.00     0.010 A 
HETATM   26  C   UNK N   1      23.014  12.544   6.767  0.00  0.00     0.037 A 
HETATM   27  C   UNK N   1      23.637  13.324   7.752  0.00  0.00     0.069 A 
HETATM   28  C   UNK N   1      24.743  14.110   7.426  0.00  0.00     0.037 A 
HETATM   29  C   UNK N   1      25.219  14.132   6.117  0.00  0.00     0.010 A 
BRANCH  27  30
HETATM   30  O   UNK N   1      23.174  13.321   9.020  0.00  0.00    -0.344 OA
BRANCH  30  31
HETATM   31  C   UNK N   1      21.927  12.851   9.390  0.00  0.00     0.154 C 
HETATM   32  C   UNK N   1      21.986  12.084  10.666  0.00  0.00     0.061 C 
HETATM   33  C   UNK N   1      20.578  12.259  11.213  0.00  0.00     0.170 C 
HETATM   34  O   UNK N   1      19.913  13.271  10.488  0.00  0.00    -0.389 OA
HETATM   35  C   UNK N   1      20.909  13.912   9.739  0.00  0.00     0.200 C 
ENDBRANCH  30  31
ENDBRANCH  27  30
ENDBRANCH  23  24
ENDBRANCH  20  23
ENDBRANCH   5  16
TORSDOF 9
ENDMDL
MODEL 3
REMARK VINA RESULT:      -7.3      1.403      2.490
REMARK  9 active torsions:
REMARK  status: ('A' for Active; 'I' for Inactive)
REMARK    1  A    between atoms: C_13  and  C_9 
REMARK    2  A    between atoms: C_15  and  C_9 
REMARK    3  A    between atoms: C_19  and  C_11 
REMARK    4  A    between atoms: O_25  and  C_11 
REMARK    5  A    between atoms: C_23  and  C_14 
REMARK    6  A    between atoms: O_30  and  C_16 
REMARK    7  A    between atoms: C_17  and  O_30 
REMARK    8  A    between atoms: C_21  and  O_27 
REMARK    9  A    between atoms: C_22  and  O_28 
ROOT
HETATM    1  C   UNK N   1      20.672  20.333   2.404  0.00  0.00     0.177 C 
HETATM    2  C   UNK N   1      19.844  19.041   2.257  0.00  0.00     0.180 C 
HETATM    3  C   UNK N   1      20.052  18.214   3.528  0.00  0.00     0.181 C 
HETATM    4  C   UNK N   1      21.544  17.960   3.730  0.00  0.00     0.182 C 
HETATM    5  C   UNK N   1      22.341  19.294   3.696  0.00  0.00     0.186 C 
HETATM    6  O   UNK N   1      20.264  18.317   1.135  0.00  0.00    -0.390 OA
HETATM    7  O   UNK N   1      22.052  20.023   2.505  0.00  0.00    -0.368 OA
HETATM    8  H   UNK N   1      20.611  17.726   0.448  0.00  0.00     0.210 HD
ENDROOT
BRANCH   1   9
HETATM    9  C   UNK N   1      20.454  21.283   1.227  0.00  0.00     0.198 C 
BRANCH   9  10
HETATM   10  O   UNK N   1      20.878  20.712   0.025  0.00  0.00    -0.398 OA
HETATM   11  H   UNK N   1      20.961  20.480  -0.913  0.00  0.00     0.209 HD
ENDBRANCH   9  10
ENDBRANCH   1   9
BRANCH   3  12
HETATM   12  O   UNK N   1      19.367  16.999   3.435  0.00  0.00    -0.390 OA
HETATM   13  H   UNK N   1      18.972  16.593   2.648  0.00  0.00     0.210 HD
ENDBRANCH   3  12
BRANCH   4  14
HETATM   14  O   UNK N   1      21.739  17.292   4.943  0.00  0.00    -0.390 OA
HETATM   15  H   UNK N   1      22.569  17.330   5.446  0.00  0.00     0.210 HD
ENDBRANCH   4  14
BRANCH   5  16
HETATM   16  C   UNK N   1      23.813  18.944   3.709  0.00  0.00    -0.026 A 
HETATM   17  C   UNK N   1      24.775  19.934   3.961  0.00  0.00     0.011 A 
HETATM   18  C   UNK N   1      26.123  19.596   4.075  0.00  0.00     0.025 A 
HETATM   19  C   UNK N   1      26.529  18.268   3.936  0.00  0.00     0.040 A 
HETATM   20  C   UNK N   1      25.573  17.270   3.662  0.00  0.00    -0.032 A 
HETATM   21 Cl   UNK N   1      28.235  17.888   4.114  0.00  0.00    -0.084 Cl
HETATM   22  C   UNK N   1      24.225  17.615   3.551  0.00  0.00     0.019 A 
BRANCH  20  23
HETATM   23  C   UNK N   1      25.972  15.847   3.435  0.00  0.00     0.078 C 
BRANCH  23  24
HETATM   24  C   UNK N   1      25.523  15.064   4.618  0.00  0.00    -0.054 A 
HETATM   25  C   UNK N   1      26.076  15.315   5.875  0.00  0.00     0.010 A 
HETATM   26  C   UNK N   1      25.735  14.505   6.959  0.00  0.00     0.037 A 
HETATM   27  C   UNK N   1      24.847  13.435   6.781  0.00  0.00     0.069 A 
HETATM   28  C   UNK N   1      24.287  13.191   5.526  0.00  0.00     0.037 A 
HETATM   29  C   UNK N   1      24.623  14.005   4.446  0.00  0.00     0.010 A 
BRANCH  27  30
HETATM   30  O   UNK N   1      24.527  12.632   7.818  0.00  0.00    -0.344 OA
BRANCH  30  31
HETATM   31  C   UNK N   1      23.669  12.990   8.842  0.00  0.00     0.154 C 
HETATM   32  C   UNK N   1      22.361  12.284   8.734  0.00  0.00     0.061 C 
HETATM   33  C   UNK N   1      21.889  12.259  10.179  0.00  0.00     0.170 C 
HETATM   34  O   UNK N   1      22.955  12.619  11.031  0.00  0.00    -0.389 OA
HETATM   35  C   UNK N   1      24.104  12.579  10.229  0.00  0.00     0.200 C 
ENDBRANCH  30  31
ENDBRANCH  27  30
ENDBRANCH  23  24
ENDBRANCH  20  23
ENDBRANCH   5  16
TORSDOF 9
ENDMDL
MODEL 4
REMARK VINA RESULT:      -7.3      3.484      5.496
REMARK  9 active torsions:
REMARK  status: ('A' for Active; 'I' for Inactive)
REMARK    1  A    between atoms: C_13  and  C_9 
REMARK    2  A    between atoms: C_15  and  C_9 
REMARK    3  A    between atoms: C_19  and  C_11 
REMARK    4  A    between atoms: O_25  and  C_11 
REMARK    5  A    between atoms: C_23  and  C_14 
REMARK    6  A    between atoms: O_30  and  C_16 
REMARK    7  A    between atoms: C_17  and  O_30 
REMARK    8  A    between atoms: C_21  and  O_27 
REMARK    9  A    between atoms: C_22  and  O_28 
ROOT
HETATM    1  C   UNK N   1      21.705  19.466   3.274  0.00  0.00     0.177 C 
HETATM    2  C   UNK N   1      20.388  19.623   2.488  0.00  0.00     0.180 C 
HETATM    3  C   UNK N   1      19.425  18.543   2.984  0.00  0.00     0.181 C 
HETATM    4  C   UNK N   1      20.072  17.170   2.817  0.00  0.00     0.182 C 
HETATM    5  C   UNK N   1      21.474  17.135   3.489  0.00  0.00     0.186 C 
HETATM    6  O   UNK N   1      20.619  19.473   1.115  0.00  0.00    -0.390 OA
HETATM    7  O   UNK N   1      22.289  18.202   3.008  0.00  0.00    -0.368 OA
HETATM    8  H   UNK N   1      20.714  19.245   0.177  0.00  0.00     0.210 HD
ENDROOT
BRANCH   1   9
HETATM    9  C   UNK N   1      22.707  20.567   2.927  0.00  0.00     0.198 C 
BRANCH   9  10
HETATM   10  O   UNK N   1      22.063  21.779   2.666  0.00  0.00    -0.398 OA
HETATM   11  H   UNK N   1      21.888  22.706   2.443  0.00  0.00     0.209 HD
ENDBRANCH   9  10
ENDBRANCH   1   9
BRANCH   3  12
HETATM   12  O   UNK N   1      18.224  18.596   2.269  0.00  0.00    -0.390 OA
HETATM   13  H   UNK N   1      17.334  18.780   2.606  0.00  0.00     0.210 HD
ENDBRANCH   3  12
BRANCH   4  14
HETATM   14  O   UNK N   1      19.233  16.193   3.363  0.00  0.00    -0.390 OA
HETATM   15  H   UNK N   1      18.267  16.282   3.404  0.00  0.00     0.210 HD
ENDBRANCH   4  14
BRANCH   5  16
HETATM   16  C   UNK N   1      22.123  15.820   3.117  0.00  0.00    -0.026 A 
HETATM   17  C   UNK N   1      21.967  15.292   1.827  0.00  0.00     0.011 A 
HETATM   18  C   UNK N   1      22.647  14.134   1.450  0.00  0.00     0.025 A 
HETATM   19  C   UNK N   1      23.489  13.488   2.355  0.00  0.00     0.040 A 
HETATM   20  C   UNK N   1      23.637  13.999   3.660  0.00  0.00    -0.032 A 
HETATM   21 Cl   UNK N   1      24.345  12.048   1.826  0.00  0.00    -0.084 Cl
HETATM   22  C   UNK N   1      22.955  15.159   4.030  0.00  0.00     0.019 A 
BRANCH  20  23
HETATM   23  C   UNK N   1      24.473  13.299   4.683  0.00  0.00     0.078 C 
BRANCH  23  24
HETATM   24  C   UNK N   1      25.472  14.279   5.190  0.00  0.00    -0.054 A 
HETATM   25  C   UNK N   1      25.410  14.723   6.512  0.00  0.00     0.010 A 
HETATM   26  C   UNK N   1      26.277  15.724   6.951  0.00  0.00     0.037 A 
HETATM   27  C   UNK N   1      27.202  16.288   6.060  0.00  0.00     0.069 A 
HETATM   28  C   UNK N   1      27.269  15.836   4.742  0.00  0.00     0.037 A 
HETATM   29  C   UNK N   1      26.408  14.832   4.306  0.00  0.00     0.010 A 
BRANCH  27  30
HETATM   30  O   UNK N   1      28.031  17.272   6.469  0.00  0.00    -0.344 OA
BRANCH  30  31
HETATM   31  C   UNK N   1      28.623  17.321   7.719  0.00  0.00     0.154 C 
HETATM   32  C   UNK N   1      30.093  17.539   7.621  0.00  0.00     0.061 C 
HETATM   33  C   UNK N   1      30.407  18.212   8.947  0.00  0.00     0.170 C 
HETATM   34  O   UNK N   1      29.206  18.613   9.570  0.00  0.00    -0.389 OA
HETATM   35  C   UNK N   1      28.216  18.489   8.587  0.00  0.00     0.200 C 
ENDBRANCH  30  31
ENDBRANCH  27  30
ENDBRANCH  23  24
ENDBRANCH  20  23
ENDBRANCH   5  16
TORSDOF 9
ENDMDL
MODEL 5
REMARK VINA RESULT:      -7.2     12.959     16.068
REMARK  9 active torsions:
REMARK  status: ('A' for Active; 'I' for Inactive)
REMARK    1  A    between atoms: C_13  and  C_9 
REMARK    2  A    between atoms: C_15  and  C_9 
REMARK    3  A    between atoms: C_19  and  C_11 
REMARK    4  A    between atoms: O_25  and  C_11 
REMARK    5  A    between atoms: C_23  and  C_14 
REMARK    6  A    between atoms: O_30  and  C_16 
REMARK    7  A    between atoms: C_17  and  O_30 
REMARK    8  A    between atoms: C_21  and  O_27 
REMARK    9  A    between atoms: C_22  and  O_28 
ROOT
HETATM    1  C   UNK N   1      31.208  20.923  -5.170  0.00  0.00     0.177 C 
HETATM    2  C   UNK N   1      32.445  20.932  -4.251  0.00  0.00     0.180 C 
HETATM    3  C   UNK N   1      31.962  21.242  -2.832  0.00  0.00     0.181 C 
HETATM    4  C   UNK N   1      31.196  22.563  -2.834  0.00  0.00     0.182 C 
HETATM    5  C   UNK N   1      30.070  22.547  -3.905  0.00  0.00     0.186 C 
HETATM    6  O   UNK N   1      33.360  21.905  -4.673  0.00  0.00    -0.390 OA
HETATM    7  O   UNK N   1      30.596  22.202  -5.184  0.00  0.00    -0.368 OA
HETATM    8  H   UNK N   1      33.954  22.650  -4.853  0.00  0.00     0.210 HD
ENDROOT
BRANCH   1   9
HETATM    9  C   UNK N   1      31.567  20.521  -6.600  0.00  0.00     0.198 C 
BRANCH   9  10
HETATM   10  O   UNK N   1      32.772  19.816  -6.644  0.00  0.00    -0.398 OA
HETATM   11  H   UNK N   1      33.439  19.129  -6.797  0.00  0.00     0.209 HD
ENDBRANCH   9  10
ENDBRANCH   1   9
BRANCH   3  12
HETATM   12  O   UNK N   1      33.047  21.318  -1.954  0.00  0.00    -0.390 OA
HETATM   13  H   UNK N   1      33.135  21.861  -1.155  0.00  0.00     0.210 HD
ENDBRANCH   3  12
BRANCH   4  14
HETATM   14  O   UNK N   1      30.670  22.794  -1.559  0.00  0.00    -0.390 OA
HETATM   15  H   UNK N   1      30.498  22.087  -0.916  0.00  0.00     0.210 HD
ENDBRANCH   4  14
BRANCH   5  16
HETATM   16  C   UNK N   1      29.491  23.943  -3.976  0.00  0.00    -0.026 A 
HETATM   17  C   UNK N   1      30.319  25.063  -3.810  0.00  0.00     0.011 A 
HETATM   18  C   UNK N   1      29.809  26.350  -3.977  0.00  0.00     0.025 A 
HETATM   19  C   UNK N   1      28.467  26.537  -4.309  0.00  0.00     0.040 A 
HETATM   20  C   UNK N   1      27.622  25.418  -4.458  0.00  0.00    -0.032 A 
HETATM   21 Cl   UNK N   1      27.876  28.176  -4.535  0.00  0.00    -0.084 Cl
HETATM   22  C   UNK N   1      28.139  24.133  -4.291  0.00  0.00     0.019 A 
BRANCH  20  23
HETATM   23  C   UNK N   1      26.162  25.575  -4.742  0.00  0.00     0.078 C 
BRANCH  23  24
HETATM   24  C   UNK N   1      25.864  24.806  -5.982  0.00  0.00    -0.054 A 
HETATM   25  C   UNK N   1      25.671  23.424  -5.919  0.00  0.00     0.010 A 
HETATM   26  C   UNK N   1      25.504  22.693  -7.096  0.00  0.00     0.037 A 
HETATM   27  C   UNK N   1      25.541  23.344  -8.337  0.00  0.00     0.069 A 
HETATM   28  C   UNK N   1      25.723  24.726  -8.396  0.00  0.00     0.037 A 
HETATM   29  C   UNK N   1      25.883  25.458  -7.222  0.00  0.00     0.010 A 
BRANCH  27  30
HETATM   30  O   UNK N   1      25.401  22.642  -9.481  0.00  0.00    -0.344 OA
BRANCH  30  31
HETATM   31  C   UNK N   1      26.270  21.647  -9.894  0.00  0.00     0.154 C 
HETATM   32  C   UNK N   1      25.962  21.188 -11.277  0.00  0.00     0.061 C 
HETATM   33  C   UNK N   1      27.312  20.680 -11.756  0.00  0.00     0.170 C 
HETATM   34  O   UNK N   1      28.320  21.104 -10.863  0.00  0.00    -0.389 OA
HETATM   35  C   UNK N   1      27.714  22.066 -10.044  0.00  0.00     0.200 C 
ENDBRANCH  30  31
ENDBRANCH  27  30
ENDBRANCH  23  24
ENDBRANCH  20  23
ENDBRANCH   5  16
TORSDOF 9
ENDMDL
MODEL 6
REMARK VINA RESULT:      -7.2      6.091     10.154
REMARK  9 active torsions:
REMARK  status: ('A' for Active; 'I' for Inactive)
REMARK    1  A    between atoms: C_13  and  C_9 
REMARK    2  A    between atoms: C_15  and  C_9 
REMARK    3  A    between atoms: C_19  and  C_11 
REMARK    4  A    between atoms: O_25  and  C_11 
REMARK    5  A    between atoms: C_23  and  C_14 
REMARK    6  A    between atoms: O_30  and  C_16 
REMARK    7  A    between atoms: C_17  and  O_30 
REMARK    8  A    between atoms: C_21  and  O_27 
REMARK    9  A    between atoms: C_22  and  O_28 
ROOT
HETATM    1  C   UNK N   1      34.824  15.857   9.604  0.00  0.00     0.177 C 
HETATM    2  C   UNK N   1      34.504  14.499  10.261  0.00  0.00     0.180 C 
HETATM    3  C   UNK N   1      33.860  13.612   9.193  0.00  0.00     0.181 C 
HETATM    4  C   UNK N   1      32.631  14.315   8.621  0.00  0.00     0.182 C 
HETATM    5  C   UNK N   1      32.991  15.746   8.133  0.00  0.00     0.186 C 
HETATM    6  O   UNK N   1      33.626  14.673  11.338  0.00  0.00    -0.390 OA
HETATM    7  O   UNK N   1      33.629  16.487   9.171  0.00  0.00    -0.368 OA
HETATM    8  H   UNK N   1      32.922  14.735  12.002  0.00  0.00     0.210 HD
ENDROOT
BRANCH   1   9
HETATM    9  C   UNK N   1      35.566  16.788  10.562  0.00  0.00     0.198 C 
BRANCH   9  10
HETATM   10  O   UNK N   1      36.812  16.267  10.917  0.00  0.00    -0.398 OA
HETATM   11  H   UNK N   1      37.511  15.702  11.281  0.00  0.00     0.209 HD
ENDBRANCH   9  10
ENDBRANCH   1   9
BRANCH   3  12
HETATM   12  O   UNK N   1      33.495  12.379   9.741  0.00  0.00    -0.390 OA
HETATM   13  H   UNK N   1      33.490  12.116  10.674  0.00  0.00     0.210 HD
ENDBRANCH   3  12
BRANCH   4  14
HETATM   14  O   UNK N   1      32.103  13.549   7.577  0.00  0.00    -0.390 OA
HETATM   15  H   UNK N   1      31.210  13.676   7.220  0.00  0.00     0.210 HD
ENDBRANCH   4  14
BRANCH   5  16
HETATM   16  C   UNK N   1      31.697  16.440   7.764  0.00  0.00    -0.026 A 
HETATM   17  C   UNK N   1      30.836  16.912   8.766  0.00  0.00     0.011 A 
HETATM   18  C   UNK N   1      29.695  17.641   8.431  0.00  0.00     0.025 A 
HETATM   19  C   UNK N   1      29.398  17.906   7.094  0.00  0.00     0.040 A 
HETATM   20  C   UNK N   1      30.247  17.417   6.079  0.00  0.00    -0.032 A 
HETATM   21 Cl   UNK N   1      27.964  18.851   6.722  0.00  0.00    -0.084 Cl
HETATM   22  C   UNK N   1      31.387  16.691   6.422  0.00  0.00     0.019 A 
BRANCH  20  23
HETATM   23  C   UNK N   1      29.928  17.617   4.632  0.00  0.00     0.078 C 
BRANCH  23  24
HETATM   24  C   UNK N   1      28.761  16.751   4.309  0.00  0.00    -0.054 A 
HETATM   25  C   UNK N   1      28.829  15.373   4.527  0.00  0.00     0.010 A 
HETATM   26  C   UNK N   1      27.777  14.552   4.120  0.00  0.00     0.037 A 
HETATM   27  C   UNK N   1      26.659  15.111   3.484  0.00  0.00     0.069 A 
HETATM   28  C   UNK N   1      26.588  16.489   3.276  0.00  0.00     0.037 A 
HETATM   29  C   UNK N   1      27.636  17.309   3.689  0.00  0.00     0.010 A 
BRANCH  27  30
HETATM   30  O   UNK N   1      25.646  14.323   3.067  0.00  0.00    -0.344 OA
BRANCH  30  31
HETATM   31  C   UNK N   1      24.485  14.794   2.479  0.00  0.00     0.154 C 
HETATM   32  C   UNK N   1      24.326  14.280   1.090  0.00  0.00     0.061 C 
HETATM   33  C   UNK N   1      22.817  14.315   0.905  0.00  0.00     0.170 C 
HETATM   34  O   UNK N   1      22.193  14.518   2.155  0.00  0.00    -0.389 OA
HETATM   35  C   UNK N   1      23.197  14.319   3.111  0.00  0.00     0.200 C 
ENDBRANCH  30  31
ENDBRANCH  27  30
ENDBRANCH  23  24
ENDBRANCH  20  23
ENDBRANCH   5  16
TORSDOF 9
ENDMDL
MODEL 7
REMARK VINA RESULT:      -7.1      3.860      5.913
REMARK  9 active torsions:
REMARK  status: ('A' for Active; 'I' for Inactive)
REMARK    1  A    between atoms: C_13  and  C_9 
REMARK    2  A    between atoms: C_15  and  C_9 
REMARK    3  A    between atoms: C_19  and  C_11 
REMARK    4  A    between atoms: O_25  and  C_11 
REMARK    5  A    between atoms: C_23  and  C_14 
REMARK    6  A    between atoms: O_30  and  C_16 
REMARK    7  A    between atoms: C_17  and  O_30 
REMARK    8  A    between atoms: C_21  and  O_27 
REMARK    9  A    between atoms: C_22  and  O_28 
ROOT
HETATM    1  C   UNK N   1      20.973  19.513   3.425  0.00  0.00     0.177 C 
HETATM    2  C   UNK N   1      19.927  18.427   3.104  0.00  0.00     0.180 C 
HETATM    3  C   UNK N   1      20.123  17.289   4.108  0.00  0.00     0.181 C 
HETATM    4  C   UNK N   1      21.563  16.786   4.033  0.00  0.00     0.182 C 
HETATM    5  C   UNK N   1      22.567  17.962   4.194  0.00  0.00     0.186 C 
HETATM    6  O   UNK N   1      20.100  17.954   1.797  0.00  0.00    -0.390 OA
HETATM    7  O   UNK N   1      22.284  18.998   3.255  0.00  0.00    -0.368 OA
HETATM    8  H   UNK N   1      20.269  17.510   0.951  0.00  0.00     0.210 HD
ENDROOT
BRANCH   1   9
HETATM    9  C   UNK N   1      20.799  20.746   2.540  0.00  0.00     0.198 C 
BRANCH   9  10
HETATM   10  O   UNK N   1      21.819  21.676   2.754  0.00  0.00    -0.398 OA
HETATM   11  H   UNK N   1      22.593  22.137   3.114  0.00  0.00     0.209 HD
ENDBRANCH   9  10
ENDBRANCH   1   9
BRANCH   3  12
HETATM   12  O   UNK N   1      19.236  16.243   3.836  0.00  0.00    -0.390 OA
HETATM   13  H   UNK N   1      18.324  16.135   4.147  0.00  0.00     0.210 HD
ENDBRANCH   3  12
BRANCH   4  14
HETATM   14  O   UNK N   1      21.767  15.816   5.019  0.00  0.00    -0.390 OA
HETATM   15  H   UNK N   1      22.415  15.912   5.736  0.00  0.00     0.210 HD
ENDBRANCH   4  14
BRANCH   5  16
HETATM   16  C   UNK N   1      23.952  17.418   3.917  0.00  0.00    -0.026 A 
HETATM   17  C   UNK N   1      24.116  16.115   3.425  0.00  0.00     0.011 A 
HETATM   18  C   UNK N   1      25.381  15.647   3.072  0.00  0.00     0.025 A 
HETATM   19  C   UNK N   1      26.498  16.472   3.207  0.00  0.00     0.040 A 
HETATM   20  C   UNK N   1      26.346  17.776   3.719  0.00  0.00    -0.032 A 
HETATM   21 Cl   UNK N   1      28.068  15.847   2.724  0.00  0.00    -0.084 Cl
HETATM   22  C   UNK N   1      25.077  18.239   4.069  0.00  0.00     0.019 A 
BRANCH  20  23
HETATM   23  C   UNK N   1      27.525  18.668   3.947  0.00  0.00     0.078 C 
BRANCH  23  24
HETATM   24  C   UNK N   1      28.320  18.081   5.060  0.00  0.00    -0.054 A 
HETATM   25  C   UNK N   1      27.799  18.057   6.356  0.00  0.00     0.010 A 
HETATM   26  C   UNK N   1      28.591  17.608   7.414  0.00  0.00     0.037 A 
HETATM   27  C   UNK N   1      29.908  17.193   7.176  0.00  0.00     0.069 A 
HETATM   28  C   UNK N   1      30.423  17.209   5.879  0.00  0.00     0.037 A 
HETATM   29  C   UNK N   1      29.631  17.650   4.822  0.00  0.00     0.010 A 
BRANCH  27  30
HETATM   30  O   UNK N   1      30.689  16.778   8.197  0.00  0.00    -0.344 OA
BRANCH  30  31
HETATM   31  C   UNK N   1      32.054  16.581   8.101  0.00  0.00     0.154 C 
HETATM   32  C   UNK N   1      32.814  17.806   8.476  0.00  0.00     0.061 C 
HETATM   33  C   UNK N   1      34.138  17.230   8.953  0.00  0.00     0.170 C 
HETATM   34  O   UNK N   1      34.011  15.835   9.127  0.00  0.00    -0.389 OA
HETATM   35  C   UNK N   1      32.636  15.574   9.066  0.00  0.00     0.200 C 
ENDBRANCH  30  31
ENDBRANCH  27  30
ENDBRANCH  23  24
ENDBRANCH  20  23
ENDBRANCH   5  16
TORSDOF 9
ENDMDL
MODEL 8
REMARK VINA RESULT:      -7.1      4.206      6.067
REMARK  9 active torsions:
REMARK  status: ('A' for Active; 'I' for Inactive)
REMARK    1  A    between atoms: C_13  and  C_9 
REMARK    2  A    between atoms: C_15  and  C_9 
REMARK    3  A    between atoms: C_19  and  C_11 
REMARK    4  A    between atoms: O_25  and  C_11 
REMARK    5  A    between atoms: C_23  and  C_14 
REMARK    6  A    between atoms: O_30  and  C_16 
REMARK    7  A    between atoms: C_17  and  O_30 
REMARK    8  A    between atoms: C_21  and  O_27 
REMARK    9  A    between atoms: C_22  and  O_28 
ROOT
HETATM    1  C   UNK N   1      20.814  18.095   4.715  0.00  0.00     0.177 C 
HETATM    2  C   UNK N   1      20.954  19.253   3.707  0.00  0.00     0.180 C 
HETATM    3  C   UNK N   1      19.966  18.992   2.567  0.00  0.00     0.181 C 
HETATM    4  C   UNK N   1      20.244  17.619   1.958  0.00  0.00     0.182 C 
HETATM    5  C   UNK N   1      20.257  16.521   3.057  0.00  0.00     0.186 C 
HETATM    6  O   UNK N   1      22.262  19.311   3.209  0.00  0.00    -0.390 OA
HETATM    7  O   UNK N   1      21.165  16.864   4.102  0.00  0.00    -0.368 OA
HETATM    8  H   UNK N   1      23.114  19.303   2.746  0.00  0.00     0.210 HD
ENDROOT
BRANCH   1   9
HETATM    9  C   UNK N   1      21.689  18.309   5.949  0.00  0.00     0.198 C 
BRANCH   9  10
HETATM   10  O   UNK N   1      20.935  18.757   7.037  0.00  0.00    -0.398 OA
HETATM   11  H   UNK N   1      20.350  18.787   7.810  0.00  0.00     0.209 HD
ENDBRANCH   9  10
ENDBRANCH   1   9
BRANCH   3  12
HETATM   12  O   UNK N   1      20.082  19.983   1.588  0.00  0.00    -0.390 OA
HETATM   13  H   UNK N   1      19.395  20.317   0.990  0.00  0.00     0.210 HD
ENDBRANCH   3  12
BRANCH   4  14
HETATM   14  O   UNK N   1      19.278  17.342   0.986  0.00  0.00    -0.390 OA
HETATM   15  H   UNK N   1      18.868  18.024   0.430  0.00  0.00     0.210 HD
ENDBRANCH   4  14
BRANCH   5  16
HETATM   16  C   UNK N   1      20.725  15.236   2.409  0.00  0.00    -0.026 A 
HETATM   17  C   UNK N   1      19.880  14.117   2.362  0.00  0.00     0.011 A 
HETATM   18  C   UNK N   1      20.268  12.967   1.676  0.00  0.00     0.025 A 
HETATM   19  C   UNK N   1      21.504  12.916   1.030  0.00  0.00     0.040 A 
HETATM   20  C   UNK N   1      22.369  14.028   1.090  0.00  0.00    -0.032 A 
HETATM   21 Cl   UNK N   1      21.937  11.455   0.157  0.00  0.00    -0.084 Cl
HETATM   22  C   UNK N   1      21.973  15.176   1.776  0.00  0.00     0.019 A 
BRANCH  20  23
HETATM   23  C   UNK N   1      23.731  13.991   0.474  0.00  0.00     0.078 C 
BRANCH  23  24
HETATM   24  C   UNK N   1      24.721  14.183   1.569  0.00  0.00    -0.054 A 
HETATM   25  C   UNK N   1      24.751  13.299   2.649  0.00  0.00     0.010 A 
HETATM   26  C   UNK N   1      25.603  13.547   3.726  0.00  0.00     0.037 A 
HETATM   27  C   UNK N   1      26.419  14.687   3.725  0.00  0.00     0.069 A 
HETATM   28  C   UNK N   1      26.395  15.564   2.640  0.00  0.00     0.037 A 
HETATM   29  C   UNK N   1      25.550  15.313   1.562  0.00  0.00     0.010 A 
BRANCH  27  30
HETATM   30  O   UNK N   1      27.231  14.946   4.772  0.00  0.00    -0.344 OA
BRANCH  30  31
HETATM   31  C   UNK N   1      27.577  16.218   5.191  0.00  0.00     0.154 C 
HETATM   32  C   UNK N   1      27.332  16.401   6.650  0.00  0.00     0.061 C 
HETATM   33  C   UNK N   1      28.337  17.483   7.011  0.00  0.00     0.170 C 
HETATM   34  O   UNK N   1      29.252  17.652   5.950  0.00  0.00    -0.389 OA
HETATM   35  C   UNK N   1      29.047  16.556   5.101  0.00  0.00     0.200 C 
ENDBRANCH  30  31
ENDBRANCH  27  30
ENDBRANCH  23  24
ENDBRANCH  20  23
ENDBRANCH   5  16
TORSDOF 9
ENDMDL
MODEL 9
REMARK VINA RESULT:      -7.1      4.608      8.739
REMARK  9 active torsions:
REMARK  status: ('A' for Active; 'I' for Inactive)
REMARK    1  A    between atoms: C_13  and  C_9 
REMARK    2  A    between atoms: C_15  and  C_9 
REMARK    3  A    between atoms: C_19  and  C_11 
REMARK    4  A    between atoms: O_25  and  C_11 
REMARK    5  A    between atoms: C_23  and  C_14 
REMARK    6  A    between atoms: O_30  and  C_16 
REMARK    7  A    between atoms: C_17  and  O_30 
REMARK    8  A    between atoms: C_21  and  O_27 
REMARK    9  A    between atoms: C_22  and  O_28 
ROOT
HETATM    1  C   UNK N   1      31.664  14.566   5.602  0.00  0.00     0.177 C 
HETATM    2  C   UNK N   1      33.025  15.242   5.342  0.00  0.00     0.180 C 
HETATM    3  C   UNK N   1      33.336  16.128   6.549  0.00  0.00     0.181 C 
HETATM    4  C   UNK N   1      32.195  17.121   6.759  0.00  0.00     0.182 C 
HETATM    5  C   UNK N   1      30.830  16.383   6.841  0.00  0.00     0.186 C 
HETATM    6  O   UNK N   1      32.971  16.015   4.175  0.00  0.00    -0.390 OA
HETATM    7  O   UNK N   1      30.641  15.544   5.704  0.00  0.00    -0.368 OA
HETATM    8  H   UNK N   1      32.935  16.661   3.452  0.00  0.00     0.210 HD
ENDROOT
BRANCH   1   9
HETATM    9  C   UNK N   1      31.303  13.574   4.497  0.00  0.00     0.198 C 
BRANCH   9  10
HETATM   10  O   UNK N   1      30.851  14.231   3.349  0.00  0.00    -0.398 OA
HETATM   11  H   UNK N   1      30.709  14.492   2.426  0.00  0.00     0.209 HD
ENDBRANCH   9  10
ENDBRANCH   1   9
BRANCH   3  12
HETATM   12  O   UNK N   1      34.538  16.815   6.351  0.00  0.00    -0.390 OA
HETATM   13  H   UNK N   1      34.921  17.123   5.515  0.00  0.00     0.210 HD
ENDBRANCH   3  12
BRANCH   4  14
HETATM   14  O   UNK N   1      32.434  17.862   7.920  0.00  0.00    -0.390 OA
HETATM   15  H   UNK N   1      32.444  18.833   7.942  0.00  0.00     0.210 HD
ENDBRANCH   4  14
BRANCH   5  16
HETATM   16  C   UNK N   1      29.744  17.437   6.854  0.00  0.00    -0.026 A 
HETATM   17  C   UNK N   1      29.232  17.913   8.071  0.00  0.00     0.011 A 
HETATM   18  C   UNK N   1      28.306  18.956   8.088  0.00  0.00     0.025 A 
HETATM   19  C   UNK N   1      27.878  19.536   6.894  0.00  0.00     0.040 A 
HETATM   20  C   UNK N   1      28.371  19.051   5.665  0.00  0.00    -0.032 A 
HETATM   21 Cl   UNK N   1      26.731  20.865   6.968  0.00  0.00    -0.084 Cl
HETATM   22  C   UNK N   1      29.298  18.008   5.655  0.00  0.00     0.019 A 
BRANCH  20  23
HETATM   23  C   UNK N   1      27.885  19.595   4.360  0.00  0.00     0.078 C 
BRANCH  23  24
HETATM   24  C   UNK N   1      26.449  19.225   4.229  0.00  0.00    -0.054 A 
HETATM   25  C   UNK N   1      25.526  20.160   3.758  0.00  0.00     0.010 A 
HETATM   26  C   UNK N   1      24.166  19.847   3.743  0.00  0.00     0.037 A 
HETATM   27  C   UNK N   1      23.730  18.599   4.211  0.00  0.00     0.069 A 
HETATM   28  C   UNK N   1      24.656  17.662   4.672  0.00  0.00     0.037 A 
HETATM   29  C   UNK N   1      26.013  17.972   4.680  0.00  0.00     0.010 A 
BRANCH  27  30
HETATM   30  O   UNK N   1      22.415  18.295   4.221  0.00  0.00    -0.344 OA
BRANCH  30  31
HETATM   31  C   UNK N   1      21.536  18.608   3.199  0.00  0.00     0.154 C 
HETATM   32  C   UNK N   1      20.672  17.448   2.842  0.00  0.00     0.061 C 
HETATM   33  C   UNK N   1      19.436  18.129   2.279  0.00  0.00     0.170 C 
HETATM   34  O   UNK N   1      19.475  19.507   2.584  0.00  0.00    -0.389 OA
HETATM   35  C   UNK N   1      20.495  19.651   3.533  0.00  0.00     0.200 C 
ENDBRANCH  30  31
ENDBRANCH  27  30
ENDBRANCH  23  24
ENDBRANCH  20  23
ENDBRANCH   5  16
TORSDOF 9
ENDMDL
