MODEL 1
REMARK VINA RESULT:      -7.3      0.000      0.000
REMARK  5 active torsions:
REMARK  status: ('A' for Active; 'I' for Inactive)
REMARK    1  A    between atoms: C_7  and  O_1 
REMARK    2  A    between atoms: O_3  and  C_26 
REMARK    3  A    between atoms: C_7  and  C_17 
REMARK    4  A    between atoms: C_17  and  C_25 
REMARK    5  A    between atoms: C_25  and  C_26 
ROOT
HETATM    1  O   UNK N   1      24.005  12.275  12.322  0.00  0.00    -0.293 OA
HETATM    2  C   UNK N   1      21.448  15.816   5.652  0.00  0.00    -0.009 C 
HETATM    3  C   UNK N   1      22.856  15.215   5.488  0.00  0.00     0.005 C 
HETATM    4  C   UNK N   1      21.240  16.644   4.334  0.00  0.00     0.066 C 
HETATM    5  C   UNK N   1      23.414  14.762   6.846  0.00  0.00     0.018 C 
HETATM    6  C   UNK N   1      22.348  13.906   7.639  0.00  0.00     0.006 C 
HETATM    7  C   UNK N   1      22.946  12.684   8.391  0.00  0.00    -0.012 C 
HETATM    8  C   UNK N   1      20.503  14.626   5.912  0.00  0.00     0.013 C 
HETATM    9  C   UNK N   1      23.600  16.234   4.671  0.00  0.00     0.009 C 
HETATM   10  C   UNK N   1      22.560  16.479   3.578  0.00  0.00     0.039 C 
HETATM   11  C   UNK N   1      24.339  13.050   8.898  0.00  0.00    -0.046 C 
HETATM   12  C   UNK N   1      21.112  13.500   6.785  0.00  0.00     0.007 C 
HETATM   13  C   UNK N   1      24.818  14.200   6.815  0.00  0.00    -0.021 C 
HETATM   14  C   UNK N   1      21.333  16.764   6.860  0.00  0.00     0.019 C 
HETATM   15  C   UNK N   1      25.295  13.558   7.893  0.00  0.00     0.004 C 
HETATM   16  C   UNK N   1      21.966  12.274   9.516  0.00  0.00     0.022 C 
HETATM   17  C   UNK N   1      24.721  12.855  10.169  0.00  0.00     0.058 C 
HETATM   18  C   UNK N   1      23.127  11.501   7.436  0.00  0.00     0.021 C 
HETATM   19  C   UNK N   1      23.803  12.208  11.121  0.00  0.00     0.149 C 
HETATM   20  C   UNK N   1      22.637  11.434  10.590  0.00  0.00     0.084 C 
ENDROOT
BRANCH   4  21
HETATM   21  O   UNK N   1      21.134  18.021   4.589  0.00  0.00    -0.389 OA
HETATM   22  H   UNK N   1      20.695  18.877   4.710  0.00  0.00     0.210 HD
ENDBRANCH   4  21
BRANCH   4  23
HETATM   23  C   UNK N   1      20.042  16.202   3.476  0.00  0.00     0.049 C 
BRANCH  23  24
HETATM   24  C   UNK N   1      20.383  16.062   1.984  0.00  0.00     0.113 C 
BRANCH  24  25
HETATM   25  C   UNK N   1      19.933  17.216   1.145  0.00  0.00     0.139 C 
HETATM   26  O   UNK N   1      20.367  17.349   0.011  0.00  0.00    -0.650 OA
BRANCH  25  27
HETATM   27  O   UNK N   1      19.026  18.088   1.622  0.00  0.00    -0.776 OA
HETATM   28  H   UNK N   1      18.959  18.768   2.262  0.00  0.00     0.167 HD
ENDBRANCH  25  27
ENDBRANCH  24  25
ENDBRANCH  23  24
ENDBRANCH   4  23
TORSDOF 5
ENDMDL
MODEL 2
REMARK VINA RESULT:      -7.3     10.360     14.890
REMARK  5 active torsions:
REMARK  status: ('A' for Active; 'I' for Inactive)
REMARK    1  A    between atoms: C_7  and  O_1 
REMARK    2  A    between atoms: O_3  and  C_26 
REMARK    3  A    between atoms: C_7  and  C_17 
REMARK    4  A    between atoms: C_17  and  C_25 
REMARK    5  A    between atoms: C_25  and  C_26 
ROOT
HETATM    1  O   UNK N   1      33.051  16.351   2.723  0.00  0.00    -0.293 OA
HETATM    2  C   UNK N   1      35.481  14.184  10.000  0.00  0.00    -0.009 C 
HETATM    3  C   UNK N   1      34.903  15.611   9.981  0.00  0.00     0.005 C 
HETATM    4  C   UNK N   1      36.096  14.050  11.439  0.00  0.00     0.066 C 
HETATM    5  C   UNK N   1      34.675  16.084   8.538  0.00  0.00     0.018 C 
HETATM    6  C   UNK N   1      33.915  14.983   7.694  0.00  0.00     0.006 C 
HETATM    7  C   UNK N   1      32.838  15.552   6.730  0.00  0.00    -0.012 C 
HETATM    8  C   UNK N   1      34.316  13.246   9.624  0.00  0.00     0.013 C 
HETATM    9  C   UNK N   1      35.810  16.388  10.894  0.00  0.00     0.009 C 
HETATM   10  C   UNK N   1      35.859  15.421  12.075  0.00  0.00     0.039 C 
HETATM   11  C   UNK N   1      33.315  16.901   6.196  0.00  0.00    -0.046 C 
HETATM   12  C   UNK N   1      33.351  13.816   8.554  0.00  0.00     0.007 C 
HETATM   13  C   UNK N   1      34.154  17.498   8.394  0.00  0.00    -0.021 C 
HETATM   14  C   UNK N   1      36.595  13.970   8.958  0.00  0.00     0.019 C 
HETATM   15  C   UNK N   1      33.694  17.913   7.203  0.00  0.00     0.004 C 
HETATM   16  C   UNK N   1      32.572  14.507   5.621  0.00  0.00     0.022 C 
HETATM   17  C   UNK N   1      33.324  17.200   4.888  0.00  0.00     0.058 C 
HETATM   18  C   UNK N   1      31.530  15.819   7.481  0.00  0.00     0.021 C 
HETATM   19  C   UNK N   1      32.799  16.232   3.910  0.00  0.00     0.149 C 
HETATM   20  C   UNK N   1      31.922  15.120   4.391  0.00  0.00     0.084 C 
ENDROOT
BRANCH   4  21
HETATM   21  O   UNK N   1      37.492  13.901  11.402  0.00  0.00    -0.389 OA
HETATM   22  H   UNK N   1      38.374  13.652  11.719  0.00  0.00     0.210 HD
ENDBRANCH   4  21
BRANCH   4  23
HETATM   23  C   UNK N   1      35.497  12.921  12.295  0.00  0.00     0.049 C 
BRANCH  23  24
HETATM   24  C   UNK N   1      35.407  13.274  13.788  0.00  0.00     0.113 C 
BRANCH  24  25
HETATM   25  C   UNK N   1      36.506  12.690  14.619  0.00  0.00     0.139 C 
HETATM   26  O   UNK N   1      36.277  12.332  15.763  0.00  0.00    -0.650 OA
BRANCH  25  27
HETATM   27  O   UNK N   1      37.736  12.528  14.100  0.00  0.00    -0.776 OA
HETATM   28  H   UNK N   1      38.264  12.858  13.399  0.00  0.00     0.167 HD
ENDBRANCH  25  27
ENDBRANCH  24  25
ENDBRANCH  23  24
ENDBRANCH   4  23
TORSDOF 5
ENDMDL
MODEL 3
REMARK VINA RESULT:      -7.3     14.849     17.483
REMARK  5 active torsions:
REMARK  status: ('A' for Active; 'I' for Inactive)
REMARK    1  A    between atoms: C_7  and  O_1 
REMARK    2  A    between atoms: O_3  and  C_26 
REMARK    3  A    between atoms: C_7  and  C_17 
REMARK    4  A    between atoms: C_17  and  C_25 
REMARK    5  A    between atoms: C_25  and  C_26 
ROOT
HETATM    1  O   UNK N   1      25.327  28.045  -3.034  0.00  0.00    -0.293 OA
HETATM    2  C   UNK N   1      30.843  22.421  -4.261  0.00  0.00    -0.009 C 
HETATM    3  C   UNK N   1      29.902  22.586  -5.469  0.00  0.00     0.005 C 
HETATM    4  C   UNK N   1      31.680  21.140  -4.612  0.00  0.00     0.066 C 
HETATM    5  C   UNK N   1      28.713  23.491  -5.110  0.00  0.00     0.018 C 
HETATM    6  C   UNK N   1      29.204  24.809  -4.388  0.00  0.00     0.006 C 
HETATM    7  C   UNK N   1      28.445  26.093  -4.826  0.00  0.00    -0.012 C 
HETATM    8  C   UNK N   1      31.597  23.759  -4.122  0.00  0.00     0.013 C 
HETATM    9  C   UNK N   1      29.661  21.180  -5.943  0.00  0.00     0.009 C 
HETATM   10  C   UNK N   1      31.102  20.672  -5.949  0.00  0.00     0.039 C 
HETATM   11  C   UNK N   1      26.990  25.733  -5.113  0.00  0.00    -0.046 C 
HETATM   12  C   UNK N   1      30.745  25.014  -4.439  0.00  0.00     0.007 C 
HETATM   13  C   UNK N   1      27.692  23.684  -6.210  0.00  0.00    -0.021 C 
HETATM   14  C   UNK N   1      30.091  22.180  -2.938  0.00  0.00     0.019 C 
HETATM   15  C   UNK N   1      26.759  24.641  -6.081  0.00  0.00     0.004 C 
HETATM   16  C   UNK N   1      28.610  27.161  -3.718  0.00  0.00     0.022 C 
HETATM   17  C   UNK N   1      25.958  26.410  -4.587  0.00  0.00     0.058 C 
HETATM   18  C   UNK N   1      29.025  26.643  -6.132  0.00  0.00     0.021 C 
HETATM   19  C   UNK N   1      26.209  27.592  -3.744  0.00  0.00     0.149 C 
HETATM   20  C   UNK N   1      27.551  28.248  -3.799  0.00  0.00     0.084 C 
ENDROOT
BRANCH   4  21
HETATM   21  O   UNK N   1      31.430  20.087  -3.717  0.00  0.00    -0.389 OA
HETATM   22  H   UNK N   1      30.969  19.596  -3.019  0.00  0.00     0.210 HD
ENDBRANCH   4  21
BRANCH   4  23
HETATM   23  C   UNK N   1      33.199  21.366  -4.704  0.00  0.00     0.049 C 
BRANCH  23  24
HETATM   24  C   UNK N   1      33.990  20.618  -3.619  0.00  0.00     0.113 C 
BRANCH  24  25
HETATM   25  C   UNK N   1      34.410  19.237  -4.013  0.00  0.00     0.139 C 
HETATM   26  O   UNK N   1      35.495  19.059  -4.542  0.00  0.00    -0.650 OA
BRANCH  25  27
HETATM   27  O   UNK N   1      33.610  18.187  -3.754  0.00  0.00    -0.776 OA
HETATM   28  H   UNK N   1      33.616  17.389  -3.262  0.00  0.00     0.167 HD
ENDBRANCH  25  27
ENDBRANCH  24  25
ENDBRANCH  23  24
ENDBRANCH   4  23
TORSDOF 5
ENDMDL
MODEL 4
REMARK VINA RESULT:      -7.2     15.081     17.205
REMARK  5 active torsions:
REMARK  status: ('A' for Active; 'I' for Inactive)
REMARK    1  A    between atoms: C_7  and  O_1 
REMARK    2  A    between atoms: O_3  and  C_26 
REMARK    3  A    between atoms: C_7  and  C_17 
REMARK    4  A    between atoms: C_17  and  C_25 
REMARK    5  A    between atoms: C_25  and  C_26 
ROOT
HETATM    1  O   UNK N   1      32.532   7.852  21.516  0.00  0.00    -0.293 OA
HETATM    2  C   UNK N   1      35.225  11.339  14.872  0.00  0.00    -0.009 C 
HETATM    3  C   UNK N   1      35.766  12.017  16.144  0.00  0.00     0.005 C 
HETATM    4  C   UNK N   1      35.679  12.300  13.715  0.00  0.00     0.066 C 
HETATM    5  C   UNK N   1      35.043  11.485  17.391  0.00  0.00     0.018 C 
HETATM    6  C   UNK N   1      34.984   9.905  17.380  0.00  0.00     0.006 C 
HETATM    7  C   UNK N   1      35.223   9.251  18.770  0.00  0.00    -0.012 C 
HETATM    8  C   UNK N   1      35.790   9.904  14.879  0.00  0.00     0.013 C 
HETATM    9  C   UNK N   1      35.731  13.485  15.823  0.00  0.00     0.009 C 
HETATM   10  C   UNK N   1      36.381  13.450  14.440  0.00  0.00     0.039 C 
HETATM   11  C   UNK N   1      34.623  10.150  19.848  0.00  0.00    -0.046 C 
HETATM   12  C   UNK N   1      35.874   9.254  16.284  0.00  0.00     0.007 C 
HETATM   13  C   UNK N   1      35.457  12.119  18.700  0.00  0.00    -0.021 C 
HETATM   14  C   UNK N   1      33.690  11.226  14.854  0.00  0.00     0.019 C 
HETATM   15  C   UNK N   1      35.069  11.559  19.856  0.00  0.00     0.004 C 
HETATM   16  C   UNK N   1      34.622   7.825  18.749  0.00  0.00     0.022 C 
HETATM   17  C   UNK N   1      33.794   9.688  20.797  0.00  0.00     0.058 C 
HETATM   18  C   UNK N   1      36.721   9.153  19.068  0.00  0.00     0.021 C 
HETATM   19  C   UNK N   1      33.481   8.251  20.863  0.00  0.00     0.149 C 
HETATM   20  C   UNK N   1      34.369   7.283  20.146  0.00  0.00     0.084 C 
ENDROOT
BRANCH   4  21
HETATM   21  O   UNK N   1      34.585  12.891  13.064  0.00  0.00    -0.389 OA
HETATM   22  H   UNK N   1      34.114  13.530  12.506  0.00  0.00     0.210 HD
ENDBRANCH   4  21
BRANCH   4  23
HETATM   23  C   UNK N   1      36.597  11.655  12.662  0.00  0.00     0.049 C 
BRANCH  23  24
HETATM   24  C   UNK N   1      36.447  12.277  11.265  0.00  0.00     0.113 C 
BRANCH  24  25
HETATM   25  C   UNK N   1      37.501  13.283  10.929  0.00  0.00     0.139 C 
HETATM   26  O   UNK N   1      38.619  12.909  10.611  0.00  0.00    -0.650 OA
BRANCH  25  27
HETATM   27  O   UNK N   1      37.213  14.597  10.942  0.00  0.00    -0.776 OA
HETATM   28  H   UNK N   1      37.339  15.361  10.413  0.00  0.00     0.167 HD
ENDBRANCH  25  27
ENDBRANCH  24  25
ENDBRANCH  23  24
ENDBRANCH   4  23
TORSDOF 5
ENDMDL
MODEL 5
REMARK VINA RESULT:      -7.2      6.226      7.969
REMARK  5 active torsions:
REMARK  status: ('A' for Active; 'I' for Inactive)
REMARK    1  A    between atoms: C_7  and  O_1 
REMARK    2  A    between atoms: O_3  and  C_26 
REMARK    3  A    between atoms: C_7  and  C_17 
REMARK    4  A    between atoms: C_17  and  C_25 
REMARK    5  A    between atoms: C_25  and  C_26 
ROOT
HETATM    1  O   UNK N   1      33.247  12.722   8.267  0.00  0.00    -0.293 OA
HETATM    2  C   UNK N   1      27.788  17.815   5.471  0.00  0.00    -0.009 C 
HETATM    3  C   UNK N   1      28.725  18.474   6.500  0.00  0.00     0.005 C 
HETATM    4  C   UNK N   1      26.677  18.898   5.231  0.00  0.00     0.066 C 
HETATM    5  C   UNK N   1      29.597  17.417   7.195  0.00  0.00     0.018 C 
HETATM    6  C   UNK N   1      30.253  16.442   6.138  0.00  0.00     0.006 C 
HETATM    7  C   UNK N   1      31.726  16.060   6.454  0.00  0.00    -0.012 C 
HETATM    8  C   UNK N   1      28.679  17.420   4.275  0.00  0.00     0.013 C 
HETATM    9  C   UNK N   1      27.817  19.354   7.314  0.00  0.00     0.009 C 
HETATM   10  C   UNK N   1      27.055  20.037   6.180  0.00  0.00     0.039 C 
HETATM   11  C   UNK N   1      31.898  15.966   7.968  0.00  0.00    -0.046 C 
HETATM   12  C   UNK N   1      30.091  16.916   4.665  0.00  0.00     0.007 C 
HETATM   13  C   UNK N   1      30.524  17.945   8.267  0.00  0.00    -0.021 C 
HETATM   14  C   UNK N   1      27.126  16.527   5.994  0.00  0.00     0.019 C 
HETATM   15  C   UNK N   1      31.490  17.150   8.753  0.00  0.00     0.004 C 
HETATM   16  C   UNK N   1      32.061  14.745   5.711  0.00  0.00     0.022 C 
HETATM   17  C   UNK N   1      32.459  14.907   8.569  0.00  0.00     0.058 C 
HETATM   18  C   UNK N   1      32.681  17.157   5.974  0.00  0.00     0.021 C 
HETATM   19  C   UNK N   1      32.998  13.802   7.758  0.00  0.00     0.149 C 
HETATM   20  C   UNK N   1      33.267  14.036   6.305  0.00  0.00     0.084 C 
ENDROOT
BRANCH   4  21
HETATM   21  O   UNK N   1      25.415  18.462   5.667  0.00  0.00    -0.389 OA
HETATM   22  H   UNK N   1      24.550  18.027   5.612  0.00  0.00     0.210 HD
ENDBRANCH   4  21
BRANCH   4  23
HETATM   23  C   UNK N   1      26.558  19.392   3.779  0.00  0.00     0.049 C 
BRANCH  23  24
HETATM   24  C   UNK N   1      25.138  19.257   3.206  0.00  0.00     0.113 C 
BRANCH  24  25
HETATM   25  C   UNK N   1      24.571  20.536   2.675  0.00  0.00     0.139 C 
HETATM   26  O   UNK N   1      25.320  21.413   2.275  0.00  0.00    -0.650 OA
BRANCH  25  27
HETATM   27  O   UNK N   1      23.239  20.708   2.603  0.00  0.00    -0.776 OA
HETATM   28  H   UNK N   1      22.504  20.392   2.115  0.00  0.00     0.167 HD
ENDBRANCH  25  27
ENDBRANCH  24  25
ENDBRANCH  23  24
ENDBRANCH   4  23
TORSDOF 5
ENDMDL
MODEL 6
REMARK VINA RESULT:      -7.1      4.104      7.972
REMARK  5 active torsions:
REMARK  status: ('A' for Active; 'I' for Inactive)
REMARK    1  A    between atoms: C_7  and  O_1 
REMARK    2  A    between atoms: O_3  and  C_26 
REMARK    3  A    between atoms: C_7  and  C_17 
REMARK    4  A    between atoms: C_17  and  C_25 
REMARK    5  A    between atoms: C_25  and  C_26 
ROOT
HETATM    1  O   UNK N   1      19.623  15.162   1.685  0.00  0.00    -0.293 OA
HETATM    2  C   UNK N   1      26.508  17.795   4.723  0.00  0.00    -0.009 C 
HETATM    3  C   UNK N   1      25.426  18.891   4.697  0.00  0.00     0.005 C 
HETATM    4  C   UNK N   1      27.813  18.568   5.128  0.00  0.00     0.066 C 
HETATM    5  C   UNK N   1      24.204  18.428   3.889  0.00  0.00     0.018 C 
HETATM    6  C   UNK N   1      23.755  16.977   4.325  0.00  0.00     0.006 C 
HETATM    7  C   UNK N   1      22.214  16.785   4.404  0.00  0.00    -0.012 C 
HETATM    8  C   UNK N   1      25.988  16.705   5.682  0.00  0.00     0.013 C 
HETATM    9  C   UNK N   1      26.170  20.133   4.292  0.00  0.00     0.009 C 
HETATM   10  C   UNK N   1      27.363  20.026   5.240  0.00  0.00     0.039 C 
HETATM   11  C   UNK N   1      21.556  17.623   3.310  0.00  0.00    -0.046 C 
HETATM   12  C   UNK N   1      24.459  16.465   5.614  0.00  0.00     0.007 C 
HETATM   13  C   UNK N   1      23.094  19.448   3.752  0.00  0.00    -0.021 C 
HETATM   14  C   UNK N   1      26.726  17.130   3.351  0.00  0.00     0.019 C 
HETATM   15  C   UNK N   1      21.898  19.060   3.283  0.00  0.00     0.004 C 
HETATM   16  C   UNK N   1      21.903  15.273   4.297  0.00  0.00     0.022 C 
HETATM   17  C   UNK N   1      20.652  17.118   2.457  0.00  0.00     0.058 C 
HETATM   18  C   UNK N   1      21.674  17.309   5.738  0.00  0.00     0.021 C 
HETATM   19  C   UNK N   1      20.211  15.720   2.596  0.00  0.00     0.149 C 
HETATM   20  C   UNK N   1      20.464  15.007   3.887  0.00  0.00     0.084 C 
ENDROOT
BRANCH   4  21
HETATM   21  O   UNK N   1      28.770  18.558   4.101  0.00  0.00    -0.389 OA
HETATM   22  H   UNK N   1      29.121  18.433   3.206  0.00  0.00     0.210 HD
ENDBRANCH   4  21
BRANCH   4  23
HETATM   23  C   UNK N   1      28.474  18.082   6.430  0.00  0.00     0.049 C 
BRANCH  23  24
HETATM   24  C   UNK N   1      28.218  19.014   7.625  0.00  0.00     0.113 C 
BRANCH  24  25
HETATM   25  C   UNK N   1      28.376  18.353   8.958  0.00  0.00     0.139 C 
HETATM   26  O   UNK N   1      29.342  18.616   9.656  0.00  0.00    -0.650 OA
BRANCH  25  27
HETATM   27  O   UNK N   1      27.441  17.495   9.404  0.00  0.00    -0.776 OA
HETATM   28  H   UNK N   1      26.978  17.291  10.193  0.00  0.00     0.167 HD
ENDBRANCH  25  27
ENDBRANCH  24  25
ENDBRANCH  23  24
ENDBRANCH   4  23
TORSDOF 5
ENDMDL
MODEL 7
REMARK VINA RESULT:      -7.1     14.913     16.676
REMARK  5 active torsions:
REMARK  status: ('A' for Active; 'I' for Inactive)
REMARK    1  A    between atoms: C_7  and  O_1 
REMARK    2  A    between atoms: O_3  and  C_26 
REMARK    3  A    between atoms: C_7  and  C_17 
REMARK    4  A    between atoms: C_17  and  C_25 
REMARK    5  A    between atoms: C_25  and  C_26 
ROOT
HETATM    1  O   UNK N   1      35.139  20.718  -5.559  0.00  0.00    -0.293 OA
HETATM    2  C   UNK N   1      28.155  24.563  -5.640  0.00  0.00    -0.009 C 
HETATM    3  C   UNK N   1      28.010  23.085  -6.047  0.00  0.00     0.005 C 
HETATM    4  C   UNK N   1      26.740  25.174  -5.941  0.00  0.00     0.066 C 
HETATM    5  C   UNK N   1      29.389  22.443  -6.259  0.00  0.00     0.018 C 
HETATM    6  C   UNK N   1      30.357  22.771  -5.052  0.00  0.00     0.006 C 
HETATM    7  C   UNK N   1      31.252  21.578  -4.613  0.00  0.00    -0.012 C 
HETATM    8  C   UNK N   1      28.641  24.557  -4.176  0.00  0.00     0.013 C 
HETATM    9  C   UNK N   1      27.010  23.108  -7.170  0.00  0.00     0.009 C 
HETATM   10  C   UNK N   1      25.949  24.007  -6.537  0.00  0.00     0.039 C 
HETATM   11  C   UNK N   1      31.625  20.760  -5.847  0.00  0.00    -0.046 C 
HETATM   12  C   UNK N   1      29.641  23.423  -3.836  0.00  0.00     0.007 C 
HETATM   13  C   UNK N   1      29.369  20.999  -6.712  0.00  0.00    -0.021 C 
HETATM   14  C   UNK N   1      29.211  25.316  -6.470  0.00  0.00     0.019 C 
HETATM   15  C   UNK N   1      30.505  20.285  -6.686  0.00  0.00     0.004 C 
HETATM   16  C   UNK N   1      32.476  22.140  -3.851  0.00  0.00     0.022 C 
HETATM   17  C   UNK N   1      32.889  20.411  -6.130  0.00  0.00     0.058 C 
HETATM   18  C   UNK N   1      30.479  20.639  -3.684  0.00  0.00     0.021 C 
HETATM   19  C   UNK N   1      33.974  20.765  -5.200  0.00  0.00     0.149 C 
HETATM   20  C   UNK N   1      33.628  21.150  -3.796  0.00  0.00     0.084 C 
ENDROOT
BRANCH   4  21
HETATM   21  O   UNK N   1      26.790  26.139  -6.960  0.00  0.00    -0.389 OA
HETATM   22  H   UNK N   1      26.455  26.712  -7.667  0.00  0.00     0.210 HD
ENDBRANCH   4  21
BRANCH   4  23
HETATM   23  C   UNK N   1      26.023  25.775  -4.720  0.00  0.00     0.049 C 
BRANCH  23  24
HETATM   24  C   UNK N   1      25.543  27.217  -4.947  0.00  0.00     0.113 C 
BRANCH  24  25
HETATM   25  C   UNK N   1      25.709  28.109  -3.758  0.00  0.00     0.139 C 
HETATM   26  O   UNK N   1      25.755  27.626  -2.638  0.00  0.00    -0.650 OA
BRANCH  25  27
HETATM   27  O   UNK N   1      25.842  29.438  -3.921  0.00  0.00    -0.776 OA
HETATM   28  H   UNK N   1      26.025  30.204  -3.413  0.00  0.00     0.167 HD
ENDBRANCH  25  27
ENDBRANCH  24  25
ENDBRANCH  23  24
ENDBRANCH   4  23
TORSDOF 5
ENDMDL
MODEL 8
REMARK VINA RESULT:      -6.8      8.136     10.889
REMARK  5 active torsions:
REMARK  status: ('A' for Active; 'I' for Inactive)
REMARK    1  A    between atoms: C_7  and  O_1 
REMARK    2  A    between atoms: O_3  and  C_26 
REMARK    3  A    between atoms: C_7  and  C_17 
REMARK    4  A    between atoms: C_17  and  C_25 
REMARK    5  A    between atoms: C_25  and  C_26 
ROOT
HETATM    1  O   UNK N   1      26.485  21.399   5.851  0.00  0.00    -0.293 OA
HETATM    2  C   UNK N   1      32.481  16.154   5.546  0.00  0.00    -0.009 C 
HETATM    3  C   UNK N   1      31.752  16.124   6.902  0.00  0.00     0.005 C 
HETATM    4  C   UNK N   1      33.736  15.238   5.777  0.00  0.00     0.066 C 
HETATM    5  C   UNK N   1      30.773  17.303   7.016  0.00  0.00     0.018 C 
HETATM    6  C   UNK N   1      29.882  17.426   5.716  0.00  0.00     0.006 C 
HETATM    7  C   UNK N   1      28.396  17.783   5.996  0.00  0.00    -0.012 C 
HETATM    8  C   UNK N   1      31.446  15.705   4.494  0.00  0.00     0.013 C 
HETATM    9  C   UNK N   1      32.855  15.962   7.910  0.00  0.00     0.009 C 
HETATM   10  C   UNK N   1      33.630  14.824   7.247  0.00  0.00     0.039 C 
HETATM   11  C   UNK N   1      28.330  18.715   7.204  0.00  0.00    -0.046 C 
HETATM   12  C   UNK N   1      30.005  16.209   4.756  0.00  0.00     0.007 C 
HETATM   13  C   UNK N   1      30.035  17.406   8.333  0.00  0.00    -0.021 C 
HETATM   14  C   UNK N   1      32.958  17.562   5.146  0.00  0.00     0.019 C 
HETATM   15  C   UNK N   1      28.990  18.243   8.438  0.00  0.00     0.004 C 
HETATM   16  C   UNK N   1      27.788  18.393   4.711  0.00  0.00     0.022 C 
HETATM   17  C   UNK N   1      27.648  19.870   7.191  0.00  0.00     0.058 C 
HETATM   18  C   UNK N   1      27.602  16.528   6.371  0.00  0.00     0.021 C 
HETATM   19  C   UNK N   1      26.871  20.251   5.999  0.00  0.00     0.149 C 
HETATM   20  C   UNK N   1      26.531  19.200   4.991  0.00  0.00     0.084 C 
ENDROOT
BRANCH   4  21
HETATM   21  O   UNK N   1      34.937  15.959   5.687  0.00  0.00    -0.389 OA
HETATM   22  H   UNK N   1      35.522  16.732   5.725  0.00  0.00     0.210 HD
ENDBRANCH   4  21
BRANCH   4  23
HETATM   23  C   UNK N   1      33.821  14.012   4.852  0.00  0.00     0.049 C 
BRANCH  23  24
HETATM   24  C   UNK N   1      34.813  14.194   3.693  0.00  0.00     0.113 C 
BRANCH  24  25
HETATM   25  C   UNK N   1      34.188  14.108   2.336  0.00  0.00     0.139 C 
HETATM   26  O   UNK N   1      33.066  13.644   2.212  0.00  0.00    -0.650 OA
BRANCH  25  27
HETATM   27  O   UNK N   1      34.845  14.572   1.257  0.00  0.00    -0.776 OA
HETATM   28  H   UNK N   1      35.706  14.563   0.887  0.00  0.00     0.167 HD
ENDBRANCH  25  27
ENDBRANCH  24  25
ENDBRANCH  23  24
ENDBRANCH   4  23
TORSDOF 5
ENDMDL
MODEL 9
REMARK VINA RESULT:      -6.8     14.867     16.874
REMARK  5 active torsions:
REMARK  status: ('A' for Active; 'I' for Inactive)
REMARK    1  A    between atoms: C_7  and  O_1 
REMARK    2  A    between atoms: O_3  and  C_26 
REMARK    3  A    between atoms: C_7  and  C_17 
REMARK    4  A    between atoms: C_17  and  C_25 
REMARK    5  A    between atoms: C_25  and  C_26 
ROOT
HETATM    1  O   UNK N   1      34.330  20.439  -4.232  0.00  0.00    -0.293 OA
HETATM    2  C   UNK N   1      27.522  24.102  -6.180  0.00  0.00    -0.009 C 
HETATM    3  C   UNK N   1      27.845  24.235  -4.680  0.00  0.00     0.005 C 
HETATM    4  C   UNK N   1      26.066  24.677  -6.300  0.00  0.00     0.066 C 
HETATM    5  C   UNK N   1      29.019  23.321  -4.295  0.00  0.00     0.018 C 
HETATM    6  C   UNK N   1      30.218  23.483  -5.312  0.00  0.00     0.006 C 
HETATM    7  C   UNK N   1      31.622  23.479  -4.645  0.00  0.00    -0.012 C 
HETATM    8  C   UNK N   1      28.652  24.841  -6.927  0.00  0.00     0.013 C 
HETATM    9  C   UNK N   1      26.513  24.076  -4.001  0.00  0.00     0.009 C 
HETATM   10  C   UNK N   1      25.683  25.028  -4.860  0.00  0.00     0.039 C 
HETATM   11  C   UNK N   1      31.598  22.528  -3.451  0.00  0.00    -0.046 C 
HETATM   12  C   UNK N   1      30.054  24.684  -6.287  0.00  0.00     0.007 C 
HETATM   13  C   UNK N   1      29.393  23.329  -2.829  0.00  0.00    -0.021 C 
HETATM   14  C   UNK N   1      27.526  22.643  -6.672  0.00  0.00     0.019 C 
HETATM   15  C   UNK N   1      30.546  22.763  -2.441  0.00  0.00     0.004 C 
HETATM   16  C   UNK N   1      32.672  23.100  -5.716  0.00  0.00     0.022 C 
HETATM   17  C   UNK N   1      32.522  21.572  -3.268  0.00  0.00     0.058 C 
HETATM   18  C   UNK N   1      31.959  24.866  -4.091  0.00  0.00     0.021 C 
HETATM   19  C   UNK N   1      33.650  21.451  -4.206  0.00  0.00     0.149 C 
HETATM   20  C   UNK N   1      33.972  22.604  -5.103  0.00  0.00     0.084 C 
ENDROOT
BRANCH   4  21
HETATM   21  O   UNK N   1      25.143  23.695  -6.694  0.00  0.00    -0.389 OA
HETATM   22  H   UNK N   1      24.433  23.042  -6.593  0.00  0.00     0.210 HD
ENDBRANCH   4  21
BRANCH   4  23
HETATM   23  C   UNK N   1      25.926  25.894  -7.231  0.00  0.00     0.049 C 
BRANCH  23  24
HETATM   24  C   UNK N   1      25.752  27.220  -6.474  0.00  0.00     0.113 C 
BRANCH  24  25
HETATM   25  C   UNK N   1      27.025  27.981  -6.277  0.00  0.00     0.139 C 
HETATM   26  O   UNK N   1      27.394  28.267  -5.149  0.00  0.00    -0.650 OA
BRANCH  25  27
HETATM   27  O   UNK N   1      27.782  28.321  -7.336  0.00  0.00    -0.776 OA
HETATM   28  H   UNK N   1      27.764  28.907  -8.067  0.00  0.00     0.167 HD
ENDBRANCH  25  27
ENDBRANCH  24  25
ENDBRANCH  23  24
ENDBRANCH   4  23
TORSDOF 5
ENDMDL
