REMARK WARNING: 32 MAX_TORS EXCEEDED!!!
REMARK  173 active torsions:
REMARK  status: ('A' for Active; 'I' for Inactive)
REMARK    1  A    between atoms: S_1  and  C_276 
REMARK    2  A    between atoms: O_7  and  C_150 
REMARK    3  A    between atoms: O_9  and  C_154 
REMARK    4  A    between atoms: O_13  and  C_161 
REMARK    5  A    between atoms: O_16  and  C_170 
REMARK    6  A    between atoms: C_177  and  O_19 
REMARK    7  A    between atoms: O_32  and  C_254 
REMARK    8  A    between atoms: O_38  and  C_268 
REMARK    9  A    between atoms: O_42  and  C_275 
REMARK   10  A    between atoms: C_277  and  O_43 
REMARK   11  A    between atoms: O_49  and  C_289 
REMARK   12  A    between atoms: O_60  and  C_326 
REMARK       I    between atoms: N_65  and  C_134 
REMARK       I    between atoms: N_66  and  C_137 
REMARK       I    between atoms: N_67  and  C_138 
REMARK   13  A    between atoms: C_140  and  N_67 
REMARK   14  A    between atoms: C_139  and  N_68 
REMARK       I    between atoms: N_68  and  C_147 
REMARK       I    between atoms: N_69  and  C_145 
REMARK   15  A    between atoms: C_152  and  N_69 
REMARK   16  A    between atoms: C_148  and  N_70 
REMARK       I    between atoms: N_70  and  C_156 
REMARK       I    between atoms: N_71  and  C_155 
REMARK   17  A    between atoms: C_159  and  N_71 
REMARK   18  A    between atoms: C_157  and  N_72 
REMARK       I    between atoms: N_73  and  C_158 
REMARK       I    between atoms: N_74  and  C_163 
REMARK   19  A    between atoms: C_166  and  N_74 
REMARK       I    between atoms: N_75  and  C_168 
REMARK   20  A    between atoms: C_169  and  N_75 
REMARK       I    between atoms: N_76  and  C_173 
REMARK   21  A    between atoms: C_176  and  N_76 
REMARK       I    between atoms: N_77  and  C_178 
REMARK   22  A    between atoms: C_180  and  N_77 
REMARK       I    between atoms: N_78  and  C_182 
REMARK   23  A    between atoms: C_184  and  N_78 
REMARK       I    between atoms: N_79  and  C_188 
REMARK   24  A    between atoms: C_193  and  N_79 
REMARK       I    between atoms: N_83  and  C_197 
REMARK   25  A    between atoms: C_201  and  N_83 
REMARK       I    between atoms: N_84  and  C_204 
REMARK   26  A    between atoms: C_207  and  N_84 
REMARK       I    between atoms: N_85  and  C_209 
REMARK   27  A    between atoms: C_211  and  N_85 
REMARK   28  A    between atoms: C_214  and  N_86 
REMARK       I    between atoms: N_86  and  C_216 
REMARK   29  A    between atoms: C_219  and  N_87 
REMARK       I    between atoms: N_87  and  C_226 
REMARK   30  A    between atoms: N_88  and  C_212 
REMARK       I    between atoms: N_88  and  C_253 
REMARK   31  A    between atoms: C_215  and  N_89 
REMARK       I    between atoms: N_89  and  C_231 
REMARK   32  A    between atoms: C_222  and  N_90 
REMARK       I    between atoms: N_90  and  C_227 
REMARK   33  A    between atoms: C_224  and  N_91 
REMARK       I    between atoms: N_91  and  C_250 
REMARK       I    between atoms: N_92  and  C_232 
REMARK   34  A    between atoms: C_238  and  N_92 
REMARK   35  A    between atoms: C_236  and  N_93 
REMARK       I    between atoms: N_93  and  C_251 
REMARK       I    between atoms: N_94  and  C_241 
REMARK   36  A    between atoms: C_245  and  N_94 
REMARK   37  A    between atoms: C_244  and  N_95 
REMARK       I    between atoms: N_95  and  C_266 
REMARK       I    between atoms: N_96  and  C_257 
REMARK   38  A    between atoms: C_269  and  N_96 
REMARK       I    between atoms: N_97  and  C_261 
REMARK   39  A    between atoms: C_263  and  N_97 
REMARK       I    between atoms: N_98  and  C_253 
REMARK   40  A    between atoms: N_101  and  C_260 
REMARK   41  A    between atoms: C_267  and  N_102 
REMARK       I    between atoms: N_102  and  C_281 
REMARK   42  A    between atoms: N_103  and  C_265 
REMARK       I    between atoms: N_103  and  C_285 
REMARK       I    between atoms: N_104  and  C_271 
REMARK   43  A    between atoms: C_273  and  N_104 
REMARK   44  A    between atoms: C_279  and  N_105 
REMARK       I    between atoms: N_105  and  C_280 
REMARK       I    between atoms: N_106  and  C_278 
REMARK   45  A    between atoms: C_282  and  N_107 
REMARK       I    between atoms: N_107  and  C_293 
REMARK       I    between atoms: N_108  and  C_288 
REMARK   46  A    between atoms: C_292  and  N_108 
REMARK       I    between atoms: N_109  and  C_284 
REMARK       I    between atoms: N_110  and  C_285 
REMARK   47  A    between atoms: C_294  and  N_113 
REMARK       I    between atoms: N_113  and  C_303 
REMARK   48  A    between atoms: C_291  and  N_114 
REMARK       I    between atoms: N_114  and  C_312 
REMARK   49  A    between atoms: C_301  and  N_115 
REMARK       I    between atoms: N_115  and  C_302 
REMARK   50  A    between atoms: C_299  and  N_116 
REMARK       I    between atoms: N_116  and  C_309 
REMARK       I    between atoms: N_117  and  C_304 
REMARK   51  A    between atoms: C_311  and  N_117 
REMARK   52  A    between atoms: N_118  and  C_297 
REMARK   53  A    between atoms: C_313  and  N_119 
REMARK       I    between atoms: N_119  and  C_321 
REMARK   54  A    between atoms: C_316  and  N_120 
REMARK       I    between atoms: N_120  and  C_318 
REMARK   55  A    between atoms: C_317  and  N_121 
REMARK       I    between atoms: N_121  and  C_322 
REMARK       I    between atoms: N_125  and  C_327 
REMARK       I    between atoms: N_126  and  C_331 
REMARK       I    between atoms: N_127  and  C_332 
REMARK   56  A    between atoms: C_128  and  C_134 
REMARK   57  A    between atoms: C_129  and  C_138 
REMARK   58  A    between atoms: C_137  and  C_139 
REMARK   59  A    between atoms: C_139  and  C_141 
REMARK   60  A    between atoms: C_140  and  C_142 
REMARK   61  A    between atoms: C_140  and  C_145 
REMARK   62  A    between atoms: C_141  and  C_143 
REMARK   63  A    between atoms: C_142  and  C_144 
REMARK   64  A    between atoms: C_143  and  C_150 
REMARK   65  A    between atoms: C_147  and  C_148 
REMARK   66  A    between atoms: C_148  and  C_151 
REMARK   67  A    between atoms: C_151  and  C_153 
REMARK   68  A    between atoms: C_152  and  C_154 
REMARK   69  A    between atoms: C_152  and  C_155 
REMARK   70  A    between atoms: C_153  and  C_158 
REMARK   71  A    between atoms: C_156  and  C_157 
REMARK   72  A    between atoms: C_157  and  C_161 
REMARK   73  A    between atoms: C_159  and  C_160 
REMARK   74  A    between atoms: C_159  and  C_163 
REMARK   75  A    between atoms: C_160  and  C_162 
REMARK   76  A    between atoms: C_166  and  C_167 
REMARK   77  A    between atoms: C_166  and  C_168 
REMARK   78  A    between atoms: C_167  and  C_170 
REMARK   79  A    between atoms: C_169  and  C_171 
REMARK   80  A    between atoms: C_169  and  C_173 
REMARK   81  A    between atoms: C_171  and  C_172 
REMARK   82  A    between atoms: C_176  and  C_177 
REMARK   83  A    between atoms: C_176  and  C_178 
REMARK   84  A    between atoms: C_180  and  C_181 
REMARK   85  A    between atoms: C_180  and  C_182 
REMARK   86  A    between atoms: C_181  and  C_183 
REMARK   87  A    between atoms: C_184  and  C_187 
REMARK   88  A    between atoms: C_184  and  C_188 
REMARK   89  A    between atoms: C_187  and  C_191 
REMARK   90  A    between atoms: C_193  and  C_194 
REMARK   91  A    between atoms: C_193  and  C_197 
REMARK   92  A    between atoms: C_194  and  C_196 
REMARK   93  A    between atoms: C_201  and  C_202 
REMARK   94  A    between atoms: C_201  and  C_204 
REMARK   95  A    between atoms: C_202  and  C_203 
REMARK   96  A    between atoms: C_207  and  C_208 
REMARK   97  A    between atoms: C_207  and  C_209 
REMARK   98  A    between atoms: C_208  and  C_210 
REMARK   99  A    between atoms: C_210  and  C_212 
REMARK  100  A    between atoms: C_211  and  C_213 
REMARK  101  A    between atoms: C_211  and  C_216 
REMARK  102  A    between atoms: C_213  and  C_228 
REMARK  103  A    between atoms: C_214  and  C_218 
REMARK  104  A    between atoms: C_214  and  C_227 
REMARK  105  A    between atoms: C_215  and  C_217 
REMARK  106  A    between atoms: C_215  and  C_226 
REMARK  107  A    between atoms: C_217  and  C_221 
REMARK  108  A    between atoms: C_219  and  C_220 
REMARK  109  A    between atoms: C_219  and  C_232 
REMARK  110  A    between atoms: C_220  and  C_223 
REMARK  111  A    between atoms: C_222  and  C_225 
REMARK  112  A    between atoms: C_222  and  C_241 
REMARK  113  A    between atoms: C_224  and  C_230 
REMARK  114  A    between atoms: C_224  and  C_231 
REMARK  115  A    between atoms: C_225  and  C_229 
REMARK  116  A    between atoms: C_228  and  C_254 
REMARK  117  A    between atoms: C_230  and  C_237 
REMARK  118  A    between atoms: C_235  and  C_236 
REMARK  119  A    between atoms: C_235  and  C_247 
REMARK  120  A    between atoms: C_236  and  C_257 
REMARK  121  A    between atoms: C_237  and  C_246 
REMARK  122  A    between atoms: C_238  and  C_251 
REMARK  123  A    between atoms: C_238  and  C_255 
REMARK  124  A    between atoms: C_244  and  C_250 
REMARK  125  A    between atoms: C_244  and  C_252 
REMARK  126  A    between atoms: C_245  and  C_258 
REMARK  127  A    between atoms: C_245  and  C_261 
REMARK  128  A    between atoms: C_246  and  C_260 
REMARK  129  A    between atoms: C_252  and  C_259 
REMARK  130  A    between atoms: C_255  and  C_268 
REMARK  131  A    between atoms: C_258  and  C_264 
REMARK  132  A    between atoms: C_259  and  C_265 
REMARK  133  A    between atoms: C_263  and  C_270 
REMARK  134  A    between atoms: C_263  and  C_271 
REMARK  135  A    between atoms: C_264  and  C_275 
REMARK  136  A    between atoms: C_266  and  C_267 
REMARK  137  A    between atoms: C_267  and  C_272 
REMARK  138  A    between atoms: C_269  and  C_278 
REMARK  139  A    between atoms: C_270  and  C_276 
REMARK  140  A    between atoms: C_272  and  C_284 
REMARK  141  A    between atoms: C_273  and  C_277 
REMARK  142  A    between atoms: C_273  and  C_280 
REMARK  143  A    between atoms: C_279  and  C_283 
REMARK  144  A    between atoms: C_279  and  C_288 
REMARK  145  A    between atoms: C_281  and  C_282 
REMARK  146  A    between atoms: C_282  and  C_289 
REMARK  147  A    between atoms: C_283  and  C_286 
REMARK  148  A    between atoms: C_286  and  C_290 
REMARK  149  A    between atoms: C_290  and  C_297 
REMARK  150  A    between atoms: C_291  and  C_293 
REMARK  151  A    between atoms: C_291  and  C_300 
REMARK  152  A    between atoms: C_292  and  C_302 
REMARK  153  A    between atoms: C_294  and  C_295 
REMARK  154  A    between atoms: C_294  and  C_304 
REMARK  155  A    between atoms: C_295  and  C_296 
REMARK  156  A    between atoms: C_299  and  C_303 
REMARK  157  A    between atoms: C_299  and  C_305 
REMARK  158  A    between atoms: C_300  and  C_310 
REMARK  159  A    between atoms: C_301  and  C_309 
REMARK  160  A    between atoms: C_301  and  C_314 
REMARK  161  A    between atoms: C_305  and  C_315 
REMARK  162  A    between atoms: C_311  and  C_318 
REMARK  163  A    between atoms: C_312  and  C_313 
REMARK  164  A    between atoms: C_314  and  C_326 
REMARK  165  A    between atoms: C_315  and  C_327 
REMARK  166  A    between atoms: C_316  and  C_319 
REMARK  167  A    between atoms: C_316  and  C_322 
REMARK  168  A    between atoms: C_317  and  C_320 
REMARK  169  A    between atoms: C_317  and  C_321 
REMARK  170  A    between atoms: C_319  and  C_328 
REMARK  171  A    between atoms: C_320  and  C_329 
REMARK  172  A    between atoms: C_328  and  C_331 
REMARK  173  A    between atoms: C_329  and  C_332 
ROOT
HETATM    1  C   UNK N   1      -2.370  -5.363   0.567  0.00  0.00     0.177 C 
ENDROOT
BRANCH   1   2
HETATM    2  N   UNK N   1      -2.806  -5.136  -0.796  0.00  0.00    -0.346 N 
HETATM    3  C   UNK N   1      -3.632  -4.143  -1.211  0.00  0.00     0.241 C 
HETATM    4  O   UNK N   1      -3.999  -4.140  -2.376  0.00  0.00    -0.271 OA
HETATM    5  H   UNK N   1      -2.474  -5.758  -1.482  0.00  0.00     0.163 HD
BRANCH   3   6
HETATM    6  C   UNK N   1      -4.104  -3.042  -0.290  0.00  0.00     0.177 C 
BRANCH   6   7
HETATM    7  N   UNK N   1      -5.536  -3.092  -0.301  0.00  0.00    -0.346 N 
HETATM    8  C   UNK N   1      -6.466  -2.314   0.321  0.00  0.00     0.241 C 
HETATM    9  O   UNK N   1      -6.153  -1.344   0.990  0.00  0.00    -0.271 OA
HETATM   10  H   UNK N   1      -5.914  -3.814  -0.853  0.00  0.00     0.163 HD
BRANCH   8  11
HETATM   11  C   UNK N   1      -7.904  -2.769   0.244  0.00  0.00     0.177 C 
BRANCH  11  12
HETATM   12  N   UNK N   1      -7.879  -4.100  -0.313  0.00  0.00    -0.346 N 
HETATM   13  C   UNK N   1      -7.256  -5.089   0.376  0.00  0.00     0.241 C 
HETATM   14  O   UNK N   1      -6.930  -4.918   1.543  0.00  0.00    -0.271 OA
HETATM   15  H   UNK N   1      -8.308  -4.288  -1.179  0.00  0.00     0.163 HD
BRANCH  13  16
HETATM   16  C   UNK N   1      -6.898  -6.357  -0.312  0.00  0.00     0.180 C 
BRANCH  16  17
HETATM   17  N   UNK N   1      -7.946  -7.305  -0.114  0.00  0.00    -0.346 N 
HETATM   18  C   UNK N   1      -8.513  -7.564   1.092  0.00  0.00     0.241 C 
HETATM   19  O   UNK N   1      -7.982  -7.243   2.142  0.00  0.00    -0.271 OA
HETATM   20  H   UNK N   1      -8.278  -7.800  -0.898  0.00  0.00     0.163 HD
BRANCH  18  21
HETATM   21  C   UNK N   1      -9.867  -8.123   1.097  0.00  0.00     0.177 C 
BRANCH  21  22
HETATM   22  N   UNK N   1      -9.728  -9.470   0.598  0.00  0.00    -0.346 N 
HETATM   23  C   UNK N   1      -9.430  -9.823  -0.681  0.00  0.00     0.241 C 
HETATM   24  O   UNK N   1      -9.676  -9.072  -1.617  0.00  0.00    -0.271 OA
HETATM   25  H   UNK N   1      -9.863 -10.202   1.243  0.00  0.00     0.163 HD
BRANCH  23  26
HETATM   26  C   UNK N   1      -8.645 -11.089  -0.909  0.00  0.00     0.176 C 
BRANCH  26  27
HETATM   27  N   UNK N   1      -8.203 -11.582   0.386  0.00  0.00    -0.346 N 
HETATM   28  C   UNK N   1      -8.626 -12.723   0.977  0.00  0.00     0.241 C 
HETATM   29  O   UNK N   1      -8.219 -12.998   2.093  0.00  0.00    -0.271 OA
HETATM   30  H   UNK N   1      -7.541 -11.041   0.872  0.00  0.00     0.163 HD
BRANCH  28  31
HETATM   31  C   UNK N   1      -9.653 -13.611   0.349  0.00  0.00     0.177 C 
BRANCH  31  32
HETATM   32  N   UNK N   1     -10.768 -12.839  -0.126  0.00  0.00    -0.346 N 
HETATM   33  C   UNK N   1     -11.531 -12.054   0.673  0.00  0.00     0.241 C 
HETATM   34  O   UNK N   1     -11.302 -11.956   1.869  0.00  0.00    -0.271 OA
HETATM   35  H   UNK N   1     -10.990 -12.883  -1.084  0.00  0.00     0.163 HD
BRANCH  33  36
HETATM   36  C   UNK N   1     -12.763 -11.454   0.104  0.00  0.00     0.177 C 
BRANCH  36  37
HETATM   37  N   UNK N   1     -13.428 -12.467  -0.680  0.00  0.00    -0.346 N 
HETATM   38  C   UNK N   1     -13.841 -13.645  -0.161  0.00  0.00     0.241 C 
HETATM   39  O   UNK N   1     -13.705 -13.881   1.032  0.00  0.00    -0.271 OA
HETATM   40  H   UNK N   1     -13.588 -12.292  -1.636  0.00  0.00     0.163 HD
BRANCH  38  41
HETATM   41  C   UNK N   1     -14.606 -14.580  -1.044  0.00  0.00     0.182 C 
BRANCH  41  42
HETATM   42  N   UNK N   1     -15.999 -14.244  -0.915  0.00  0.00    -0.346 N 
HETATM   43  C   UNK N   1     -16.690 -14.420   0.245  0.00  0.00     0.241 C 
HETATM   44  O   UNK N   1     -16.167 -14.931   1.224  0.00  0.00    -0.271 OA
HETATM   45  H   UNK N   1     -16.471 -13.872  -1.695  0.00  0.00     0.163 HD
BRANCH  43  46
HETATM   46  C   UNK N   1     -18.103 -13.982   0.326  0.00  0.00     0.180 C 
BRANCH  46  47
HETATM   47  N   UNK N   1     -18.094 -12.536   0.202  0.00  0.00    -0.346 N 
HETATM   48  C   UNK N   1     -18.110 -11.849  -0.968  0.00  0.00     0.243 C 
HETATM   49  O   UNK N   1     -18.498 -12.374  -1.999  0.00  0.00    -0.271 OA
HETATM   50  H   UNK N   1     -18.073 -12.011   1.034  0.00  0.00     0.163 HD
BRANCH  48  51
HETATM   51  C   UNK N   1     -17.359 -10.558  -1.058  0.00  0.00     0.205 C 
BRANCH  51  52
HETATM   52  N   UNK N   1     -17.886  -9.449  -0.277  0.00  0.00    -0.344 N 
HETATM   53  C   UNK N   1     -17.335  -8.189  -0.287  0.00  0.00     0.241 C 
HETATM   54  O   UNK N   1     -16.306  -7.964  -0.905  0.00  0.00    -0.271 OA
HETATM   55  H   UNK N   1     -18.678  -9.608   0.286  0.00  0.00     0.163 HD
BRANCH  53  56
HETATM   56  C   UNK N   1     -18.129  -7.037   0.263  0.00  0.00     0.177 C 
BRANCH  56  57
HETATM   57  N   UNK N   1     -19.463  -7.367  -0.130  0.00  0.00    -0.346 N 
HETATM   58  C   UNK N   1     -20.577  -6.621  -0.122  0.00  0.00     0.241 C 
HETATM   59  O   UNK N   1     -20.534  -5.432   0.149  0.00  0.00    -0.271 OA
HETATM   60  H   UNK N   1     -19.582  -8.287  -0.458  0.00  0.00     0.163 HD
BRANCH  58  61
HETATM   61  C   UNK N   1     -21.867  -7.317  -0.491  0.00  0.00     0.186 C 
BRANCH  61  62
HETATM   62  N   UNK N   1     -21.624  -8.762  -0.613  0.00  0.00    -0.346 N 
HETATM   63  C   UNK N   1     -21.227  -9.543   0.441  0.00  0.00     0.241 C 
HETATM   64  O   UNK N   1     -21.135  -9.053   1.559  0.00  0.00    -0.271 OA
HETATM   65  H   UNK N   1     -21.753  -9.188  -1.491  0.00  0.00     0.163 HD
BRANCH  63  66
HETATM   66  C   UNK N   1     -20.891 -11.019   0.248  0.00  0.00     0.177 C 
BRANCH  66  67
HETATM   67  N   UNK N   1     -21.944 -11.706  -0.465  0.00  0.00    -0.346 N 
HETATM   68  C   UNK N   1     -23.198 -11.764   0.030  0.00  0.00     0.243 C 
HETATM   69  O   UNK N   1     -23.453 -11.201   1.085  0.00  0.00    -0.271 OA
HETATM   70  H   UNK N   1     -21.743 -12.138  -1.326  0.00  0.00     0.163 HD
BRANCH  68  71
HETATM   71  C   UNK N   1     -24.283 -12.531  -0.675  0.00  0.00     0.200 C 
BRANCH  71  72
HETATM   72  N   UNK N   1     -25.346 -11.616  -1.021  0.00  0.00    -0.344 N 
HETATM   73  C   UNK N   1     -26.089 -11.018  -0.056  0.00  0.00     0.241 C 
HETATM   74  O   UNK N   1     -25.956 -11.336   1.120  0.00  0.00    -0.271 OA
HETATM   75  H   UNK N   1     -25.534 -11.425  -1.968  0.00  0.00     0.163 HD
BRANCH  73  76
HETATM   76  C   UNK N   1     -27.010  -9.897  -0.405  0.00  0.00     0.180 C 
BRANCH  76  77
HETATM   77  N   UNK N   1     -28.185 -10.066   0.408  0.00  0.00    -0.346 N 
HETATM   78  C   UNK N   1     -29.419 -10.124  -0.130  0.00  0.00     0.241 C 
HETATM   79  O   UNK N   1     -29.599  -9.792  -1.294  0.00  0.00    -0.271 OA
HETATM   80  H   UNK N   1     -28.085 -10.142   1.384  0.00  0.00     0.163 HD
BRANCH  78  81
HETATM   81  C   UNK N   1     -30.459 -10.911   0.606  0.00  0.00     0.179 C 
HETATM   82  N   UNK N   1     -30.374 -12.279   0.134  0.00  0.00    -0.337 N 
HETATM   83  C   UNK N   1     -31.479 -12.711  -0.659  0.00  0.00     0.127 C 
HETATM   84  C   UNK N   1     -29.280 -13.075   0.390  0.00  0.00     0.243 C 
HETATM   85  C   UNK N   1     -32.423 -11.524  -0.722  0.00  0.00     0.022 C 
HETATM   86  C   UNK N   1     -31.865 -10.465   0.227  0.00  0.00     0.037 C 
HETATM   87  O   UNK N   1     -28.383 -12.688   1.103  0.00  0.00    -0.271 OA
BRANCH  84  88
HETATM   88  C   UNK N   1     -29.194 -14.459  -0.226  0.00  0.00     0.179 C 
HETATM   89  N   UNK N   1     -27.947 -15.124   0.078  0.00  0.00    -0.337 N 
HETATM   90  C   UNK N   1     -28.071 -16.169   1.052  0.00  0.00     0.127 C 
HETATM   91  C   UNK N   1     -26.794 -14.883  -0.618  0.00  0.00     0.243 C 
HETATM   92  C   UNK N   1     -29.524 -16.138   1.479  0.00  0.00     0.022 C 
HETATM   93  C   UNK N   1     -30.247 -15.359   0.389  0.00  0.00     0.037 C 
HETATM   94  O   UNK N   1     -26.765 -14.007  -1.465  0.00  0.00    -0.271 OA
BRANCH  91  95
HETATM   95  C   UNK N   1     -25.582 -15.773  -0.462  0.00  0.00     0.177 C 
BRANCH  95  96
HETATM   96  N   UNK N   1     -25.991 -17.076  -0.959  0.00  0.00    -0.346 N 
HETATM   97  C   UNK N   1     -26.206 -18.213  -0.256  0.00  0.00     0.241 C 
HETATM   98  O   UNK N   1     -25.952 -18.280   0.937  0.00  0.00    -0.271 OA
HETATM   99  H   UNK N   1     -26.130 -17.141  -1.932  0.00  0.00     0.163 HD
BRANCH  97 100
HETATM  100  C   UNK N   1     -26.828 -19.379  -0.966  0.00  0.00     0.177 C 
BRANCH 100 101
HETATM  101  N   UNK N   1     -25.891 -20.471  -1.077  0.00  0.00    -0.346 N 
HETATM  102  C   UNK N   1     -25.422 -21.182  -0.026  0.00  0.00     0.242 C 
HETATM  103  O   UNK N   1     -25.862 -21.008   1.103  0.00  0.00    -0.271 OA
HETATM  104  H   UNK N   1     -25.572 -20.713  -1.976  0.00  0.00     0.163 HD
BRANCH 102 105
HETATM  105  C   UNK N   1     -24.286 -22.112  -0.254  0.00  0.00     0.191 C 
BRANCH 105 106
HETATM  106  N   UNK N   1     -24.595 -23.435   0.261  0.00  0.00    -0.417 N 
HETATM  107  H   UNK N   1     -25.507 -23.712   0.622  0.00  0.00     0.150 HD
HETATM  108  H   UNK N   1     -23.850 -24.132   0.261  0.00  0.00     0.150 HD
ENDBRANCH 105 106
BRANCH 105 109
HETATM  109  C   UNK N   1     -23.052 -21.547   0.422  0.00  0.00     0.198 C 
BRANCH 109 110
HETATM  110  O   UNK N   1     -21.908 -22.124  -0.123  0.00  0.00    -0.398 OA
HETATM  111  H   UNK N   1     -21.859 -23.016  -0.503  0.00  0.00     0.209 HD
ENDBRANCH 109 110
ENDBRANCH 105 109
ENDBRANCH 102 105
ENDBRANCH 100 101
BRANCH 100 112
HETATM  112  C   UNK N   1     -28.142 -19.810  -0.322  0.00  0.00     0.044 C 
BRANCH 112 113
HETATM  113  C   UNK N   1     -29.304 -18.989  -0.857  0.00  0.00     0.105 C 
BRANCH 113 114
HETATM  114  C   UNK N   1     -30.570 -19.375  -0.160  0.00  0.00     0.215 C 
HETATM  115  O   UNK N   1     -31.254 -18.519   0.376  0.00  0.00    -0.274 OA
HETATM  116  N   UNK N   1     -30.968 -20.663  -0.135  0.00  0.00    -0.370 N 
HETATM  117  H   UNK N   1     -31.928 -20.881  -0.117  0.00  0.00     0.159 HD
HETATM  118  H   UNK N   1     -30.299 -21.384  -0.135  0.00  0.00     0.159 HD
ENDBRANCH 113 114
ENDBRANCH 112 113
ENDBRANCH 100 112
ENDBRANCH  97 100
ENDBRANCH  95  96
BRANCH  95 119
HETATM  119  C   UNK N   1     -24.991 -15.708   0.961  0.00  0.00     0.045 C 
BRANCH 119 120
HETATM  120  C   UNK N   1     -23.688 -16.484   1.241  0.00  0.00     0.112 C 
BRANCH 120 121
HETATM  121  C   UNK N   1     -22.899 -16.939   0.051  0.00  0.00     0.139 C 
HETATM  122  O   UNK N   1     -22.476 -16.131  -0.759  0.00  0.00    -0.650 OA
BRANCH 121 123
HETATM  123  O   UNK N   1     -22.611 -18.246  -0.093  0.00  0.00    -0.776 OA
HETATM  124  H   UNK N   1     -23.299 -18.874  -0.194  0.00  0.00     0.167 HD
ENDBRANCH 121 123
ENDBRANCH 120 121
ENDBRANCH 119 120
ENDBRANCH  95 119
ENDBRANCH  91  95
ENDBRANCH  84  88
ENDBRANCH  78  81
ENDBRANCH  76  77
BRANCH  76 125
HETATM  125  C   UNK N   1     -26.302  -8.569  -0.161  0.00  0.00     0.013 C 
HETATM  126  C   UNK N   1     -25.175  -8.450  -1.174  0.00  0.00     0.012 C 
BRANCH 125 127
HETATM  127  C   UNK N   1     -27.240  -7.395  -0.371  0.00  0.00     0.002 C 
HETATM  128  C   UNK N   1     -27.887  -7.012   0.944  0.00  0.00     0.005 C 
ENDBRANCH 125 127
ENDBRANCH  76 125
ENDBRANCH  73  76
ENDBRANCH  71  72
BRANCH  71 129
HETATM  129  C   UNK N   1     -23.808 -13.332  -1.890  0.00  0.00     0.199 C 
BRANCH 129 130
HETATM  130  O   UNK N   1     -23.344 -12.499  -2.907  0.00  0.00    -0.398 OA
HETATM  131  H   UNK N   1     -22.681 -12.489  -3.615  0.00  0.00     0.209 HD
ENDBRANCH 129 130
ENDBRANCH  71 129
ENDBRANCH  68  71
ENDBRANCH  66  67
BRANCH  66 132
HETATM  132  C   UNK N   1     -20.617 -11.688   1.625  0.00  0.00     0.038 C 
BRANCH 132 133
HETATM  133  C   UNK N   1     -20.666 -13.220   1.677  0.00  0.00    -0.020 C 
HETATM  134  C   UNK N   1     -19.851 -13.700   2.859  0.00  0.00     0.009 C 
HETATM  135  C   UNK N   1     -22.074 -13.738   1.877  0.00  0.00     0.009 C 
ENDBRANCH 132 133
ENDBRANCH  66 132
ENDBRANCH  63  66
ENDBRANCH  61  62
BRANCH  61 136
HETATM  136  C   UNK N   1     -22.988  -7.038   0.514  0.00  0.00     0.144 C 
BRANCH 136 137
HETATM  137  C   UNK N   1     -23.631  -5.700   0.288  0.00  0.00     0.141 C 
HETATM  138  O   UNK N   1     -23.011  -4.669   0.486  0.00  0.00    -0.650 OA
BRANCH 137 139
HETATM  139  O   UNK N   1     -24.912  -5.632  -0.107  0.00  0.00    -0.776 OA
HETATM  140  H   UNK N   1     -25.318  -4.834  -0.382  0.00  0.00     0.167 HD
ENDBRANCH 137 139
ENDBRANCH 136 137
ENDBRANCH  61 136
ENDBRANCH  58  61
ENDBRANCH  56  57
BRANCH  56 141
HETATM  141  C   UNK N   1     -17.686  -5.718  -0.391  0.00  0.00     0.038 C 
BRANCH 141 142
HETATM  142  C   UNK N   1     -16.961  -4.792   0.575  0.00  0.00    -0.020 C 
HETATM  143  C   UNK N   1     -16.579  -3.524  -0.161  0.00  0.00     0.009 C 
HETATM  144  C   UNK N   1     -15.705  -5.437   1.130  0.00  0.00     0.009 C 
ENDBRANCH 141 142
ENDBRANCH  56 141
ENDBRANCH  53  56
ENDBRANCH  51  52
BRANCH  51 145
HETATM  145  C   UNK N   1     -15.941 -10.904  -0.696  0.00  0.00     0.146 C 
HETATM  146  C   UNK N   1     -15.692 -10.872   0.811  0.00  0.00     0.042 C 
BRANCH 145 147
HETATM  147  O   UNK N   1     -15.078 -10.102  -1.418  0.00  0.00    -0.393 OA
HETATM  148  H   UNK N   1     -14.287 -10.346  -1.925  0.00  0.00     0.210 HD
ENDBRANCH 145 147
ENDBRANCH  51 145
ENDBRANCH  48  51
ENDBRANCH  46  47
BRANCH  46 149
HETATM  149  C   UNK N   1     -18.991 -14.760  -0.662  0.00  0.00     0.073 C 
BRANCH 149 150
HETATM  150  C   UNK N   1     -18.766 -16.237  -0.481  0.00  0.00    -0.056 A 
HETATM  151  C   UNK N   1     -19.502 -16.952   0.469  0.00  0.00     0.007 A 
HETATM  152  C   UNK N   1     -19.216 -18.301   0.707  0.00  0.00     0.001 A 
HETATM  153  C   UNK N   1     -18.177 -18.932   0.015  0.00  0.00     0.000 A 
HETATM  154  C   UNK N   1     -17.433 -18.219  -0.928  0.00  0.00     0.001 A 
HETATM  155  C   UNK N   1     -17.728 -16.876  -1.177  0.00  0.00     0.007 A 
ENDBRANCH 149 150
ENDBRANCH  46 149
ENDBRANCH  43  46
ENDBRANCH  41  42
BRANCH  41 156
HETATM  156  C   UNK N   1     -14.450 -16.094  -0.821  0.00  0.00     0.093 C 
BRANCH 156 157
HETATM  157  C   UNK N   1     -13.181 -16.662  -0.273  0.00  0.00     0.028 A 
HETATM  158  N   UNK N   1     -13.071 -17.956   0.061  0.00  0.00    -0.354 N 
HETATM  159  C   UNK N   1     -11.834 -18.084   0.576  0.00  0.00     0.180 A 
HETATM  160  H   UNK N   1     -13.749 -18.662  -0.047  0.00  0.00     0.166 HD
HETATM  161  N   UNK N   1     -11.171 -16.909   0.575  0.00  0.00    -0.360 N 
HETATM  162  C   UNK N   1     -12.014 -16.009   0.040  0.00  0.00     0.114 A 
ATOM    163  HN  UNK N   1     -10.224 -16.739   0.912  1.00  0.00     0.166 HD
ENDBRANCH 156 157
ENDBRANCH  41 156
ENDBRANCH  38  41
ENDBRANCH  36  37
BRANCH  36 164
HETATM  164  C   UNK N   1     -12.479 -10.276  -0.810  0.00  0.00     0.038 C 
BRANCH 164 165
HETATM  165  C   UNK N   1     -12.771  -8.904  -0.197  0.00  0.00    -0.020 C 
HETATM  166  C   UNK N   1     -13.248  -7.914  -1.245  0.00  0.00     0.009 C 
HETATM  167  C   UNK N   1     -13.617  -8.828   1.063  0.00  0.00     0.009 C 
ENDBRANCH 164 165
ENDBRANCH  36 164
ENDBRANCH  33  36
ENDBRANCH  31  32
BRANCH  31 168
HETATM  168  C   UNK N   1      -9.099 -14.461  -0.783  0.00  0.00     0.038 C 
BRANCH 168 169
HETATM  169  C   UNK N   1      -8.253 -15.586  -0.213  0.00  0.00    -0.020 C 
HETATM  170  C   UNK N   1      -8.432 -16.841  -1.040  0.00  0.00     0.009 C 
HETATM  171  C   UNK N   1      -6.793 -15.187  -0.212  0.00  0.00     0.009 C 
ENDBRANCH 168 169
ENDBRANCH  31 168
ENDBRANCH  28  31
ENDBRANCH  26  27
BRANCH  26 172
HETATM  172  C   UNK N   1      -7.425 -10.689  -1.753  0.00  0.00     0.036 C 
BRANCH 172 173
HETATM  173  C   UNK N   1      -6.126 -11.408  -1.422  0.00  0.00     0.023 C 
BRANCH 173 174
HETATM  174  C   UNK N   1      -5.552 -10.863  -0.120  0.00  0.00     0.138 C 
BRANCH 174 175
HETATM  175  N   UNK N   1      -4.120 -10.990  -0.114  0.00  0.00    -0.227 N 
HETATM  176  C   UNK N   1      -3.461 -12.244  -0.081  0.00  0.00     0.665 C 
HETATM  177  N   UNK N   1      -2.055 -12.293  -0.181  0.00  0.00    -0.235 N 
HETATM  178  N   UNK N   1      -4.130 -13.334   0.003  0.00  0.00    -0.235 N 
HETATM  179  H   UNK N   1      -1.594 -13.160  -0.252  0.00  0.00     0.174 HD
HETATM  180  H   UNK N   1      -1.533 -11.458  -0.181  0.00  0.00     0.174 HD
HETATM  181  H   UNK N   1      -5.112 -13.307   0.068  0.00  0.00     0.174 HD
ATOM    182  HN  UNK N   1      -3.644 -14.231   0.003  1.00  0.00     0.174 HD
HETATM  183  H   UNK N   1      -3.574 -10.170  -0.133  0.00  0.00     0.177 HD
ENDBRANCH 174 175
ENDBRANCH 173 174
ENDBRANCH 172 173
ENDBRANCH  26 172
ENDBRANCH  23  26
ENDBRANCH  21  22
BRANCH  21 184
HETATM  184  C   UNK N   1     -10.705  -7.169   0.238  0.00  0.00     0.045 C 
BRANCH 184 185
HETATM  185  C   UNK N   1     -11.257  -6.000   1.042  0.00  0.00     0.112 C 
BRANCH 185 186
HETATM  186  C   UNK N   1     -11.801  -4.950   0.124  0.00  0.00     0.139 C 
HETATM  187  O   UNK N   1     -13.005  -4.838  -0.032  0.00  0.00    -0.650 OA
BRANCH 186 188
HETATM  188  O   UNK N   1     -10.965  -4.111  -0.514  0.00  0.00    -0.776 OA
HETATM  189  H   UNK N   1     -10.168  -4.323  -0.959  0.00  0.00     0.167 HD
ENDBRANCH 186 188
ENDBRANCH 185 186
ENDBRANCH 184 185
ENDBRANCH  21 184
ENDBRANCH  18  21
ENDBRANCH  16  17
BRANCH  16 190
HETATM  190  C   UNK N   1      -5.462  -6.853  -0.103  0.00  0.00     0.009 C 
HETATM  191  C   UNK N   1      -5.172  -7.337   1.306  0.00  0.00     0.012 C 
HETATM  192  C   UNK N   1      -5.094  -7.914  -1.117  0.00  0.00     0.012 C 
ENDBRANCH  16 190
ENDBRANCH  13  16
ENDBRANCH  11  12
BRANCH  11 193
HETATM  193  C   UNK N   1      -8.749  -1.854  -0.624  0.00  0.00     0.038 C 
BRANCH 193 194
HETATM  194  C   UNK N   1      -9.224  -0.658   0.177  0.00  0.00    -0.020 C 
HETATM  195  C   UNK N   1     -10.726  -0.529   0.033  0.00  0.00     0.009 C 
HETATM  196  C   UNK N   1      -8.557   0.600  -0.338  0.00  0.00     0.009 C 
ENDBRANCH 193 194
ENDBRANCH  11 193
ENDBRANCH   8  11
ENDBRANCH   6   7
BRANCH   6 197
HETATM  197  C   UNK N   1      -3.617  -1.719  -0.834  0.00  0.00     0.045 C 
BRANCH 197 198
HETATM  198  C   UNK N   1      -3.548  -0.706   0.283  0.00  0.00     0.112 C 
BRANCH 198 199
HETATM  199  C   UNK N   1      -3.855   0.643  -0.260  0.00  0.00     0.139 C 
HETATM  200  O   UNK N   1      -4.969   0.888  -0.693  0.00  0.00    -0.650 OA
BRANCH 199 201
HETATM  201  O   UNK N   1      -2.906   1.595  -0.269  0.00  0.00    -0.776 OA
HETATM  202  H   UNK N   1      -2.001   1.354  -0.275  0.00  0.00     0.167 HD
ENDBRANCH 199 201
ENDBRANCH 198 199
ENDBRANCH 197 198
ENDBRANCH   6 197
ENDBRANCH   3   6
ENDBRANCH   1   2
BRANCH   1 203
HETATM  203  C   UNK N   1      -1.218  -6.383   0.563  0.00  0.00     0.045 C 
BRANCH 203 204
HETATM  204  C   UNK N   1      -1.335  -7.486  -0.469  0.00  0.00     0.076 C 
BRANCH 204 205
HETATM  205  S   UNK N   1      -1.736  -9.031   0.370  0.00  0.00    -0.173 SA
HETATM  206  C   UNK N   1      -0.011  -9.589   0.368  0.00  0.00     0.089 C 
ENDBRANCH 204 205
ENDBRANCH 203 204
ENDBRANCH   1 203
BRANCH   1 207
HETATM  207  C   UNK N   1      -1.736  -4.160   1.178  0.00  0.00     0.241 C 
HETATM  208  O   UNK N   1      -1.524  -4.150   2.384  0.00  0.00    -0.271 OA
HETATM  209  N   UNK N   1      -1.121  -3.264   0.368  0.00  0.00    -0.344 N 
HETATM  210  H   UNK N   1      -1.476  -3.083  -0.532  0.00  0.00     0.163 HD
BRANCH 209 211
HETATM  211  C   UNK N   1       0.050  -2.584   0.834  0.00  0.00     0.205 C 
BRANCH 211 212
HETATM  212  C   UNK N   1       0.417  -1.367  -0.020  0.00  0.00     0.146 C 
HETATM  213  C   UNK N   1      -0.610  -0.276   0.098  0.00  0.00     0.042 C 
BRANCH 212 214
HETATM  214  O   UNK N   1       1.647  -0.850   0.394  0.00  0.00    -0.393 OA
HETATM  215  H   UNK N   1       2.385  -1.410   0.682  0.00  0.00     0.210 HD
ENDBRANCH 212 214
ENDBRANCH 211 212
BRANCH 211 216
HETATM  216  C   UNK N   1       1.141  -3.577   0.668  0.00  0.00     0.243 C 
HETATM  217  O   UNK N   1       1.743  -3.980   1.650  0.00  0.00    -0.271 OA
HETATM  218  N   UNK N   1       1.477  -3.984  -0.584  0.00  0.00    -0.346 N 
HETATM  219  H   UNK N   1       0.861  -3.822  -1.334  0.00  0.00     0.163 HD
BRANCH 218 220
HETATM  220  C   UNK N   1       2.721  -4.646  -0.815  0.00  0.00     0.176 C 
BRANCH 220 221
HETATM  221  C   UNK N   1       2.677  -5.962  -1.556  0.00  0.00     0.035 C 
BRANCH 221 222
HETATM  222  C   UNK N   1       2.443  -7.027  -0.503  0.00  0.00     0.004 C 
BRANCH 222 223
HETATM  223  C   UNK N   1       3.192  -8.295  -0.843  0.00  0.00     0.019 C 
BRANCH 223 224
HETATM  224  C   UNK N   1       3.424  -9.076   0.435  0.00  0.00     0.111 C 
BRANCH 224 225
HETATM  225  N   UNK N   1       4.055 -10.345   0.124  0.00  0.00    -0.430 N 
HETATM  226  H   UNK N   1       3.504 -11.175  -0.094  0.00  0.00     0.149 HD
HETATM  227  H   UNK N   1       5.073 -10.409   0.124  0.00  0.00     0.149 HD
ENDBRANCH 224 225
ENDBRANCH 223 224
ENDBRANCH 222 223
ENDBRANCH 221 222
ENDBRANCH 220 221
BRANCH 220 228
HETATM  228  C   UNK N   1       3.757  -3.638  -1.165  0.00  0.00     0.241 C 
HETATM  229  O   UNK N   1       3.856  -3.208  -2.304  0.00  0.00    -0.271 OA
HETATM  230  N   UNK N   1       4.496  -3.102  -0.167  0.00  0.00    -0.346 N 
HETATM  231  H   UNK N   1       5.124  -2.373  -0.373  0.00  0.00     0.163 HD
BRANCH 230 232
HETATM  232  C   UNK N   1       4.384  -3.579   1.202  0.00  0.00     0.172 C 
HETATM  233  C   UNK N   1       5.025  -2.568   2.128  0.00  0.00     0.042 C 
BRANCH 232 234
HETATM  234  C   UNK N   1       5.049  -4.924   1.357  0.00  0.00     0.240 C 
HETATM  235  O   UNK N   1       5.288  -5.366   2.471  0.00  0.00    -0.271 OA
HETATM  236  N   UNK N   1       5.528  -5.541   0.255  0.00  0.00    -0.346 N 
HETATM  237  H   UNK N   1       5.052  -5.435  -0.600  0.00  0.00     0.163 HD
BRANCH 236 238
HETATM  238  C   UNK N   1       6.711  -6.346   0.299  0.00  0.00     0.186 C 
BRANCH 238 239
HETATM  239  C   UNK N   1       7.692  -5.463  -0.401  0.00  0.00     0.241 C 
HETATM  240  O   UNK N   1       8.213  -5.791  -1.459  0.00  0.00    -0.271 OA
HETATM  241  N   UNK N   1       7.818  -4.204   0.087  0.00  0.00    -0.346 N 
HETATM  242  H   UNK N   1       7.500  -4.046   1.006  0.00  0.00     0.163 HD
BRANCH 241 243
HETATM  243  C   UNK N   1       8.374  -3.081  -0.615  0.00  0.00     0.177 C 
BRANCH 243 244
HETATM  244  C   UNK N   1       7.332  -2.371  -1.434  0.00  0.00     0.241 C 
HETATM  245  O   UNK N   1       7.066  -2.800  -2.544  0.00  0.00    -0.271 OA
HETATM  246  N   UNK N   1       6.610  -1.315  -0.955  0.00  0.00    -0.346 N 
HETATM  247  H   UNK N   1       5.928  -0.975  -1.579  0.00  0.00     0.163 HD
BRANCH 246 248
HETATM  248  C   UNK N   1       6.668  -0.599   0.319  0.00  0.00     0.177 C 
BRANCH 248 249
HETATM  249  C   UNK N   1       6.855   0.883  -0.004  0.00  0.00     0.038 C 
BRANCH 249 250
HETATM  250  C   UNK N   1       5.685   1.736   0.438  0.00  0.00    -0.020 C 
HETATM  251  C   UNK N   1       4.478   1.429  -0.423  0.00  0.00     0.009 C 
HETATM  252  C   UNK N   1       6.056   3.195   0.259  0.00  0.00     0.009 C 
ENDBRANCH 249 250
ENDBRANCH 248 249
BRANCH 248 253
HETATM  253  C   UNK N   1       7.789  -0.942   1.245  0.00  0.00     0.241 C 
HETATM  254  O   UNK N   1       7.608  -0.963   2.454  0.00  0.00    -0.271 OA
HETATM  255  N   UNK N   1       9.023  -0.855   0.741  0.00  0.00    -0.346 N 
HETATM  256  H   UNK N   1       9.180  -1.160  -0.181  0.00  0.00     0.163 HD
BRANCH 255 257
HETATM  257  C   UNK N   1      10.111  -0.342   1.481  0.00  0.00     0.172 C 
HETATM  258  C   UNK N   1      11.347  -1.206   1.312  0.00  0.00     0.042 C 
BRANCH 257 259
HETATM  259  C   UNK N   1      10.336   0.933   0.790  0.00  0.00     0.240 C 
HETATM  260  O   UNK N   1      10.412   1.958   1.447  0.00  0.00    -0.271 OA
HETATM  261  N   UNK N   1      10.483   0.915  -0.577  0.00  0.00    -0.346 N 
HETATM  262  H   UNK N   1      10.180   0.100  -1.039  0.00  0.00     0.163 HD
BRANCH 261 263
HETATM  263  C   UNK N   1      11.034   1.962  -1.412  0.00  0.00     0.177 C 
BRANCH 263 264
HETATM  264  C   UNK N   1      10.186   3.264  -1.530  0.00  0.00     0.044 C 
BRANCH 264 265
HETATM  265  C   UNK N   1       9.771   3.914  -0.205  0.00  0.00     0.105 C 
BRANCH 265 266
HETATM  266  C   UNK N   1       9.410   5.365  -0.303  0.00  0.00     0.215 C 
HETATM  267  O   UNK N   1       8.262   5.719  -0.091  0.00  0.00    -0.274 OA
HETATM  268  N   UNK N   1      10.361   6.291  -0.531  0.00  0.00    -0.370 N 
HETATM  269  H   UNK N   1      11.295   6.027  -0.697  0.00  0.00     0.159 HD
HETATM  270  H   UNK N   1      10.120   7.245  -0.531  0.00  0.00     0.159 HD
ENDBRANCH 265 266
ENDBRANCH 264 265
ENDBRANCH 263 264
BRANCH 263 271
HETATM  271  C   UNK N   1      12.441   2.206  -0.981  0.00  0.00     0.241 C 
HETATM  272  O   UNK N   1      13.213   2.811  -1.713  0.00  0.00    -0.271 OA
HETATM  273  N   UNK N   1      12.718   1.998   0.336  0.00  0.00    -0.346 N 
HETATM  274  H   UNK N   1      12.260   1.243   0.772  0.00  0.00     0.163 HD
BRANCH 273 275
HETATM  275  C   UNK N   1      13.609   2.767   1.149  0.00  0.00     0.177 C 
BRANCH 275 276
HETATM  276  C   UNK N   1      15.025   2.191   1.176  0.00  0.00     0.044 C 
BRANCH 276 277
HETATM  277  C   UNK N   1      15.644   1.951  -0.191  0.00  0.00     0.105 C 
BRANCH 277 278
HETATM  278  C   UNK N   1      16.617   0.821  -0.095  0.00  0.00     0.215 C 
HETATM  279  O   UNK N   1      16.225  -0.305   0.167  0.00  0.00    -0.274 OA
HETATM  280  N   UNK N   1      17.930   1.044  -0.297  0.00  0.00    -0.370 N 
HETATM  281  H   UNK N   1      18.550   0.294  -0.445  0.00  0.00     0.159 HD
HETATM  282  H   UNK N   1      18.272   1.967  -0.297  0.00  0.00     0.159 HD
ENDBRANCH 277 278
ENDBRANCH 276 277
ENDBRANCH 275 276
BRANCH 275 283
HETATM  283  C   UNK N   1      13.416   4.230   0.865  0.00  0.00     0.241 C 
HETATM  284  O   UNK N   1      12.601   4.599   0.035  0.00  0.00    -0.271 OA
HETATM  285  N   UNK N   1      14.248   5.118   1.408  0.00  0.00    -0.346 N 
HETATM  286  H   UNK N   1      14.452   5.077   2.370  0.00  0.00     0.163 HD
BRANCH 285 287
HETATM  287  C   UNK N   1      14.848   6.136   0.587  0.00  0.00     0.172 C 
HETATM  288  C   UNK N   1      13.985   6.676  -0.560  0.00  0.00     0.042 C 
BRANCH 287 289
HETATM  289  C   UNK N   1      16.124   5.520   0.110  0.00  0.00     0.240 C 
HETATM  290  O   UNK N   1      16.652   4.660   0.808  0.00  0.00    -0.271 OA
HETATM  291  N   UNK N   1      16.840   6.115  -0.869  0.00  0.00    -0.346 N 
HETATM  292  H   UNK N   1      16.384   6.575  -1.611  0.00  0.00     0.163 HD
BRANCH 291 293
HETATM  293  C   UNK N   1      18.279   6.069  -0.814  0.00  0.00     0.182 C 
BRANCH 293 294
HETATM  294  C   UNK N   1      18.600   6.752   0.510  0.00  0.00     0.241 C 
HETATM  295  O   UNK N   1      19.116   6.128   1.424  0.00  0.00    -0.271 OA
HETATM  296  N   UNK N   1      18.190   8.030   0.730  0.00  0.00    -0.344 N 
HETATM  297  H   UNK N   1      18.264   8.386   1.645  0.00  0.00     0.163 HD
BRANCH 296 298
HETATM  298  C   UNK N   1      17.649   8.907  -0.299  0.00  0.00     0.200 C 
BRANCH 298 299
HETATM  299  C   UNK N   1      16.149   8.884  -0.595  0.00  0.00     0.243 C 
HETATM  300  O   UNK N   1      15.787   8.865  -1.766  0.00  0.00    -0.271 OA
HETATM  301  N   UNK N   1      15.233   9.155   0.382  0.00  0.00    -0.345 N 
HETATM  302  H   UNK N   1      15.404   8.888   1.314  0.00  0.00     0.163 HD
BRANCH 301 303
HETATM  303  C   UNK N   1      13.996   9.847   0.025  0.00  0.00     0.185 C 
BRANCH 303 304
HETATM  304  C   UNK N   1      14.375  11.266   0.202  0.00  0.00     0.241 C 
HETATM  305  O   UNK N   1      14.025  11.903   1.189  0.00  0.00    -0.271 OA
HETATM  306  N   UNK N   1      15.406  11.669  -0.551  0.00  0.00    -0.346 N 
HETATM  307  H   UNK N   1      15.525  11.295  -1.454  0.00  0.00     0.163 HD
BRANCH 306 308
HETATM  308  C   UNK N   1      16.322  12.622  -0.067  0.00  0.00     0.176 C 
BRANCH 308 309
HETATM  309  C   UNK N   1      17.521  11.884   0.399  0.00  0.00     0.241 C 
HETATM  310  O   UNK N   1      17.496  11.355   1.505  0.00  0.00    -0.271 OA
HETATM  311  N   UNK N   1      18.680  11.962  -0.298  0.00  0.00    -0.346 N 
HETATM  312  H   UNK N   1      18.671  12.078  -1.275  0.00  0.00     0.163 HD
BRANCH 311 313
HETATM  313  C   UNK N   1      19.918  11.872   0.414  0.00  0.00     0.176 C 
BRANCH 313 314
HETATM  314  C   UNK N   1      21.079  11.847  -0.583  0.00  0.00     0.035 C 
BRANCH 314 315
HETATM  315  C   UNK N   1      22.399  11.490   0.071  0.00  0.00     0.004 C 
BRANCH 315 316
HETATM  316  C   UNK N   1      22.444   9.997   0.331  0.00  0.00     0.019 C 
BRANCH 316 317
HETATM  317  C   UNK N   1      23.756   9.614   0.983  0.00  0.00     0.111 C 
BRANCH 317 318
HETATM  318  N   UNK N   1      24.801   9.528  -0.020  0.00  0.00    -0.430 N 
HETATM  319  H   UNK N   1      25.116   8.861  -0.725  0.00  0.00     0.149 HD
HETATM  320  H   UNK N   1      25.383  10.366  -0.020  0.00  0.00     0.149 HD
ENDBRANCH 317 318
ENDBRANCH 316 317
ENDBRANCH 315 316
ENDBRANCH 314 315
ENDBRANCH 313 314
BRANCH 313 321
HETATM  321  C   UNK N   1      19.836  13.099   1.301  0.00  0.00     0.241 C 
HETATM  322  O   UNK N   1      19.617  12.958   2.491  0.00  0.00    -0.271 OA
HETATM  323  N   UNK N   1      19.709  14.333   0.746  0.00  0.00    -0.346 N 
HETATM  324  H   UNK N   1      19.137  15.011   1.172  0.00  0.00     0.163 HD
BRANCH 323 325
HETATM  325  C   UNK N   1      20.416  14.644  -0.469  0.00  0.00     0.177 C 
BRANCH 325 326
HETATM  326  C   UNK N   1      19.829  15.859  -1.212  0.00  0.00     0.038 C 
BRANCH 326 327
HETATM  327  C   UNK N   1      19.679  17.130  -0.380  0.00  0.00    -0.020 C 
HETATM  328  C   UNK N   1      18.489  17.013   0.551  0.00  0.00     0.009 C 
HETATM  329  C   UNK N   1      19.434  18.303  -1.307  0.00  0.00     0.009 C 
ENDBRANCH 326 327
ENDBRANCH 325 326
BRANCH 325 330
HETATM  330  C   UNK N   1      21.826  14.867  -0.007  0.00  0.00     0.241 C 
HETATM  331  O   UNK N   1      22.066  14.838   1.198  0.00  0.00    -0.271 OA
HETATM  332  N   UNK N   1      22.823  15.149  -0.868  0.00  0.00    -0.346 N 
HETATM  333  H   UNK N   1      22.695  15.034  -1.838  0.00  0.00     0.163 HD
BRANCH 332 334
HETATM  334  C   UNK N   1      24.084  15.623  -0.342  0.00  0.00     0.177 C 
BRANCH 334 335
HETATM  335  C   UNK N   1      24.803  14.569   0.512  0.00  0.00     0.038 C 
BRANCH 335 336
HETATM  336  C   UNK N   1      25.915  13.871  -0.238  0.00  0.00    -0.020 C 
HETATM  337  C   UNK N   1      25.348  12.753  -1.087  0.00  0.00     0.009 C 
HETATM  338  C   UNK N   1      26.881  13.289   0.772  0.00  0.00     0.009 C 
ENDBRANCH 335 336
ENDBRANCH 334 335
BRANCH 334 339
HETATM  339  C   UNK N   1      23.784  16.853   0.478  0.00  0.00     0.241 C 
HETATM  340  O   UNK N   1      24.228  16.983   1.612  0.00  0.00    -0.271 OA
HETATM  341  N   UNK N   1      23.013  17.823  -0.077  0.00  0.00    -0.346 N 
HETATM  342  H   UNK N   1      22.465  17.601  -0.863  0.00  0.00     0.163 HD
BRANCH 341 343
HETATM  343  C   UNK N   1      22.968  19.165   0.444  0.00  0.00     0.186 C 
BRANCH 343 344
HETATM  344  C   UNK N   1      24.385  19.625   0.325  0.00  0.00     0.241 C 
HETATM  345  O   UNK N   1      24.975  20.048   1.306  0.00  0.00    -0.271 OA
HETATM  346  N   UNK N   1      25.041  19.307  -0.825  0.00  0.00    -0.346 N 
HETATM  347  H   UNK N   1      24.474  19.035  -1.582  0.00  0.00     0.163 HD
BRANCH 346 348
HETATM  348  C   UNK N   1      26.465  19.320  -1.074  0.00  0.00     0.180 C 
BRANCH 348 349
HETATM  349  C   UNK N   1      27.088  20.715  -1.065  0.00  0.00     0.013 C 
HETATM  350  C   UNK N   1      26.288  21.666  -1.941  0.00  0.00     0.012 C 
BRANCH 349 351
HETATM  351  C   UNK N   1      27.276  21.273   0.338  0.00  0.00     0.002 C 
HETATM  352  C   UNK N   1      28.280  22.404   0.326  0.00  0.00     0.005 C 
ENDBRANCH 349 351
ENDBRANCH 348 349
BRANCH 348 353
HETATM  353  C   UNK N   1      27.244  18.332  -0.241  0.00  0.00     0.241 C 
HETATM  354  O   UNK N   1      26.746  17.799   0.741  0.00  0.00    -0.271 OA
HETATM  355  N   UNK N   1      28.528  18.079  -0.578  0.00  0.00    -0.346 N 
HETATM  356  H   UNK N   1      28.870  18.427  -1.433  0.00  0.00     0.163 HD
BRANCH 355 357
HETATM  357  C   UNK N   1      29.414  17.321   0.264  0.00  0.00     0.172 C 
HETATM  358  C   UNK N   1      29.778  16.009  -0.415  0.00  0.00     0.042 C 
BRANCH 357 359
HETATM  359  C   UNK N   1      30.612  18.186   0.549  0.00  0.00     0.237 C 
HETATM  360  O   UNK N   1      30.455  19.262   1.104  0.00  0.00    -0.271 OA
HETATM  361  N   UNK N   1      31.849  17.814   0.162  0.00  0.00    -0.368 N 
HETATM  362  H   UNK N   1      32.066  16.896  -0.120  0.00  0.00     0.159 HD
HETATM  363  H   UNK N   1      32.566  18.489   0.162  0.00  0.00     0.159 HD
ENDBRANCH 357 359
ENDBRANCH 355 357
ENDBRANCH 348 353
ENDBRANCH 346 348
ENDBRANCH 343 344
BRANCH 343 364
HETATM  364  C   UNK N   1      22.045  19.974  -0.465  0.00  0.00     0.144 C 
BRANCH 364 365
HETATM  365  C   UNK N   1      21.863  21.390  -0.024  0.00  0.00     0.141 C 
HETATM  366  O   UNK N   1      22.809  22.161  -0.021  0.00  0.00    -0.650 OA
BRANCH 365 367
HETATM  367  O   UNK N   1      20.639  21.831   0.320  0.00  0.00    -0.776 OA
HETATM  368  H   UNK N   1      20.479  22.723   0.559  0.00  0.00     0.167 HD
ENDBRANCH 365 367
ENDBRANCH 364 365
ENDBRANCH 343 364
ENDBRANCH 341 343
ENDBRANCH 334 339
ENDBRANCH 332 334
ENDBRANCH 325 330
ENDBRANCH 323 325
ENDBRANCH 313 321
ENDBRANCH 311 313
ENDBRANCH 308 309
BRANCH 308 369
HETATM  369  C   UNK N   1      16.597  13.668  -1.098  0.00  0.00     0.036 C 
BRANCH 369 370
HETATM  370  C   UNK N   1      16.050  14.937  -0.521  0.00  0.00     0.023 C 
BRANCH 370 371
HETATM  371  C   UNK N   1      15.375  15.727  -1.610  0.00  0.00     0.138 C 
BRANCH 371 372
HETATM  372  N   UNK N   1      15.481  17.127  -1.300  0.00  0.00    -0.227 N 
HETATM  373  C   UNK N   1      14.879  17.703  -0.150  0.00  0.00     0.665 C 
HETATM  374  N   UNK N   1      15.133  19.053   0.161  0.00  0.00    -0.235 N 
HETATM  375  N   UNK N   1      14.143  16.998   0.630  0.00  0.00    -0.235 N 
HETATM  376  H   UNK N   1      16.040  19.371   0.378  0.00  0.00     0.174 HD
HETATM  377  H   UNK N   1      14.387  19.695   0.161  0.00  0.00     0.174 HD
HETATM  378  H   UNK N   1      13.393  17.216   1.229  0.00  0.00     0.174 HD
ATOM    379  HN  UNK N   1      14.386  16.007   0.630  1.00  0.00     0.174 HD
HETATM  380  H   UNK N   1      15.991  17.709  -1.908  0.00  0.00     0.177 HD
ENDBRANCH 371 372
ENDBRANCH 370 371
ENDBRANCH 369 370
ENDBRANCH 308 369
ENDBRANCH 306 308
ENDBRANCH 303 304
BRANCH 303 381
HETATM  381  C   UNK N   1      12.758   9.449   0.827  0.00  0.00     0.137 C 
BRANCH 381 382
HETATM  382  C   UNK N   1      11.543  10.150   0.259  0.00  0.00     0.217 C 
HETATM  383  O   UNK N   1      11.451  11.368   0.300  0.00  0.00    -0.274 OA
HETATM  384  N   UNK N   1      10.559   9.433  -0.313  0.00  0.00    -0.370 N 
HETATM  385  H   UNK N   1       9.745   9.793  -0.732  0.00  0.00     0.159 HD
HETATM  386  H   UNK N   1      10.664   8.454  -0.313  0.00  0.00     0.159 HD
ENDBRANCH 381 382
ENDBRANCH 303 381
ENDBRANCH 301 303
ENDBRANCH 298 299
BRANCH 298 387
HETATM  387  C   UNK N   1      18.513   8.931  -1.566  0.00  0.00     0.199 C 
BRANCH 387 388
HETATM  388  O   UNK N   1      19.863   9.044  -1.237  0.00  0.00    -0.398 OA
HETATM  389  H   UNK N   1      20.401   8.270  -1.009  0.00  0.00     0.209 HD
ENDBRANCH 387 388
ENDBRANCH 298 387
ENDBRANCH 296 298
ENDBRANCH 293 294
BRANCH 293 390
HETATM  390  C   UNK N   1      18.804   4.632  -0.989  0.00  0.00     0.093 C 
BRANCH 390 391
HETATM  391  C   UNK N   1      20.237   4.513  -0.594  0.00  0.00     0.028 A 
HETATM  392  N   UNK N   1      20.675   3.686   0.367  0.00  0.00    -0.354 N 
HETATM  393  C   UNK N   1      21.995   3.936   0.465  0.00  0.00     0.180 A 
HETATM  394  H   UNK N   1      20.147   3.038   0.887  0.00  0.00     0.166 HD
HETATM  395  N   UNK N   1      22.388   4.896  -0.401  0.00  0.00    -0.360 N 
HETATM  396  C   UNK N   1      21.282   5.265  -1.071  0.00  0.00     0.114 A 
ATOM    397  HN  UNK N   1      23.331   5.265  -0.522  1.00  0.00     0.166 HD
ENDBRANCH 390 391
ENDBRANCH 293 390
ENDBRANCH 291 293
ENDBRANCH 287 289
ENDBRANCH 285 287
ENDBRANCH 275 283
ENDBRANCH 273 275
ENDBRANCH 263 271
ENDBRANCH 261 263
ENDBRANCH 257 259
ENDBRANCH 255 257
ENDBRANCH 248 253
ENDBRANCH 246 248
ENDBRANCH 243 244
BRANCH 243 398
HETATM  398  C   UNK N   1       9.723  -3.347  -1.257  0.00  0.00     0.044 C 
BRANCH 398 399
HETATM  399  C   UNK N   1      10.682  -3.678  -0.130  0.00  0.00     0.105 C 
BRANCH 399 400
HETATM  400  C   UNK N   1      11.801  -4.541  -0.576  0.00  0.00     0.215 C 
HETATM  401  O   UNK N   1      11.584  -5.686  -0.936  0.00  0.00    -0.274 OA
HETATM  402  N   UNK N   1      13.063  -4.078  -0.524  0.00  0.00    -0.370 N 
HETATM  403  H   UNK N   1      13.819  -4.708  -0.487  0.00  0.00     0.159 HD
HETATM  404  H   UNK N   1      13.231  -3.107  -0.524  0.00  0.00     0.159 HD
ENDBRANCH 399 400
ENDBRANCH 398 399
ENDBRANCH 243 398
ENDBRANCH 241 243
ENDBRANCH 238 239
BRANCH 238 405
HETATM  405  C   UNK N   1       6.499  -7.693  -0.376  0.00  0.00     0.144 C 
BRANCH 405 406
HETATM  406  C   UNK N   1       7.555  -8.659   0.063  0.00  0.00     0.141 C 
HETATM  407  O   UNK N   1       8.736  -8.415  -0.127  0.00  0.00    -0.650 OA
BRANCH 406 408
HETATM  408  O   UNK N   1       7.200  -9.802   0.676  0.00  0.00    -0.776 OA
HETATM  409  H   UNK N   1       6.386  -9.986   1.103  0.00  0.00     0.167 HD
ENDBRANCH 406 408
ENDBRANCH 405 406
ENDBRANCH 238 405
ENDBRANCH 236 238
ENDBRANCH 232 234
ENDBRANCH 230 232
ENDBRANCH 220 228
ENDBRANCH 218 220
ENDBRANCH 211 216
ENDBRANCH 209 211
ENDBRANCH   1 207
TORSDOF 173
