MODEL 1
REMARK VINA RESULT:      -8.5      0.000      0.000
REMARK  1 active torsions:
REMARK  status: ('A' for Active; 'I' for Inactive)
REMARK    1  A    between atoms: C_21  and  O_23 
ROOT
HETATM    1  C   UNK N   1      34.928  16.304   9.813  0.00  0.00     0.015 C 
HETATM    2  C   UNK N   1      28.593  15.252   5.051  0.00  0.00     0.010 C 
HETATM    3  C   UNK N   1      31.700  15.953   8.874  0.00  0.00     0.020 C 
HETATM    4  C   UNK N   1      34.249  16.968   9.066  0.00  0.00    -0.078 C 
HETATM    5  C   UNK N   1      27.193  20.948   6.438  0.00  0.00     0.083 C 
HETATM    6  C   UNK N   1      27.795  19.812   7.273  0.00  0.00     0.042 C 
HETATM    7  C   UNK N   1      29.454  17.856   8.752  0.00  0.00     0.010 C 
HETATM    8  C   UNK N   1      32.600  16.573   6.064  0.00  0.00     0.010 C 
HETATM    9  C   UNK N   1      30.924  18.330   8.886  0.00  0.00     0.014 C 
HETATM   10  C   UNK N   1      33.815  17.230   6.705  0.00  0.00     0.052 C 
HETATM   11  C   UNK N   1      29.161  17.562   4.338  0.00  0.00     0.039 C 
HETATM   12  C   UNK N   1      27.850  19.745   4.313  0.00  0.00     0.112 C 
HETATM   13  C   UNK N   1      29.653  16.341   5.102  0.00  0.00    -0.010 C 
HETATM   14  C   UNK N   1      28.498  18.658   5.133  0.00  0.00    -0.070 C 
HETATM   15  C   UNK N   1      26.796  20.415   5.115  0.00  0.00     0.131 C 
HETATM   16  C   UNK N   1      28.485  18.681   6.504  0.00  0.00    -0.072 C 
HETATM   17  C   UNK N   1      28.999  17.490   7.306  0.00  0.00     0.019 C 
HETATM   18  C   UNK N   1      31.444  17.300   6.710  0.00  0.00     0.003 C 
HETATM   19  C   UNK N   1      30.058  16.635   6.559  0.00  0.00     0.002 C 
HETATM   20  C   UNK N   1      31.863  17.333   8.189  0.00  0.00     0.003 C 
HETATM   21  C   UNK N   1      33.385  17.686   8.103  0.00  0.00     0.128 C 
HETATM   22  O   UNK N   1      25.633  20.439   4.742  0.00  0.00    -0.298 OA
ENDROOT
BRANCH  21  23
HETATM   23  O   UNK N   1      33.596  19.061   8.218  0.00  0.00    -0.377 OA
HETATM   24  H   UNK N   1      34.235  19.721   7.908  0.00  0.00     0.211 HD
ENDBRANCH  21  23
TORSDOF 1
ENDMDL
MODEL 2
REMARK VINA RESULT:      -7.4     11.758     15.263
REMARK  1 active torsions:
REMARK  status: ('A' for Active; 'I' for Inactive)
REMARK    1  A    between atoms: C_21  and  O_23 
ROOT
HETATM    1  C   UNK N   1      26.313  30.356  -3.689  0.00  0.00     0.015 C 
HETATM    2  C   UNK N   1      29.016  22.899  -2.687  0.00  0.00     0.010 C 
HETATM    3  C   UNK N   1      26.263  26.999  -3.302  0.00  0.00     0.020 C 
HETATM    4  C   UNK N   1      26.791  29.479  -4.367  0.00  0.00    -0.078 C 
HETATM    5  C   UNK N   1      27.012  21.920  -8.287  0.00  0.00     0.083 C 
HETATM    6  C   UNK N   1      26.447  22.756  -7.132  0.00  0.00     0.042 C 
HETATM    7  C   UNK N   1      25.622  24.800  -5.155  0.00  0.00     0.010 C 
HETATM    8  C   UNK N   1      29.181  27.013  -4.058  0.00  0.00     0.010 C 
HETATM    9  C   UNK N   1      25.910  26.238  -5.657  0.00  0.00     0.014 C 
HETATM   10  C   UNK N   1      28.901  28.357  -4.717  0.00  0.00     0.052 C 
HETATM   11  C   UNK N   1      29.757  23.206  -5.038  0.00  0.00     0.039 C 
HETATM   12  C   UNK N   1      29.289  21.925  -7.189  0.00  0.00     0.112 C 
HETATM   13  C   UNK N   1      29.232  23.916  -3.797  0.00  0.00    -0.010 C 
HETATM   14  C   UNK N   1      28.751  22.800  -6.084  0.00  0.00    -0.070 C 
HETATM   15  C   UNK N   1      28.180  21.152  -7.800  0.00  0.00     0.131 C 
HETATM   16  C   UNK N   1      27.439  23.196  -6.050  0.00  0.00    -0.072 C 
HETATM   17  C   UNK N   1      26.882  23.938  -4.839  0.00  0.00     0.019 C 
HETATM   18  C   UNK N   1      28.187  26.096  -4.731  0.00  0.00     0.003 C 
HETATM   19  C   UNK N   1      27.950  24.734  -4.040  0.00  0.00     0.002 C 
HETATM   20  C   UNK N   1      26.900  26.937  -4.713  0.00  0.00     0.003 C 
HETATM   21  C   UNK N   1      27.419  28.360  -5.104  0.00  0.00     0.128 C 
HETATM   22  O   UNK N   1      28.188  19.931  -7.812  0.00  0.00    -0.298 OA
ENDROOT
BRANCH  21  23
HETATM   23  O   UNK N   1      27.308  28.581  -6.478  0.00  0.00    -0.377 OA
HETATM   24  H   UNK N   1      26.625  28.531  -7.164  0.00  0.00     0.211 HD
ENDBRANCH  21  23
TORSDOF 1
ENDMDL
MODEL 3
REMARK VINA RESULT:      -7.3     13.992     16.120
REMARK  1 active torsions:
REMARK  status: ('A' for Active; 'I' for Inactive)
REMARK    1  A    between atoms: C_21  and  O_23 
ROOT
HETATM    1  C   UNK N   1      28.220  29.672  -1.572  0.00  0.00     0.015 C 
HETATM    2  C   UNK N   1      29.151  26.520  -8.859  0.00  0.00     0.010 C 
HETATM    3  C   UNK N   1      29.125  27.476  -3.976  0.00  0.00     0.020 C 
HETATM    4  C   UNK N   1      27.553  29.069  -2.378  0.00  0.00    -0.078 C 
HETATM    5  C   UNK N   1      25.188  22.354  -7.052  0.00  0.00     0.083 C 
HETATM    6  C   UNK N   1      26.322  23.072  -6.312  0.00  0.00     0.042 C 
HETATM    7  C   UNK N   1      28.105  24.812  -4.711  0.00  0.00     0.010 C 
HETATM    8  C   UNK N   1      27.200  28.904  -5.804  0.00  0.00     0.010 C 
HETATM    9  C   UNK N   1      27.305  25.772  -3.795  0.00  0.00     0.014 C 
HETATM   10  C   UNK N   1      26.518  29.399  -4.535  0.00  0.00     0.052 C 
HETATM   11  C   UNK N   1      26.694  26.206  -8.676  0.00  0.00     0.039 C 
HETATM   12  C   UNK N   1      25.188  24.158  -8.823  0.00  0.00     0.112 C 
HETATM   13  C   UNK N   1      27.908  26.896  -8.068  0.00  0.00    -0.010 C 
HETATM   14  C   UNK N   1      26.260  24.898  -8.064  0.00  0.00    -0.070 C 
HETATM   15  C   UNK N   1      25.243  22.714  -8.487  0.00  0.00     0.131 C 
HETATM   16  C   UNK N   1      26.789  24.409  -6.897  0.00  0.00    -0.072 C 
HETATM   17  C   UNK N   1      27.985  25.091  -6.241  0.00  0.00     0.019 C 
HETATM   18  C   UNK N   1      27.175  27.403  -5.635  0.00  0.00     0.003 C 
HETATM   19  C   UNK N   1      28.110  26.603  -6.570  0.00  0.00     0.002 C 
HETATM   20  C   UNK N   1      27.607  27.231  -4.170  0.00  0.00     0.003 C 
HETATM   21  C   UNK N   1      26.809  28.363  -3.445  0.00  0.00     0.128 C 
HETATM   22  O   UNK N   1      25.425  21.867  -9.348  0.00  0.00    -0.298 OA
ENDROOT
BRANCH  21  23
HETATM   23  O   UNK N   1      25.599  27.887  -2.936  0.00  0.00    -0.377 OA
HETATM   24  H   UNK N   1      24.848  27.355  -3.242  0.00  0.00     0.211 HD
ENDBRANCH  21  23
TORSDOF 1
ENDMDL
MODEL 4
REMARK VINA RESULT:      -7.2     11.181     14.698
REMARK  1 active torsions:
REMARK  status: ('A' for Active; 'I' for Inactive)
REMARK    1  A    between atoms: C_21  and  O_23 
ROOT
HETATM    1  C   UNK N   1      24.812  26.938  -5.562  0.00  0.00     0.015 C 
HETATM    2  C   UNK N   1      30.487  22.211  -8.622  0.00  0.00     0.010 C 
HETATM    3  C   UNK N   1      27.884  25.878  -6.492  0.00  0.00     0.020 C 
HETATM    4  C   UNK N   1      25.444  25.965  -5.227  0.00  0.00    -0.078 C 
HETATM    5  C   UNK N   1      32.398  21.614  -2.937  0.00  0.00     0.083 C 
HETATM    6  C   UNK N   1      31.823  22.813  -3.700  0.00  0.00     0.042 C 
HETATM    7  C   UNK N   1      30.219  24.969  -4.943  0.00  0.00     0.010 C 
HETATM    8  C   UNK N   1      26.714  23.106  -6.676  0.00  0.00     0.010 C 
HETATM    9  C   UNK N   1      28.808  25.076  -4.312  0.00  0.00     0.014 C 
HETATM   10  C   UNK N   1      25.624  23.612  -5.740  0.00  0.00     0.052 C 
HETATM   11  C   UNK N   1      29.991  20.862  -6.596  0.00  0.00     0.039 C 
HETATM   12  C   UNK N   1      31.429  20.039  -4.662  0.00  0.00     0.112 C 
HETATM   13  C   UNK N   1      29.512  22.011  -7.473  0.00  0.00    -0.010 C 
HETATM   14  C   UNK N   1      30.809  21.213  -5.379  0.00  0.00    -0.070 C 
HETATM   15  C   UNK N   1      32.608  20.495  -3.884  0.00  0.00     0.131 C 
HETATM   16  C   UNK N   1      30.979  22.500  -4.940  0.00  0.00    -0.072 C 
HETATM   17  C   UNK N   1      30.483  23.677  -5.775  0.00  0.00     0.019 C 
HETATM   18  C   UNK N   1      27.979  23.387  -5.901  0.00  0.00     0.003 C 
HETATM   19  C   UNK N   1      29.294  23.331  -6.711  0.00  0.00     0.002 C 
HETATM   20  C   UNK N   1      27.733  24.812  -5.378  0.00  0.00     0.003 C 
HETATM   21  C   UNK N   1      26.238  24.754  -4.924  0.00  0.00     0.128 C 
HETATM   22  O   UNK N   1      33.720  20.034  -4.087  0.00  0.00    -0.298 OA
ENDROOT
BRANCH  21  23
HETATM   23  O   UNK N   1      26.130  24.449  -3.565  0.00  0.00    -0.377 OA
HETATM   24  H   UNK N   1      25.781  24.861  -2.759  0.00  0.00     0.211 HD
ENDBRANCH  21  23
TORSDOF 1
ENDMDL
MODEL 5
REMARK VINA RESULT:      -7.2     11.125     13.801
REMARK  1 active torsions:
REMARK  status: ('A' for Active; 'I' for Inactive)
REMARK    1  A    between atoms: C_21  and  O_23 
ROOT
HETATM    1  C   UNK N   1      34.611  20.935  -3.757  0.00  0.00     0.015 C 
HETATM    2  C   UNK N   1      28.759  25.921  -5.950  0.00  0.00     0.010 C 
HETATM    3  C   UNK N   1      32.575  22.732  -5.768  0.00  0.00     0.020 C 
HETATM    4  C   UNK N   1      33.411  20.902  -3.894  0.00  0.00    -0.078 C 
HETATM    5  C   UNK N   1      26.071  21.024  -8.212  0.00  0.00     0.083 C 
HETATM    6  C   UNK N   1      27.543  21.449  -8.163  0.00  0.00     0.042 C 
HETATM    7  C   UNK N   1      30.407  21.950  -7.603  0.00  0.00     0.010 C 
HETATM    8  C   UNK N   1      30.715  22.996  -3.411  0.00  0.00     0.010 C 
HETATM    9  C   UNK N   1      30.963  20.980  -6.530  0.00  0.00     0.014 C 
HETATM   10  C   UNK N   1      31.408  21.759  -2.854  0.00  0.00     0.052 C 
HETATM   11  C   UNK N   1      27.324  24.038  -5.198  0.00  0.00     0.039 C 
HETATM   12  C   UNK N   1      25.528  22.652  -6.356  0.00  0.00     0.112 C 
HETATM   13  C   UNK N   1      28.737  24.604  -5.190  0.00  0.00    -0.010 C 
HETATM   14  C   UNK N   1      26.987  23.026  -6.263  0.00  0.00    -0.070 C 
HETATM   15  C   UNK N   1      25.231  22.136  -7.715  0.00  0.00     0.131 C 
HETATM   16  C   UNK N   1      27.930  22.472  -7.090  0.00  0.00    -0.072 C 
HETATM   17  C   UNK N   1      29.364  22.989  -7.088  0.00  0.00     0.019 C 
HETATM   18  C   UNK N   1      30.228  22.528  -4.762  0.00  0.00     0.003 C 
HETATM   19  C   UNK N   1      29.800  23.639  -5.747  0.00  0.00     0.002 C 
HETATM   20  C   UNK N   1      31.451  21.772  -5.307  0.00  0.00     0.003 C 
HETATM   21  C   UNK N   1      31.942  20.973  -4.054  0.00  0.00     0.128 C 
HETATM   22  O   UNK N   1      24.394  22.669  -8.428  0.00  0.00    -0.298 OA
ENDROOT
BRANCH  21  23
HETATM   23  O   UNK N   1      31.404  19.685  -4.030  0.00  0.00    -0.377 OA
HETATM   24  H   UNK N   1      31.469  18.886  -3.483  0.00  0.00     0.211 HD
ENDBRANCH  21  23
TORSDOF 1
ENDMDL
MODEL 6
REMARK VINA RESULT:      -7.0     12.723     16.292
REMARK  1 active torsions:
REMARK  status: ('A' for Active; 'I' for Inactive)
REMARK    1  A    between atoms: C_21  and  O_23 
ROOT
HETATM    1  C   UNK N   1      26.572  21.857 -11.056  0.00  0.00     0.015 C 
HETATM    2  C   UNK N   1      28.712  23.741  -3.587  0.00  0.00     0.010 C 
HETATM    3  C   UNK N   1      28.270  23.319  -8.525  0.00  0.00     0.020 C 
HETATM    4  C   UNK N   1      26.193  22.590 -10.174  0.00  0.00    -0.078 C 
HETATM    5  C   UNK N   1      26.609  29.242  -4.871  0.00  0.00     0.083 C 
HETATM    6  C   UNK N   1      27.377  28.219  -5.717  0.00  0.00     0.042 C 
HETATM    7  C   UNK N   1      28.347  26.091  -7.532  0.00  0.00     0.010 C 
HETATM    8  C   UNK N   1      25.967  22.561  -6.734  0.00  0.00     0.010 C 
HETATM    9  C   UNK N   1      27.232  25.593  -8.485  0.00  0.00     0.014 C 
HETATM   10  C   UNK N   1      25.134  22.479  -8.006  0.00  0.00     0.052 C 
HETATM   11  C   UNK N   1      26.556  24.974  -3.633  0.00  0.00     0.039 C 
HETATM   12  C   UNK N   1      25.943  27.417  -3.253  0.00  0.00     0.112 C 
HETATM   13  C   UNK N   1      27.410  23.936  -4.349  0.00  0.00    -0.010 C 
HETATM   14  C   UNK N   1      26.645  26.399  -4.117  0.00  0.00    -0.070 C 
HETATM   15  C   UNK N   1      26.540  28.757  -3.474  0.00  0.00     0.131 C 
HETATM   16  C   UNK N   1      27.307  26.758  -5.263  0.00  0.00    -0.072 C 
HETATM   17  C   UNK N   1      28.147  25.738  -6.026  0.00  0.00     0.019 C 
HETATM   18  C   UNK N   1      26.512  23.969  -6.779  0.00  0.00     0.003 C 
HETATM   19  C   UNK N   1      27.691  24.267  -5.826  0.00  0.00     0.002 C 
HETATM   20  C   UNK N   1      26.962  24.099  -8.244  0.00  0.00     0.003 C 
HETATM   21  C   UNK N   1      25.784  23.424  -9.021  0.00  0.00     0.128 C 
HETATM   22  O   UNK N   1      27.039  29.390  -2.556  0.00  0.00    -0.298 OA
ENDROOT
BRANCH  21  23
HETATM   23  O   UNK N   1      24.841  24.366  -9.434  0.00  0.00    -0.377 OA
HETATM   24  H   UNK N   1      24.474  24.704 -10.266  0.00  0.00     0.211 HD
ENDBRANCH  21  23
TORSDOF 1
ENDMDL
MODEL 7
REMARK VINA RESULT:      -6.9     14.469     16.538
REMARK  1 active torsions:
REMARK  status: ('A' for Active; 'I' for Inactive)
REMARK    1  A    between atoms: C_21  and  O_23 
ROOT
HETATM    1  C   UNK N   1      26.685  30.430  -3.382  0.00  0.00     0.015 C 
HETATM    2  C   UNK N   1      25.955  25.873  -9.909  0.00  0.00     0.010 C 
HETATM    3  C   UNK N   1      27.568  28.712  -6.155  0.00  0.00     0.020 C 
HETATM    4  C   UNK N   1      26.580  29.257  -3.647  0.00  0.00    -0.078 C 
HETATM    5  C   UNK N   1      29.056  21.743  -6.803  0.00  0.00     0.083 C 
HETATM    6  C   UNK N   1      29.174  23.270  -6.871  0.00  0.00     0.042 C 
HETATM    7  C   UNK N   1      29.077  26.211  -6.540  0.00  0.00     0.010 C 
HETATM    8  C   UNK N   1      24.923  27.283  -5.937  0.00  0.00     0.010 C 
HETATM    9  C   UNK N   1      28.502  26.618  -5.159  0.00  0.00     0.014 C 
HETATM   10  C   UNK N   1      24.938  27.688  -4.470  0.00  0.00     0.052 C 
HETATM   11  C   UNK N   1      25.563  24.095  -8.220  0.00  0.00     0.039 C 
HETATM   12  C   UNK N   1      26.711  21.873  -7.737  0.00  0.00     0.112 C 
HETATM   13  C   UNK N   1      25.663  25.598  -8.443  0.00  0.00    -0.010 C 
HETATM   14  C   UNK N   1      26.802  23.379  -7.746  0.00  0.00    -0.070 C 
HETATM   15  C   UNK N   1      28.073  21.290  -7.812  0.00  0.00     0.131 C 
HETATM   16  C   UNK N   1      27.934  24.037  -7.341  0.00  0.00    -0.072 C 
HETATM   17  C   UNK N   1      28.060  25.547  -7.518  0.00  0.00     0.019 C 
HETATM   18  C   UNK N   1      26.225  26.532  -6.092  0.00  0.00     0.003 C 
HETATM   19  C   UNK N   1      26.699  26.296  -7.543  0.00  0.00     0.002 C 
HETATM   20  C   UNK N   1      27.217  27.439  -5.345  0.00  0.00     0.003 C 
HETATM   21  C   UNK N   1      26.408  27.849  -4.071  0.00  0.00     0.128 C 
HETATM   22  O   UNK N   1      28.396  20.544  -8.724  0.00  0.00    -0.298 OA
ENDROOT
BRANCH  21  23
HETATM   23  O   UNK N   1      26.683  26.999  -2.998  0.00  0.00    -0.377 OA
HETATM   24  H   UNK N   1      26.201  26.573  -2.273  0.00  0.00     0.211 HD
ENDBRANCH  21  23
TORSDOF 1
ENDMDL
MODEL 8
REMARK VINA RESULT:      -6.9      8.121     10.032
REMARK  1 active torsions:
REMARK  status: ('A' for Active; 'I' for Inactive)
REMARK    1  A    between atoms: C_21  and  O_23 
ROOT
HETATM    1  C   UNK N   1      22.638  12.247   9.443  0.00  0.00     0.015 C 
HETATM    2  C   UNK N   1      23.601  18.530   4.595  0.00  0.00     0.010 C 
HETATM    3  C   UNK N   1      23.676  14.065   6.790  0.00  0.00     0.020 C 
HETATM    4  C   UNK N   1      22.008  12.824   8.590  0.00  0.00    -0.078 C 
HETATM    5  C   UNK N   1      20.198  15.446   0.691  0.00  0.00     0.083 C 
HETATM    6  C   UNK N   1      21.277  14.995   1.683  0.00  0.00     0.042 C 
HETATM    7  C   UNK N   1      22.924  14.021   3.942  0.00  0.00     0.010 C 
HETATM    8  C   UNK N   1      21.531  16.060   7.500  0.00  0.00     0.010 C 
HETATM    9  C   UNK N   1      22.063  13.328   5.028  0.00  0.00     0.014 C 
HETATM   10  C   UNK N   1      20.853  14.917   8.243  0.00  0.00     0.052 C 
HETATM   11  C   UNK N   1      21.203  18.103   4.109  0.00  0.00     0.039 C 
HETATM   12  C   UNK N   1      19.926  17.616   1.960  0.00  0.00     0.112 C 
HETATM   13  C   UNK N   1      22.359  17.778   5.045  0.00  0.00    -0.010 C 
HETATM   14  C   UNK N   1      20.942  17.148   2.972  0.00  0.00    -0.070 C 
HETATM   15  C   UNK N   1      20.154  16.925   0.667  0.00  0.00     0.131 C 
HETATM   16  C   UNK N   1      21.569  15.934   2.858  0.00  0.00    -0.072 C 
HETATM   17  C   UNK N   1      22.710  15.558   3.798  0.00  0.00     0.019 C 
HETATM   18  C   UNK N   1      21.678  15.511   6.101  0.00  0.00     0.003 C 
HETATM   19  C   UNK N   1      22.654  16.272   5.176  0.00  0.00     0.002 C 
HETATM   20  C   UNK N   1      22.188  14.084   6.360  0.00  0.00     0.003 C 
HETATM   21  C   UNK N   1      21.301  13.620   7.562  0.00  0.00     0.128 C 
HETATM   22  O   UNK N   1      20.391  17.552  -0.355  0.00  0.00    -0.298 OA
ENDROOT
BRANCH  21  23
HETATM   23  O   UNK N   1      20.173  12.924   7.123  0.00  0.00    -0.377 OA
HETATM   24  H   UNK N   1      19.735  12.716   6.283  0.00  0.00     0.211 HD
ENDBRANCH  21  23
TORSDOF 1
ENDMDL
MODEL 9
REMARK VINA RESULT:      -6.8      3.359      4.092
REMARK  1 active torsions:
REMARK  status: ('A' for Active; 'I' for Inactive)
REMARK    1  A    between atoms: C_21  and  O_23 
ROOT
HETATM    1  C   UNK N   1      35.423  16.364  10.292  0.00  0.00     0.015 C 
HETATM    2  C   UNK N   1      33.780  15.670   2.499  0.00  0.00     0.010 C 
HETATM    3  C   UNK N   1      34.563  14.927   7.356  0.00  0.00     0.020 C 
HETATM    4  C   UNK N   1      34.497  16.585   9.549  0.00  0.00    -0.078 C 
HETATM    5  C   UNK N   1      28.117  14.601   4.266  0.00  0.00     0.083 C 
HETATM    6  C   UNK N   1      29.468  14.192   4.865  0.00  0.00     0.042 C 
HETATM    7  C   UNK N   1      32.010  13.858   6.346  0.00  0.00     0.010 C 
HETATM    8  C   UNK N   1      34.004  17.704   6.325  0.00  0.00     0.010 C 
HETATM    9  C   UNK N   1      32.078  14.780   7.590  0.00  0.00     0.014 C 
HETATM   10  C   UNK N   1      33.865  18.110   7.786  0.00  0.00     0.052 C 
HETATM   11  C   UNK N   1      31.739  16.924   3.156  0.00  0.00     0.039 C 
HETATM   12  C   UNK N   1      29.250  16.430   2.938  0.00  0.00     0.112 C 
HETATM   13  C   UNK N   1      33.126  16.484   3.604  0.00  0.00    -0.010 C 
HETATM   14  C   UNK N   1      30.570  16.069   3.573  0.00  0.00    -0.070 C 
HETATM   15  C   UNK N   1      28.348  15.252   2.957  0.00  0.00     0.131 C 
HETATM   16  C   UNK N   1      30.682  15.039   4.471  0.00  0.00    -0.072 C 
HETATM   17  C   UNK N   1      32.052  14.589   4.969  0.00  0.00     0.019 C 
HETATM   18  C   UNK N   1      32.997  16.585   6.191  0.00  0.00     0.003 C 
HETATM   19  C   UNK N   1      33.135  15.701   4.931  0.00  0.00     0.002 C 
HETATM   20  C   UNK N   1      33.258  15.755   7.458  0.00  0.00     0.003 C 
HETATM   21  C   UNK N   1      33.435  16.857   8.555  0.00  0.00     0.128 C 
HETATM   22  O   UNK N   1      27.893  14.783   1.925  0.00  0.00    -0.298 OA
ENDROOT
BRANCH  21  23
HETATM   23  O   UNK N   1      32.232  17.118   9.212  0.00  0.00    -0.377 OA
HETATM   24  H   UNK N   1      31.670  16.699   9.883  0.00  0.00     0.211 HD
ENDBRANCH  21  23
TORSDOF 1
ENDMDL
