MODEL 1
REMARK VINA RESULT:      -7.8      0.000      0.000
REMARK  7 active torsions:
REMARK  status: ('A' for Active; 'I' for Inactive)
REMARK    1  A    between atoms: C_7  and  C_8 
REMARK    2  A    between atoms: C_10  and  N_36 
REMARK    3  A    between atoms: C_14  and  N_15 
REMARK       I    between atoms: N_15  and  C_17 
REMARK    4  A    between atoms: C_17  and  C_19 
REMARK    5  A    between atoms: C_19  and  C_22 
REMARK    6  A    between atoms: C_24  and  C_32 
REMARK    7  A    between atoms: C_26  and  C_28 
ROOT
HETATM    1  C   UNK N   1      28.653  22.659  -6.688  0.00  0.00     0.006 A 
HETATM    2  C   UNK N   1      29.904  22.030  -6.557  0.00  0.00     0.063 A 
HETATM    3  C   UNK N   1      30.254  20.941  -7.358  0.00  0.00     0.103 A 
HETATM    4  N   UNK N   1      29.394  20.523  -8.311  0.00  0.00    -0.350 N 
ATOM      5  HN  UNK N   1      29.664  19.749  -8.918  1.00  0.00     0.166 HD
HETATM    6  C   UNK N   1      28.189  21.100  -8.481  0.00  0.00     0.120 A 
HETATM    7  C   UNK N   1      27.739  22.143  -7.687  0.00  0.00     0.063 A 
ENDROOT
BRANCH   7   8
HETATM    8  N   UNK N   1      26.402  22.666  -7.861  0.00  0.00    -0.319 N 
HETATM    9  C   UNK N   1      25.330  22.034  -7.116  0.00  0.00     0.159 C 
HETATM   10  C   UNK N   1      26.014  23.646  -8.767  0.00  0.00     0.236 C 
HETATM   11  O   UNK N   1      24.860  23.566  -9.175  0.00  0.00    -0.272 OA
BRANCH  10  12
HETATM   12  C   UNK N   1      26.856  24.845  -9.355  0.00  0.00     0.061 C 
HETATM   13  C   UNK N   1      26.278  25.284 -10.690  0.00  0.00     0.030 C 
HETATM   14  C   UNK N   1      28.345  24.602  -9.512  0.00  0.00     0.030 C 
BRANCH  12  15
HETATM   15  C   UNK N   1      26.846  26.041  -8.378  0.00  0.00    -0.039 A 
HETATM   16  C   UNK N   1      27.845  27.040  -8.411  0.00  0.00     0.024 A 
HETATM   17  C   UNK N   1      27.873  28.053  -7.434  0.00  0.00     0.049 A 
HETATM   18  C   UNK N   1      26.874  28.096  -6.446  0.00  0.00     0.032 A 
HETATM   19  C   UNK N   1      25.868  27.127  -6.426  0.00  0.00     0.049 A 
HETATM   20  C   UNK N   1      25.889  26.119  -7.365  0.00  0.00     0.024 A 
BRANCH  17  21
HETATM   21  C   UNK N   1      28.998  29.046  -7.419  0.00  0.00     0.417 C 
HETATM   22  F   UNK N   1      28.607  30.189  -6.748  0.00  0.00    -0.166 F 
HETATM   23  F   UNK N   1      30.117  28.519  -6.796  0.00  0.00    -0.166 F 
HETATM   24  F   UNK N   1      29.334  29.374  -8.721  0.00  0.00    -0.166 F 
ENDBRANCH  17  21
BRANCH  19  25
HETATM   25  C   UNK N   1      24.756  27.124  -5.425  0.00  0.00     0.417 C 
HETATM   26  F   UNK N   1      23.642  27.728  -5.985  0.00  0.00    -0.166 F 
HETATM   27  F   UNK N   1      25.109  27.805  -4.277  0.00  0.00    -0.166 F 
HETATM   28  F   UNK N   1      24.436  25.817  -5.099  0.00  0.00    -0.166 F 
ENDBRANCH  19  25
ENDBRANCH  12  15
ENDBRANCH  10  12
ENDBRANCH   7   8
BRANCH   1  29
HETATM   29  C   UNK N   1      28.321  23.728  -5.664  0.00  0.00    -0.018 A 
HETATM   30  C   UNK N   1      27.265  23.526  -4.754  0.00  0.00     0.013 A 
HETATM   31  C   UNK N   1      26.923  24.485  -3.802  0.00  0.00     0.001 A 
HETATM   32  C   UNK N   1      27.650  25.667  -3.715  0.00  0.00     0.001 A 
HETATM   33  C   UNK N   1      28.728  25.882  -4.572  0.00  0.00     0.007 A 
HETATM   34  C   UNK N   1      29.079  24.930  -5.535  0.00  0.00    -0.051 A 
HETATM   35  C   UNK N   1      30.228  25.258  -6.428  0.00  0.00     0.049 C 
ENDBRANCH   1  29
BRANCH   3  36
HETATM   36  N   UNK N   1      31.431  20.187  -7.109  0.00  0.00    -0.364 N 
HETATM   37  C   UNK N   1      31.950  20.039  -5.764  0.00  0.00     0.154 C 
HETATM   38  C   UNK N   1      33.474  19.939  -5.818  0.00  0.00     0.291 C 
HETATM   39  N   UNK N   1      33.867  18.882  -6.750  0.00  0.00     0.087 N 
HETATM   40  C   UNK N   1      33.444  19.259  -8.095  0.00  0.00     0.291 C 
HETATM   41  C   UNK N   1      35.316  18.824  -6.760  0.00  0.00     0.310 C 
HETATM   42  C   UNK N   1      31.926  19.300  -8.143  0.00  0.00     0.154 C 
ENDBRANCH   3  36
TORSDOF 7
ENDMDL
MODEL 2
REMARK VINA RESULT:      -7.7     14.293     16.658
REMARK  7 active torsions:
REMARK  status: ('A' for Active; 'I' for Inactive)
REMARK    1  A    between atoms: C_7  and  C_8 
REMARK    2  A    between atoms: C_10  and  N_36 
REMARK    3  A    between atoms: C_14  and  N_15 
REMARK       I    between atoms: N_15  and  C_17 
REMARK    4  A    between atoms: C_17  and  C_19 
REMARK    5  A    between atoms: C_19  and  C_22 
REMARK    6  A    between atoms: C_24  and  C_32 
REMARK    7  A    between atoms: C_26  and  C_28 
ROOT
HETATM    1  C   UNK N   1      24.160  14.289   4.787  0.00  0.00     0.006 A 
HETATM    2  C   UNK N   1      24.185  14.110   6.181  0.00  0.00     0.063 A 
HETATM    3  C   UNK N   1      23.427  13.110   6.796  0.00  0.00     0.103 A 
HETATM    4  N   UNK N   1      22.701  12.270   6.029  0.00  0.00    -0.350 N 
ATOM      5  HN  UNK N   1      22.174  11.519   6.475  1.00  0.00     0.166 HD
HETATM    6  C   UNK N   1      22.654  12.396   4.689  0.00  0.00     0.120 A 
HETATM    7  C   UNK N   1      23.325  13.398   4.006  0.00  0.00     0.063 A 
ENDROOT
BRANCH   7   8
HETATM    8  N   UNK N   1      23.168  13.536   2.575  0.00  0.00    -0.319 N 
HETATM    9  C   UNK N   1      24.128  12.860   1.724  0.00  0.00     0.159 C 
HETATM   10  C   UNK N   1      22.254  14.355   1.923  0.00  0.00     0.236 C 
HETATM   11  O   UNK N   1      22.606  14.779   0.828  0.00  0.00    -0.272 OA
BRANCH  10  12
HETATM   12  C   UNK N   1      20.826  14.828   2.402  0.00  0.00     0.061 C 
HETATM   13  C   UNK N   1      20.114  13.695   3.123  0.00  0.00     0.030 C 
HETATM   14  C   UNK N   1      19.911  15.387   1.328  0.00  0.00     0.030 C 
BRANCH  12  15
HETATM   15  C   UNK N   1      20.949  16.039   3.353  0.00  0.00    -0.039 A 
HETATM   16  C   UNK N   1      20.839  15.903   4.754  0.00  0.00     0.024 A 
HETATM   17  C   UNK N   1      20.840  17.039   5.585  0.00  0.00     0.049 A 
HETATM   18  C   UNK N   1      21.000  18.316   5.017  0.00  0.00     0.032 A 
HETATM   19  C   UNK N   1      21.137  18.454   3.634  0.00  0.00     0.049 A 
HETATM   20  C   UNK N   1      21.086  17.330   2.839  0.00  0.00     0.024 A 
BRANCH  17  21
HETATM   21  C   UNK N   1      20.618  16.887   7.061  0.00  0.00     0.417 C 
HETATM   22  F   UNK N   1      21.688  16.225   7.631  0.00  0.00    -0.166 F 
HETATM   23  F   UNK N   1      20.476  18.123   7.671  0.00  0.00    -0.166 F 
HETATM   24  F   UNK N   1      19.463  16.156   7.275  0.00  0.00    -0.166 F 
ENDBRANCH  17  21
BRANCH  19  25
HETATM   25  C   UNK N   1      21.339  19.775   2.961  0.00  0.00     0.417 C 
HETATM   26  F   UNK N   1      21.044  19.646   1.614  0.00  0.00    -0.166 F 
HETATM   27  F   UNK N   1      22.640  20.217   3.098  0.00  0.00    -0.166 F 
HETATM   28  F   UNK N   1      20.480  20.708   3.517  0.00  0.00    -0.166 F 
ENDBRANCH  19  25
ENDBRANCH  12  15
ENDBRANCH  10  12
ENDBRANCH   7   8
BRANCH   1  29
HETATM   29  C   UNK N   1      24.897  15.499   4.246  0.00  0.00    -0.018 A 
HETATM   30  C   UNK N   1      24.310  16.776   4.333  0.00  0.00     0.013 A 
HETATM   31  C   UNK N   1      24.951  17.914   3.842  0.00  0.00     0.001 A 
HETATM   32  C   UNK N   1      26.216  17.807   3.274  0.00  0.00     0.001 A 
HETATM   33  C   UNK N   1      26.843  16.565   3.209  0.00  0.00     0.007 A 
HETATM   34  C   UNK N   1      26.210  15.415   3.694  0.00  0.00    -0.051 A 
HETATM   35  C   UNK N   1      26.946  14.125   3.557  0.00  0.00     0.049 C 
ENDBRANCH   1  29
BRANCH   3  36
HETATM   36  N   UNK N   1      23.301  13.040   8.208  0.00  0.00    -0.364 N 
HETATM   37  C   UNK N   1      24.449  13.245   9.069  0.00  0.00     0.154 C 
HETATM   38  C   UNK N   1      24.297  12.391  10.327  0.00  0.00     0.291 C 
HETATM   39  N   UNK N   1      23.001  12.659  10.953  0.00  0.00     0.087 N 
HETATM   40  C   UNK N   1      21.943  12.226  10.046  0.00  0.00     0.291 C 
HETATM   41  C   UNK N   1      22.911  11.831  12.140  0.00  0.00     0.310 C 
HETATM   42  C   UNK N   1      21.978  13.090   8.797  0.00  0.00     0.154 C 
ENDBRANCH   3  36
TORSDOF 7
ENDMDL
MODEL 3
REMARK VINA RESULT:      -7.6      0.806      2.810
REMARK  7 active torsions:
REMARK  status: ('A' for Active; 'I' for Inactive)
REMARK    1  A    between atoms: C_7  and  C_8 
REMARK    2  A    between atoms: C_10  and  N_36 
REMARK    3  A    between atoms: C_14  and  N_15 
REMARK       I    between atoms: N_15  and  C_17 
REMARK    4  A    between atoms: C_17  and  C_19 
REMARK    5  A    between atoms: C_19  and  C_22 
REMARK    6  A    between atoms: C_24  and  C_32 
REMARK    7  A    between atoms: C_26  and  C_28 
ROOT
HETATM    1  C   UNK N   1      28.663  22.495  -7.096  0.00  0.00     0.006 A 
HETATM    2  C   UNK N   1      29.881  21.802  -7.212  0.00  0.00     0.063 A 
HETATM    3  C   UNK N   1      30.007  20.699  -8.060  0.00  0.00     0.103 A 
HETATM    4  N   UNK N   1      28.954  20.328  -8.819  0.00  0.00    -0.350 N 
ATOM      5  HN  UNK N   1      29.056  19.543  -9.462  1.00  0.00     0.166 HD
HETATM    6  C   UNK N   1      27.771  20.968  -8.749  0.00  0.00     0.120 A 
HETATM    7  C   UNK N   1      27.543  22.030  -7.889  0.00  0.00     0.063 A 
ENDROOT
BRANCH   7   8
HETATM    8  N   UNK N   1      26.226  22.623  -7.795  0.00  0.00    -0.319 N 
HETATM    9  C   UNK N   1      25.270  22.000  -6.901  0.00  0.00     0.159 C 
HETATM   10  C   UNK N   1      25.738  23.668  -8.571  0.00  0.00     0.236 C 
HETATM   11  O   UNK N   1      24.528  23.663  -8.769  0.00  0.00    -0.272 OA
BRANCH  10  12
HETATM   12  C   UNK N   1      26.528  24.858  -9.245  0.00  0.00     0.061 C 
HETATM   13  C   UNK N   1      25.734  25.415 -10.415  0.00  0.00     0.030 C 
HETATM   14  C   UNK N   1      27.941  24.548  -9.703  0.00  0.00     0.030 C 
BRANCH  12  15
HETATM   15  C   UNK N   1      26.783  25.984  -8.220  0.00  0.00    -0.039 A 
HETATM   16  C   UNK N   1      25.964  26.158  -7.082  0.00  0.00     0.024 A 
HETATM   17  C   UNK N   1      26.152  27.263  -6.229  0.00  0.00     0.049 A 
HETATM   18  C   UNK N   1      27.192  28.173  -6.488  0.00  0.00     0.032 A 
HETATM   19  C   UNK N   1      28.022  27.989  -7.596  0.00  0.00     0.049 A 
HETATM   20  C   UNK N   1      27.789  26.927  -8.441  0.00  0.00     0.024 A 
BRANCH  17  21
HETATM   21  C   UNK N   1      25.210  27.491  -5.084  0.00  0.00     0.417 C 
HETATM   22  F   UNK N   1      23.909  27.532  -5.548  0.00  0.00    -0.166 F 
HETATM   23  F   UNK N   1      25.322  26.483  -4.141  0.00  0.00    -0.166 F 
HETATM   24  F   UNK N   1      25.515  28.697  -4.477  0.00  0.00    -0.166 F 
ENDBRANCH  17  21
BRANCH  19  25
HETATM   25  C   UNK N   1      29.166  28.899  -7.919  0.00  0.00     0.417 C 
HETATM   26  F   UNK N   1      30.326  28.381  -7.367  0.00  0.00    -0.166 F 
HETATM   27  F   UNK N   1      28.957  30.169  -7.419  0.00  0.00    -0.166 F 
HETATM   28  F   UNK N   1      29.321  28.970  -9.293  0.00  0.00    -0.166 F 
ENDBRANCH  19  25
ENDBRANCH  12  15
ENDBRANCH  10  12
ENDBRANCH   7   8
BRANCH   1  29
HETATM   29  C   UNK N   1      28.598  23.576  -6.034  0.00  0.00    -0.018 A 
HETATM   30  C   UNK N   1      27.700  23.450  -4.957  0.00  0.00     0.013 A 
HETATM   31  C   UNK N   1      27.604  24.424  -3.963  0.00  0.00     0.001 A 
HETATM   32  C   UNK N   1      28.428  25.543  -4.005  0.00  0.00     0.001 A 
HETATM   33  C   UNK N   1      29.358  25.679  -5.035  0.00  0.00     0.007 A 
HETATM   34  C   UNK N   1      29.462  24.712  -6.040  0.00  0.00    -0.051 A 
HETATM   35  C   UNK N   1      30.466  24.955  -7.117  0.00  0.00     0.049 C 
ENDBRANCH   1  29
BRANCH   3  36
HETATM   36  N   UNK N   1      31.169  19.884  -8.046  0.00  0.00    -0.364 N 
HETATM   37  C   UNK N   1      32.105  19.940  -6.940  0.00  0.00     0.154 C 
HETATM   38  C   UNK N   1      33.516  19.668  -7.458  0.00  0.00     0.291 C 
HETATM   39  N   UNK N   1      33.533  18.416  -8.215  0.00  0.00     0.087 N 
HETATM   40  C   UNK N   1      32.696  18.573  -9.401  0.00  0.00     0.291 C 
HETATM   41  C   UNK N   1      34.890  18.202  -8.677  0.00  0.00     0.310 C 
HETATM   42  C   UNK N   1      31.253  18.767  -8.966  0.00  0.00     0.154 C 
ENDBRANCH   3  36
TORSDOF 7
ENDMDL
MODEL 4
REMARK VINA RESULT:      -7.6     14.316     16.554
REMARK  7 active torsions:
REMARK  status: ('A' for Active; 'I' for Inactive)
REMARK    1  A    between atoms: C_7  and  C_8 
REMARK    2  A    between atoms: C_10  and  N_36 
REMARK    3  A    between atoms: C_14  and  N_15 
REMARK       I    between atoms: N_15  and  C_17 
REMARK    4  A    between atoms: C_17  and  C_19 
REMARK    5  A    between atoms: C_19  and  C_22 
REMARK    6  A    between atoms: C_24  and  C_32 
REMARK    7  A    between atoms: C_26  and  C_28 
ROOT
HETATM    1  C   UNK N   1      24.221  14.333   4.793  0.00  0.00     0.006 A 
HETATM    2  C   UNK N   1      24.227  14.150   6.187  0.00  0.00     0.063 A 
HETATM    3  C   UNK N   1      23.478  13.133   6.786  0.00  0.00     0.103 A 
HETATM    4  N   UNK N   1      22.783  12.281   6.005  0.00  0.00    -0.350 N 
ATOM      5  HN  UNK N   1      22.263  11.519   6.440  1.00  0.00     0.166 HD
HETATM    6  C   UNK N   1      22.755  12.411   4.665  0.00  0.00     0.120 A 
HETATM    7  C   UNK N   1      23.417  13.428   3.996  0.00  0.00     0.063 A 
ENDROOT
BRANCH   7   8
HETATM    8  N   UNK N   1      23.282  13.568   2.563  0.00  0.00    -0.319 N 
HETATM    9  C   UNK N   1      24.316  12.986   1.729  0.00  0.00     0.159 C 
HETATM   10  C   UNK N   1      22.315  14.312   1.897  0.00  0.00     0.236 C 
HETATM   11  O   UNK N   1      22.654  14.776   0.814  0.00  0.00    -0.272 OA
BRANCH  10  12
HETATM   12  C   UNK N   1      20.841  14.655   2.347  0.00  0.00     0.061 C 
HETATM   13  C   UNK N   1      20.232  13.476   3.086  0.00  0.00     0.030 C 
HETATM   14  C   UNK N   1      19.893  15.098   1.248  0.00  0.00     0.030 C 
BRANCH  12  15
HETATM   15  C   UNK N   1      20.833  15.894   3.269  0.00  0.00    -0.039 A 
HETATM   16  C   UNK N   1      20.942  17.206   2.757  0.00  0.00     0.024 A 
HETATM   17  C   UNK N   1      21.048  18.306   3.630  0.00  0.00     0.049 A 
HETATM   18  C   UNK N   1      20.999  18.100   5.019  0.00  0.00     0.032 A 
HETATM   19  C   UNK N   1      20.864  16.807   5.530  0.00  0.00     0.049 A 
HETATM   20  C   UNK N   1      20.809  15.742   4.656  0.00  0.00     0.024 A 
BRANCH  17  21
HETATM   21  C   UNK N   1      21.267  19.683   3.074  0.00  0.00     0.417 C 
HETATM   22  F   UNK N   1      20.368  20.566   3.640  0.00  0.00    -0.166 F 
HETATM   23  F   UNK N   1      22.555  20.123   3.333  0.00  0.00    -0.166 F 
HETATM   24  F   UNK N   1      21.079  19.657   1.704  0.00  0.00    -0.166 F 
ENDBRANCH  17  21
BRANCH  19  25
HETATM   25  C   UNK N   1      20.776  16.511   6.994  0.00  0.00     0.417 C 
HETATM   26  F   UNK N   1      22.033  16.163   7.461  0.00  0.00    -0.166 F 
HETATM   27  F   UNK N   1      19.898  15.477   7.249  0.00  0.00    -0.166 F 
HETATM   28  F   UNK N   1      20.352  17.645   7.666  0.00  0.00    -0.166 F 
ENDBRANCH  19  25
ENDBRANCH  12  15
ENDBRANCH  10  12
ENDBRANCH   7   8
BRANCH   1  29
HETATM   29  C   UNK N   1      24.943  15.559   4.269  0.00  0.00    -0.018 A 
HETATM   30  C   UNK N   1      24.298  16.811   4.275  0.00  0.00     0.013 A 
HETATM   31  C   UNK N   1      24.924  17.962   3.796  0.00  0.00     0.001 A 
HETATM   32  C   UNK N   1      26.229  17.896   3.320  0.00  0.00     0.001 A 
HETATM   33  C   UNK N   1      26.911  16.681   3.338  0.00  0.00     0.007 A 
HETATM   34  C   UNK N   1      26.295  15.518   3.813  0.00  0.00    -0.051 A 
HETATM   35  C   UNK N   1      27.092  14.258   3.767  0.00  0.00     0.049 C 
ENDBRANCH   1  29
BRANCH   3  36
HETATM   36  N   UNK N   1      23.331  13.056   8.196  0.00  0.00    -0.364 N 
HETATM   37  C   UNK N   1      24.470  13.230   9.075  0.00  0.00     0.154 C 
HETATM   38  C   UNK N   1      24.281  12.371  10.324  0.00  0.00     0.291 C 
HETATM   39  N   UNK N   1      22.983  12.662  10.934  0.00  0.00     0.087 N 
HETATM   40  C   UNK N   1      21.929  12.259  10.008  0.00  0.00     0.291 C 
HETATM   41  C   UNK N   1      22.857  11.829  12.113  0.00  0.00     0.310 C 
HETATM   42  C   UNK N   1      22.000  13.131   8.766  0.00  0.00     0.154 C 
ENDBRANCH   3  36
TORSDOF 7
ENDMDL
MODEL 5
REMARK VINA RESULT:      -7.3     13.037     15.133
REMARK  7 active torsions:
REMARK  status: ('A' for Active; 'I' for Inactive)
REMARK    1  A    between atoms: C_7  and  C_8 
REMARK    2  A    between atoms: C_10  and  N_36 
REMARK    3  A    between atoms: C_14  and  N_15 
REMARK       I    between atoms: N_15  and  C_17 
REMARK    4  A    between atoms: C_17  and  C_19 
REMARK    5  A    between atoms: C_19  and  C_22 
REMARK    6  A    between atoms: C_24  and  C_32 
REMARK    7  A    between atoms: C_26  and  C_28 
ROOT
HETATM    1  C   UNK N   1      21.940  14.148   2.617  0.00  0.00     0.006 A 
HETATM    2  C   UNK N   1      23.259  14.125   2.129  0.00  0.00     0.063 A 
HETATM    3  C   UNK N   1      24.320  13.698   2.931  0.00  0.00     0.103 A 
HETATM    4  N   UNK N   1      24.063  13.249   4.177  0.00  0.00    -0.350 N 
ATOM      5  HN  UNK N   1      24.833  12.906   4.751  1.00  0.00     0.166 HD
HETATM    6  C   UNK N   1      22.815  13.243   4.685  0.00  0.00     0.120 A 
HETATM    7  C   UNK N   1      21.717  13.708   3.979  0.00  0.00     0.063 A 
ENDROOT
BRANCH   7   8
HETATM    8  N   UNK N   1      20.415  13.756   4.607  0.00  0.00    -0.319 N 
HETATM    9  C   UNK N   1      19.504  12.657   4.354  0.00  0.00     0.159 C 
HETATM   10  C   UNK N   1      19.894  14.816   5.340  0.00  0.00     0.236 C 
HETATM   11  O   UNK N   1      18.675  14.939   5.304  0.00  0.00    -0.272 OA
BRANCH  10  12
HETATM   12  C   UNK N   1      20.656  15.894   6.207  0.00  0.00     0.061 C 
HETATM   13  C   UNK N   1      21.681  15.217   7.101  0.00  0.00     0.030 C 
HETATM   14  C   UNK N   1      19.788  16.810   7.048  0.00  0.00     0.030 C 
BRANCH  12  15
HETATM   15  C   UNK N   1      21.372  16.912   5.293  0.00  0.00    -0.039 A 
HETATM   16  C   UNK N   1      22.781  16.992   5.223  0.00  0.00     0.024 A 
HETATM   17  C   UNK N   1      23.402  18.006   4.470  0.00  0.00     0.049 A 
HETATM   18  C   UNK N   1      22.614  18.917   3.745  0.00  0.00     0.032 A 
HETATM   19  C   UNK N   1      21.221  18.825   3.788  0.00  0.00     0.049 A 
HETATM   20  C   UNK N   1      20.636  17.852   4.570  0.00  0.00     0.024 A 
BRANCH  17  21
HETATM   21  C   UNK N   1      24.896  18.143   4.488  0.00  0.00     0.417 C 
HETATM   22  F   UNK N   1      25.463  17.013   5.044  0.00  0.00    -0.166 F 
HETATM   23  F   UNK N   1      25.395  18.314   3.208  0.00  0.00    -0.166 F 
HETATM   24  F   UNK N   1      25.244  19.247   5.246  0.00  0.00    -0.166 F 
ENDBRANCH  17  21
BRANCH  19  25
HETATM   25  C   UNK N   1      20.317  19.740   3.021  0.00  0.00     0.417 C 
HETATM   26  F   UNK N   1      20.219  20.946   3.694  0.00  0.00    -0.166 F 
HETATM   27  F   UNK N   1      19.055  19.199   2.879  0.00  0.00    -0.166 F 
HETATM   28  F   UNK N   1      20.857  19.972   1.768  0.00  0.00    -0.166 F 
ENDBRANCH  19  25
ENDBRANCH  12  15
ENDBRANCH  10  12
ENDBRANCH   7   8
BRANCH   1  29
HETATM   29  C   UNK N   1      20.895  14.775   1.714  0.00  0.00    -0.018 A 
HETATM   30  C   UNK N   1      20.800  16.177   1.618  0.00  0.00     0.013 A 
HETATM   31  C   UNK N   1      19.849  16.794   0.806  0.00  0.00     0.001 A 
HETATM   32  C   UNK N   1      18.981  16.021   0.042  0.00  0.00     0.001 A 
HETATM   33  C   UNK N   1      19.075  14.631   0.082  0.00  0.00     0.007 A 
HETATM   34  C   UNK N   1      20.022  13.999   0.896  0.00  0.00    -0.051 A 
HETATM   35  C   UNK N   1      20.030  12.507   0.896  0.00  0.00     0.049 C 
ENDBRANCH   1  29
BRANCH   3  36
HETATM   36  N   UNK N   1      25.669  13.845   2.513  0.00  0.00    -0.364 N 
HETATM   37  C   UNK N   1      26.422  12.712   2.016  0.00  0.00     0.154 C 
HETATM   38  C   UNK N   1      27.895  12.880   2.388  0.00  0.00     0.291 C 
HETATM   39  N   UNK N   1      28.373  14.186   1.933  0.00  0.00     0.087 N 
HETATM   40  C   UNK N   1      27.656  15.229   2.659  0.00  0.00     0.291 C 
HETATM   41  C   UNK N   1      29.771  14.293   2.303  0.00  0.00     0.310 C 
HETATM   42  C   UNK N   1      26.187  15.178   2.275  0.00  0.00     0.154 C 
ENDBRANCH   3  36
TORSDOF 7
ENDMDL
MODEL 6
REMARK VINA RESULT:      -7.3     13.006     15.286
REMARK  7 active torsions:
REMARK  status: ('A' for Active; 'I' for Inactive)
REMARK    1  A    between atoms: C_7  and  C_8 
REMARK    2  A    between atoms: C_10  and  N_36 
REMARK    3  A    between atoms: C_14  and  N_15 
REMARK       I    between atoms: N_15  and  C_17 
REMARK    4  A    between atoms: C_17  and  C_19 
REMARK    5  A    between atoms: C_19  and  C_22 
REMARK    6  A    between atoms: C_24  and  C_32 
REMARK    7  A    between atoms: C_26  and  C_28 
ROOT
HETATM    1  C   UNK N   1      21.972  14.236   2.796  0.00  0.00     0.006 A 
HETATM    2  C   UNK N   1      23.298  14.190   2.329  0.00  0.00     0.063 A 
HETATM    3  C   UNK N   1      24.342  13.773   3.159  0.00  0.00     0.103 A 
HETATM    4  N   UNK N   1      24.061  13.356   4.411  0.00  0.00    -0.350 N 
ATOM      5  HN  UNK N   1      24.819  13.020   5.005  1.00  0.00     0.166 HD
HETATM    6  C   UNK N   1      22.805  13.373   4.898  0.00  0.00     0.120 A 
HETATM    7  C   UNK N   1      21.723  13.831   4.164  0.00  0.00     0.063 A 
ENDROOT
BRANCH   7   8
HETATM    8  N   UNK N   1      20.411  13.906   4.769  0.00  0.00    -0.319 N 
HETATM    9  C   UNK N   1      19.477  12.833   4.487  0.00  0.00     0.159 C 
HETATM   10  C   UNK N   1      19.905  14.970   5.506  0.00  0.00     0.236 C 
HETATM   11  O   UNK N   1      18.690  15.126   5.449  0.00  0.00    -0.272 OA
BRANCH  10  12
HETATM   12  C   UNK N   1      20.679  16.018   6.398  0.00  0.00     0.061 C 
HETATM   13  C   UNK N   1      21.740  15.315   7.228  0.00  0.00     0.030 C 
HETATM   14  C   UNK N   1      19.825  16.881   7.308  0.00  0.00     0.030 C 
BRANCH  12  15
HETATM   15  C   UNK N   1      21.352  17.089   5.511  0.00  0.00    -0.039 A 
HETATM   16  C   UNK N   1      20.599  18.034   4.780  0.00  0.00     0.024 A 
HETATM   17  C   UNK N   1      21.236  18.922   3.892  0.00  0.00     0.049 A 
HETATM   18  C   UNK N   1      22.636  18.896   3.768  0.00  0.00     0.032 A 
HETATM   19  C   UNK N   1      23.387  17.982   4.509  0.00  0.00     0.049 A 
HETATM   20  C   UNK N   1      22.737  17.093   5.337  0.00  0.00     0.024 A 
BRANCH  17  21
HETATM   21  C   UNK N   1      20.415  19.849   3.046  0.00  0.00     0.417 C 
HETATM   22  F   UNK N   1      20.317  21.083   3.661  0.00  0.00    -0.166 F 
HETATM   23  F   UNK N   1      20.985  20.014   1.794  0.00  0.00    -0.166 F 
HETATM   24  F   UNK N   1      19.147  19.318   2.885  0.00  0.00    -0.166 F 
ENDBRANCH  17  21
BRANCH  19  25
HETATM   25  C   UNK N   1      24.881  17.915   4.451  0.00  0.00     0.417 C 
HETATM   26  F   UNK N   1      25.292  16.646   4.825  0.00  0.00    -0.166 F 
HETATM   27  F   UNK N   1      25.461  18.843   5.293  0.00  0.00    -0.166 F 
HETATM   28  F   UNK N   1      25.300  18.153   3.153  0.00  0.00    -0.166 F 
ENDBRANCH  19  25
ENDBRANCH  12  15
ENDBRANCH  10  12
ENDBRANCH   7   8
BRANCH   1  29
HETATM   29  C   UNK N   1      20.947  14.851   1.861  0.00  0.00    -0.018 A 
HETATM   30  C   UNK N   1      20.832  16.252   1.769  0.00  0.00     0.013 A 
HETATM   31  C   UNK N   1      19.898  16.857   0.928  0.00  0.00     0.001 A 
HETATM   32  C   UNK N   1      19.070  16.074   0.132  0.00  0.00     0.001 A 
HETATM   33  C   UNK N   1      19.186  14.686   0.167  0.00  0.00     0.007 A 
HETATM   34  C   UNK N   1      20.116  14.065   1.009  0.00  0.00    -0.051 A 
HETATM   35  C   UNK N   1      20.149  12.574   1.002  0.00  0.00     0.049 C 
ENDBRANCH   1  29
BRANCH   3  36
HETATM   36  N   UNK N   1      25.699  13.898   2.760  0.00  0.00    -0.364 N 
HETATM   37  C   UNK N   1      26.566  12.738   2.694  0.00  0.00     0.154 C 
HETATM   38  C   UNK N   1      27.995  13.156   3.036  0.00  0.00     0.291 C 
HETATM   39  N   UNK N   1      28.400  14.277   2.186  0.00  0.00     0.087 N 
HETATM   40  C   UNK N   1      27.562  15.429   2.498  0.00  0.00     0.291 C 
HETATM   41  C   UNK N   1      29.760  14.628   2.545  0.00  0.00     0.310 C 
HETATM   42  C   UNK N   1      26.127  15.119   2.107  0.00  0.00     0.154 C 
ENDBRANCH   3  36
TORSDOF 7
ENDMDL
MODEL 7
REMARK VINA RESULT:      -7.2     14.354     16.877
REMARK  7 active torsions:
REMARK  status: ('A' for Active; 'I' for Inactive)
REMARK    1  A    between atoms: C_7  and  C_8 
REMARK    2  A    between atoms: C_10  and  N_36 
REMARK    3  A    between atoms: C_14  and  N_15 
REMARK       I    between atoms: N_15  and  C_17 
REMARK    4  A    between atoms: C_17  and  C_19 
REMARK    5  A    between atoms: C_19  and  C_22 
REMARK    6  A    between atoms: C_24  and  C_32 
REMARK    7  A    between atoms: C_26  and  C_28 
ROOT
HETATM    1  C   UNK N   1      26.203  13.782   4.858  0.00  0.00     0.006 A 
HETATM    2  C   UNK N   1      25.517  13.323   5.997  0.00  0.00     0.063 A 
HETATM    3  C   UNK N   1      24.971  14.218   6.921  0.00  0.00     0.103 A 
HETATM    4  N   UNK N   1      25.059  15.543   6.684  0.00  0.00    -0.350 N 
ATOM      5  HN  UNK N   1      24.632  16.196   7.341  1.00  0.00     0.166 HD
HETATM    6  C   UNK N   1      25.698  16.029   5.602  0.00  0.00     0.120 A 
HETATM    7  C   UNK N   1      26.321  15.213   4.671  0.00  0.00     0.063 A 
ENDROOT
BRANCH   7   8
HETATM    8  N   UNK N   1      27.065  15.794   3.575  0.00  0.00    -0.319 N 
HETATM    9  C   UNK N   1      26.330  16.149   2.376  0.00  0.00     0.159 C 
HETATM   10  C   UNK N   1      28.445  15.941   3.504  0.00  0.00     0.236 C 
HETATM   11  O   UNK N   1      28.927  15.903   2.377  0.00  0.00    -0.272 OA
BRANCH  10  12
HETATM   12  C   UNK N   1      29.484  16.139   4.676  0.00  0.00     0.061 C 
HETATM   13  C   UNK N   1      30.814  16.621   4.121  0.00  0.00     0.030 C 
HETATM   14  C   UNK N   1      29.724  14.934   5.568  0.00  0.00     0.030 C 
BRANCH  12  15
HETATM   15  C   UNK N   1      28.955  17.169   5.698  0.00  0.00    -0.039 A 
HETATM   16  C   UNK N   1      28.293  18.350   5.293  0.00  0.00     0.024 A 
HETATM   17  C   UNK N   1      27.926  19.323   6.241  0.00  0.00     0.049 A 
HETATM   18  C   UNK N   1      28.180  19.097   7.605  0.00  0.00     0.032 A 
HETATM   19  C   UNK N   1      28.809  17.919   8.013  0.00  0.00     0.049 A 
HETATM   20  C   UNK N   1      29.201  17.002   7.062  0.00  0.00     0.024 A 
BRANCH  17  21
HETATM   21  C   UNK N   1      27.317  20.617   5.786  0.00  0.00     0.417 C 
HETATM   22  F   UNK N   1      25.998  20.682   6.191  0.00  0.00    -0.166 F 
HETATM   23  F   UNK N   1      28.003  21.700   6.311  0.00  0.00    -0.166 F 
HETATM   24  F   UNK N   1      27.375  20.688   4.406  0.00  0.00    -0.166 F 
ENDBRANCH  17  21
BRANCH  19  25
HETATM   25  C   UNK N   1      29.087  17.596   9.448  0.00  0.00     0.417 C 
HETATM   26  F   UNK N   1      30.190  16.761   9.518  0.00  0.00    -0.166 F 
HETATM   27  F   UNK N   1      28.009  16.970  10.041  0.00  0.00    -0.166 F 
HETATM   28  F   UNK N   1      29.370  18.764  10.134  0.00  0.00    -0.166 F 
ENDBRANCH  19  25
ENDBRANCH  12  15
ENDBRANCH  10  12
ENDBRANCH   7   8
BRANCH   1  29
HETATM   29  C   UNK N   1      26.886  12.726   4.009  0.00  0.00    -0.018 A 
HETATM   30  C   UNK N   1      28.103  12.160   4.436  0.00  0.00     0.013 A 
HETATM   31  C   UNK N   1      28.767  11.192   3.683  0.00  0.00     0.001 A 
HETATM   32  C   UNK N   1      28.215  10.742   2.489  0.00  0.00     0.001 A 
HETATM   33  C   UNK N   1      26.991  11.251   2.057  0.00  0.00     0.007 A 
HETATM   34  C   UNK N   1      26.316  12.225   2.801  0.00  0.00    -0.051 A 
HETATM   35  C   UNK N   1      25.027  12.731   2.247  0.00  0.00     0.049 C 
ENDBRANCH   1  29
BRANCH   3  36
HETATM   36  N   UNK N   1      24.442  13.770   8.160  0.00  0.00    -0.364 N 
HETATM   37  C   UNK N   1      25.277  13.697   9.343  0.00  0.00     0.154 C 
HETATM   38  C   UNK N   1      24.808  12.539  10.222  0.00  0.00     0.291 C 
HETATM   39  N   UNK N   1      23.374  12.667  10.486  0.00  0.00     0.087 N 
HETATM   40  C   UNK N   1      22.650  12.531   9.226  0.00  0.00     0.291 C 
HETATM   41  C   UNK N   1      22.983  11.551  11.325  0.00  0.00     0.310 C 
HETATM   42  C   UNK N   1      23.004  13.700   8.323  0.00  0.00     0.154 C 
ENDBRANCH   3  36
TORSDOF 7
ENDMDL
MODEL 8
REMARK VINA RESULT:      -7.1      2.098      3.720
REMARK  7 active torsions:
REMARK  status: ('A' for Active; 'I' for Inactive)
REMARK    1  A    between atoms: C_7  and  C_8 
REMARK    2  A    between atoms: C_10  and  N_36 
REMARK    3  A    between atoms: C_14  and  N_15 
REMARK       I    between atoms: N_15  and  C_17 
REMARK    4  A    between atoms: C_17  and  C_19 
REMARK    5  A    between atoms: C_19  and  C_22 
REMARK    6  A    between atoms: C_24  and  C_32 
REMARK    7  A    between atoms: C_26  and  C_28 
ROOT
HETATM    1  C   UNK N   1      28.506  23.110  -7.238  0.00  0.00     0.006 A 
HETATM    2  C   UNK N   1      29.364  21.997  -7.280  0.00  0.00     0.063 A 
HETATM    3  C   UNK N   1      29.775  21.447  -8.496  0.00  0.00     0.103 A 
HETATM    4  N   UNK N   1      29.383  22.031  -9.648  0.00  0.00    -0.350 N 
ATOM      5  HN  UNK N   1      29.710  21.649 -10.536  1.00  0.00     0.166 HD
HETATM    6  C   UNK N   1      28.570  23.104  -9.658  0.00  0.00     0.120 A 
HETATM    7  C   UNK N   1      28.066  23.672  -8.498  0.00  0.00     0.063 A 
ENDROOT
BRANCH   7   8
HETATM    8  N   UNK N   1      27.128  24.771  -8.573  0.00  0.00    -0.319 N 
HETATM    9  C   UNK N   1      25.722  24.448  -8.723  0.00  0.00     0.159 C 
HETATM   10  C   UNK N   1      27.448  26.122  -8.637  0.00  0.00     0.236 C 
HETATM   11  O   UNK N   1      26.650  26.830  -9.242  0.00  0.00    -0.272 OA
BRANCH  10  12
HETATM   12  C   UNK N   1      28.706  26.874  -8.049  0.00  0.00     0.061 C 
HETATM   13  C   UNK N   1      28.884  28.216  -8.740  0.00  0.00     0.030 C 
HETATM   14  C   UNK N   1      30.018  26.114  -8.089  0.00  0.00     0.030 C 
BRANCH  12  15
HETATM   15  C   UNK N   1      28.536  27.102  -6.531  0.00  0.00    -0.039 A 
HETATM   16  C   UNK N   1      27.276  27.379  -5.954  0.00  0.00     0.024 A 
HETATM   17  C   UNK N   1      27.172  27.696  -4.586  0.00  0.00     0.049 A 
HETATM   18  C   UNK N   1      28.324  27.691  -3.780  0.00  0.00     0.032 A 
HETATM   19  C   UNK N   1      29.568  27.391  -4.341  0.00  0.00     0.049 A 
HETATM   20  C   UNK N   1      29.650  27.130  -5.691  0.00  0.00     0.024 A 
BRANCH  17  21
HETATM   21  C   UNK N   1      25.844  28.089  -4.009  0.00  0.00     0.417 C 
HETATM   22  F   UNK N   1      25.868  29.421  -3.641  0.00  0.00    -0.166 F 
HETATM   23  F   UNK N   1      24.826  27.894  -4.928  0.00  0.00    -0.166 F 
HETATM   24  F   UNK N   1      25.583  27.313  -2.894  0.00  0.00    -0.166 F 
ENDBRANCH  17  21
BRANCH  19  25
HETATM   25  C   UNK N   1      30.832  27.338  -3.542  0.00  0.00     0.417 C 
HETATM   26  F   UNK N   1      31.006  26.053  -3.054  0.00  0.00    -0.166 F 
HETATM   27  F   UNK N   1      30.796  28.222  -2.481  0.00  0.00    -0.166 F 
HETATM   28  F   UNK N   1      31.904  27.652  -4.360  0.00  0.00    -0.166 F 
ENDBRANCH  19  25
ENDBRANCH  12  15
ENDBRANCH  10  12
ENDBRANCH   7   8
BRANCH   1  29
HETATM   29  C   UNK N   1      28.002  23.525  -5.868  0.00  0.00    -0.018 A 
HETATM   30  C   UNK N   1      26.623  23.712  -5.654  0.00  0.00     0.013 A 
HETATM   31  C   UNK N   1      26.119  24.100  -4.412  0.00  0.00     0.001 A 
HETATM   32  C   UNK N   1      26.983  24.285  -3.339  0.00  0.00     0.001 A 
HETATM   33  C   UNK N   1      28.350  24.067  -3.505  0.00  0.00     0.007 A 
HETATM   34  C   UNK N   1      28.869  23.682  -4.746  0.00  0.00    -0.051 A 
HETATM   35  C   UNK N   1      30.348  23.500  -4.838  0.00  0.00     0.049 C 
ENDBRANCH   1  29
BRANCH   3  36
HETATM   36  N   UNK N   1      30.487  20.219  -8.550  0.00  0.00    -0.364 N 
HETATM   37  C   UNK N   1      31.891  20.156  -8.200  0.00  0.00     0.154 C 
HETATM   38  C   UNK N   1      32.574  19.077  -9.038  0.00  0.00     0.291 C 
HETATM   39  N   UNK N   1      31.848  17.813  -8.905  0.00  0.00     0.087 N 
HETATM   40  C   UNK N   1      30.514  17.976  -9.473  0.00  0.00     0.291 C 
HETATM   41  C   UNK N   1      32.538  16.826  -9.712  0.00  0.00     0.310 C 
HETATM   42  C   UNK N   1      29.739  18.981  -8.637  0.00  0.00     0.154 C 
ENDBRANCH   3  36
TORSDOF 7
ENDMDL
MODEL 9
REMARK VINA RESULT:      -7.0     14.290     16.618
REMARK  7 active torsions:
REMARK  status: ('A' for Active; 'I' for Inactive)
REMARK    1  A    between atoms: C_7  and  C_8 
REMARK    2  A    between atoms: C_10  and  N_36 
REMARK    3  A    between atoms: C_14  and  N_15 
REMARK       I    between atoms: N_15  and  C_17 
REMARK    4  A    between atoms: C_17  and  C_19 
REMARK    5  A    between atoms: C_19  and  C_22 
REMARK    6  A    between atoms: C_24  and  C_32 
REMARK    7  A    between atoms: C_26  and  C_28 
ROOT
HETATM    1  C   UNK N   1      23.825  14.904   5.642  0.00  0.00     0.006 A 
HETATM    2  C   UNK N   1      23.546  14.464   6.949  0.00  0.00     0.063 A 
HETATM    3  C   UNK N   1      24.072  13.265   7.436  0.00  0.00     0.103 A 
HETATM    4  N   UNK N   1      24.904  12.546   6.654  0.00  0.00    -0.350 N 
ATOM      5  HN  UNK N   1      25.314  11.687   7.022  1.00  0.00     0.166 HD
HETATM    6  C   UNK N   1      25.208  12.932   5.400  0.00  0.00     0.120 A 
HETATM    7  C   UNK N   1      24.680  14.074   4.819  0.00  0.00     0.063 A 
ENDROOT
BRANCH   7   8
HETATM    8  N   UNK N   1      24.975  14.392   3.439  0.00  0.00    -0.319 N 
HETATM    9  C   UNK N   1      23.862  14.464   2.512  0.00  0.00     0.159 C 
HETATM   10  C   UNK N   1      26.240  14.520   2.877  0.00  0.00     0.236 C 
HETATM   11  O   UNK N   1      26.326  14.228   1.689  0.00  0.00    -0.272 OA
BRANCH  10  12
HETATM   12  C   UNK N   1      27.588  14.979   3.558  0.00  0.00     0.061 C 
HETATM   13  C   UNK N   1      28.664  15.181   2.505  0.00  0.00     0.030 C 
HETATM   14  C   UNK N   1      28.125  14.076   4.653  0.00  0.00     0.030 C 
BRANCH  12  15
HETATM   15  C   UNK N   1      27.378  16.299   4.332  0.00  0.00    -0.039 A 
HETATM   16  C   UNK N   1      26.890  17.465   3.701  0.00  0.00     0.024 A 
HETATM   17  C   UNK N   1      26.820  18.682   4.406  0.00  0.00     0.049 A 
HETATM   18  C   UNK N   1      27.195  18.725   5.760  0.00  0.00     0.032 A 
HETATM   19  C   UNK N   1      27.652  17.568   6.396  0.00  0.00     0.049 A 
HETATM   20  C   UNK N   1      27.756  16.400   5.672  0.00  0.00     0.024 A 
BRANCH  17  21
HETATM   21  C   UNK N   1      26.398  19.934   3.695  0.00  0.00     0.417 C 
HETATM   22  F   UNK N   1      27.506  20.573   3.173  0.00  0.00    -0.166 F 
HETATM   23  F   UNK N   1      25.517  19.647   2.665  0.00  0.00    -0.166 F 
HETATM   24  F   UNK N   1      25.766  20.777   4.592  0.00  0.00    -0.166 F 
ENDBRANCH  17  21
BRANCH  19  25
HETATM   25  C   UNK N   1      28.042  17.530   7.841  0.00  0.00     0.417 C 
HETATM   26  F   UNK N   1      27.267  16.585   8.493  0.00  0.00    -0.166 F 
HETATM   27  F   UNK N   1      27.859  18.758   8.445  0.00  0.00    -0.166 F 
HETATM   28  F   UNK N   1      29.372  17.163   7.947  0.00  0.00    -0.166 F 
ENDBRANCH  19  25
ENDBRANCH  12  15
ENDBRANCH  10  12
ENDBRANCH   7   8
BRANCH   1  29
HETATM   29  C   UNK N   1      23.078  16.136   5.169  0.00  0.00    -0.018 A 
HETATM   30  C   UNK N   1      23.739  17.379   5.109  0.00  0.00     0.013 A 
HETATM   31  C   UNK N   1      23.087  18.537   4.686  0.00  0.00     0.001 A 
HETATM   32  C   UNK N   1      21.757  18.478   4.284  0.00  0.00     0.001 A 
HETATM   33  C   UNK N   1      21.085  17.257   4.291  0.00  0.00     0.007 A 
HETATM   34  C   UNK N   1      21.726  16.088   4.716  0.00  0.00    -0.051 A 
HETATM   35  C   UNK N   1      20.919  14.833   4.718  0.00  0.00     0.049 C 
ENDBRANCH   1  29
BRANCH   3  36
HETATM   36  N   UNK N   1      23.650  12.724   8.679  0.00  0.00    -0.364 N 
HETATM   37  C   UNK N   1      22.256  12.759   9.072  0.00  0.00     0.154 C 
HETATM   38  C   UNK N   1      22.162  12.892  10.591  0.00  0.00     0.291 C 
HETATM   39  N   UNK N   1      22.956  11.842  11.230  0.00  0.00     0.087 N 
HETATM   40  C   UNK N   1      24.362  12.048  10.898  0.00  0.00     0.291 C 
HETATM   41  C   UNK N   1      22.828  12.010  12.665  0.00  0.00     0.310 C 
HETATM   42  C   UNK N   1      24.551  11.849   9.403  0.00  0.00     0.154 C 
ENDBRANCH   3  36
TORSDOF 7
ENDMDL
