REMARK  9 active torsions:
REMARK  status: ('A' for Active; 'I' for Inactive)
REMARK    1  A    between atoms: C_8  and  O_12 
REMARK    2  A    between atoms: C_10  and  C_13 
REMARK    3  A    between atoms: C_13  and  C_14 
REMARK    4  A    between atoms: C_13  and  O_15 
REMARK    5  A    between atoms: C_14  and  N_16 
REMARK    6  A    between atoms: N_16  and  C_17 
REMARK    7  A    between atoms: C_17  and  C_18 
REMARK    8  A    between atoms: C_18  and  C_19 
REMARK    9  A    between atoms: C_24  and  O_27 
ROOT
HETATM    1  C   UNK N   1      -1.762  -1.754  -0.490  0.00  0.00     0.171 C 
ENDROOT
BRANCH   1   2
HETATM    2  C   UNK N   1      -2.919  -0.793  -0.262  0.00  0.00     0.010 A 
HETATM    3  C   UNK N   1      -2.670   0.592  -0.278  0.00  0.00     0.049 A 
HETATM    4  C   UNK N   1      -3.704   1.510  -0.088  0.00  0.00     0.068 A 
HETATM    5  C   UNK N   1      -5.008   1.060   0.102  0.00  0.00     0.069 A 
HETATM    6  C   UNK N   1      -5.282  -0.309   0.102  0.00  0.00     0.071 A 
HETATM    7  N   UNK N   1      -6.609  -0.761   0.262  0.00  0.00    -0.323 N 
HETATM    8  C   UNK N   1      -4.247  -1.241  -0.078  0.00  0.00     0.105 A 
HETATM    9  C   UNK N   1      -6.898  -2.083   0.237  0.00  0.00     0.246 A 
HETATM   10  H   UNK N   1      -7.333  -0.107   0.393  0.00  0.00     0.169 HD
HETATM   11  C   UNK N   1      -5.808  -3.109   0.052  0.00  0.00     0.278 A 
HETATM   12  O   UNK N   1      -8.052  -2.451   0.363  0.00  0.00    -0.271 OA
HETATM   13  O   UNK N   1      -4.539  -2.567  -0.091  0.00  0.00    -0.339 OA
BRANCH   4  14
HETATM   14  O   UNK N   1      -3.440   2.827  -0.091  0.00  0.00    -0.361 OA
HETATM   15  H   UNK N   1      -2.553   3.127  -0.093  0.00  0.00     0.217 HD
ENDBRANCH   4  14
ENDBRANCH   1   2
BRANCH   1  16
HETATM   16  C   UNK N   1      -0.464  -1.278   0.136  0.00  0.00     0.151 C 
BRANCH  16  17
HETATM   17  N   UNK N   1       0.152  -0.342  -0.796  0.00  0.00    -0.410 N 
HETATM   18  H   UNK N   1      -0.143  -0.244  -1.768  0.00  0.00     0.154 HD
BRANCH  17  19
HETATM   19  C   UNK N   1       1.234   0.440  -0.204  0.00  0.00     0.022 C 
HETATM   20  C   UNK N   1       0.691   1.365   0.877  0.00  0.00     0.038 C 
HETATM   21  C   UNK N   1       1.787   1.307  -1.328  0.00  0.00     0.038 C 
BRANCH  19  22
HETATM   22  C   UNK N   1       2.317  -0.490   0.387  0.00  0.00     0.068 C 
BRANCH  22  23
HETATM   23  C   UNK N   1       3.688   0.106   0.405  0.00  0.00    -0.056 A 
HETATM   24  C   UNK N   1       3.948   1.313   1.069  0.00  0.00     0.010 A 
HETATM   25  C   UNK N   1       5.211   1.904   0.971  0.00  0.00     0.037 A 
HETATM   26  C   UNK N   1       6.218   1.298   0.211  0.00  0.00     0.068 A 
HETATM   27  C   UNK N   1       5.956   0.075  -0.432  0.00  0.00     0.037 A 
HETATM   28  C   UNK N   1       4.696  -0.512  -0.337  0.00  0.00     0.010 A 
BRANCH  26  29
HETATM   29  O   UNK N   1       7.420   1.909   0.104  0.00  0.00    -0.356 OA
HETATM   30  C   UNK N   1       8.451   1.408  -0.659  0.00  0.00     0.210 C 
ENDBRANCH  26  29
ENDBRANCH  22  23
ENDBRANCH  19  22
ENDBRANCH  17  19
ENDBRANCH  16  17
ENDBRANCH   1  16
BRANCH   1  31
HETATM   31  O   UNK N   1      -2.034  -3.053  -0.059  0.00  0.00    -0.389 OA
HETATM   32  H   UNK N   1      -2.911  -3.341   0.240  0.00  0.00     0.210 HD
ENDBRANCH   1  31
TORSDOF 9
