REMARK  2 active torsions:
REMARK  status: ('A' for Active; 'I' for Inactive)
REMARK    1  A    between atoms: C_10  and  O_1 
REMARK    2  A    between atoms: O_1  and  C_21 
REMARK       I    between atoms: N_4  and  C_12 
REMARK       I    between atoms: N_5  and  C_12 
ROOT
HETATM    1  O   UNK N   1      -0.734   3.796   0.125  0.00  0.00    -0.247 OA
HETATM    2  N   UNK N   1       0.101   1.654   0.021  0.00  0.00    -0.264 N 
HETATM    3  N   UNK N   1       1.444   3.663  -0.001  0.00  0.00    -0.351 N 
HETATM    4  C   UNK N   1      -1.273   1.073  -0.049  0.00  0.00     0.053 A 
HETATM    5  C   UNK N   1       1.341   0.848   0.029  0.00  0.00     0.050 A 
HETATM    6  C   UNK N   1      -1.618  -0.334  -0.039  0.00  0.00    -0.001 A 
HETATM    7  C   UNK N   1       1.459  -0.473  -0.488  0.00  0.00    -0.028 A 
HETATM    8  C   UNK N   1      -0.618  -1.449   0.043  0.00  0.00     0.171 C 
HETATM    9  C   UNK N   1       0.338  -1.208  -1.069  0.00  0.00     0.078 C 
HETATM   10  C   UNK N   1       0.236   3.060   0.065  0.00  0.00     0.325 C 
HETATM   11  C   UNK N   1      -2.377   1.958  -0.155  0.00  0.00     0.031 A 
HETATM   12  C   UNK N   1      -2.972  -0.715  -0.148  0.00  0.00     0.012 A 
HETATM   13  C   UNK N   1       2.535   1.408   0.555  0.00  0.00     0.031 A 
HETATM   14  C   UNK N   1       2.690  -1.144  -0.477  0.00  0.00     0.009 A 
HETATM   15  C   UNK N   1      -3.701   1.550  -0.243  0.00  0.00     0.002 A 
HETATM   16  C   UNK N   1      -4.000   0.205  -0.242  0.00  0.00     0.001 A 
HETATM   17  C   UNK N   1       3.754   0.736   0.559  0.00  0.00     0.002 A 
HETATM   18  C   UNK N   1       3.833  -0.545   0.039  0.00  0.00     0.001 A 
HETATM   19  H   UNK N   1       2.264   3.121  -0.048  0.00  0.00     0.160 HD
HETATM   20  H   UNK N   1       1.503   4.646  -0.001  0.00  0.00     0.160 HD
ENDROOT
BRANCH   8  21
HETATM   21  O   UNK N   1      -1.168  -2.709  -0.175  0.00  0.00    -0.311 OA
BRANCH  21  22
HETATM   22  C   UNK N   1      -2.022  -3.376   0.647  0.00  0.00     0.255 C 
HETATM   23  O   UNK N   1      -2.371  -2.902   1.717  0.00  0.00    -0.266 OA
HETATM   24  C   UNK N   1      -2.565  -4.695   0.213  0.00  0.00     0.126 C 
ENDBRANCH  21  22
ENDBRANCH   8  21
TORSDOF 2
