REMARK  9 active torsions:
REMARK  status: ('A' for Active; 'I' for Inactive)
REMARK    1  A    between atoms: O_1  and  C_11 
REMARK    2  A    between atoms: O_2  and  C_15 
REMARK    3  A    between atoms: O_2  and  C_24 
REMARK    4  A    between atoms: N_3  and  C_12 
REMARK    5  A    between atoms: C_4  and  C_11 
REMARK    6  A    between atoms: C_11  and  C_13 
REMARK    7  A    between atoms: C_11  and  C_14 
REMARK    8  A    between atoms: C_12  and  C_15 
REMARK    9  A    between atoms: C_24  and  C_27 
ROOT
HETATM    1  N   UNK N   1      -0.817   0.572   0.642  0.00  0.00    -0.065 N 
HETATM    2  C   UNK N   1      -0.839  -1.893  -0.221  0.00  0.00     0.004 C 
HETATM    3  C   UNK N   1       0.519  -1.210  -0.456  0.00  0.00     0.041 C 
HETATM    4  C   UNK N   1      -1.146  -1.811   1.290  0.00  0.00     0.041 C 
HETATM    5  C   UNK N   1      -1.876  -1.018  -0.962  0.00  0.00     0.041 C 
HETATM    6  C   UNK N   1       0.516   0.201   0.140  0.00  0.00     0.238 C 
HETATM    7  C   UNK N   1      -1.164  -0.337   1.748  0.00  0.00     0.238 C 
HETATM    8  C   UNK N   1      -1.831   0.436  -0.423  0.00  0.00     0.238 C 
ENDROOT
BRANCH   2   9
HETATM    9  C   UNK N   1      -0.818  -3.382  -0.735  0.00  0.00     0.120 C 
BRANCH   9  10
HETATM   10  O   UNK N   1      -0.493  -3.364  -2.097  0.00  0.00    -0.379 OA
HETATM   11  H   UNK N   1      -0.370  -3.552  -3.041  0.00  0.00     0.211 HD
ENDBRANCH   9  10
BRANCH   9  12
HETATM   12  C   UNK N   1      -2.175  -4.093  -0.618  0.00  0.00    -0.019 A 
HETATM   13  C   UNK N   1      -2.314  -5.389  -1.151  0.00  0.00     0.010 A 
HETATM   14  C   UNK N   1      -3.530  -6.070  -1.068  0.00  0.00     0.001 A 
HETATM   15  C   UNK N   1      -4.628  -5.466  -0.454  0.00  0.00     0.000 A 
HETATM   16  C   UNK N   1      -4.511  -4.179   0.074  0.00  0.00     0.001 A 
HETATM   17  C   UNK N   1      -3.294  -3.496  -0.008  0.00  0.00     0.010 A 
ENDBRANCH   9  12
BRANCH   9  18
HETATM   18  C   UNK N   1       0.276  -4.178   0.006  0.00  0.00    -0.019 A 
HETATM   19  C   UNK N   1       1.632  -3.835  -0.159  0.00  0.00     0.010 A 
HETATM   20  C   UNK N   1       2.637  -4.534   0.513  0.00  0.00     0.001 A 
HETATM   21  C   UNK N   1       2.305  -5.590   1.361  0.00  0.00     0.000 A 
HETATM   22  C   UNK N   1       0.967  -5.950   1.534  0.00  0.00     0.001 A 
HETATM   23  C   UNK N   1      -0.040  -5.251   0.862  0.00  0.00     0.010 A 
ENDBRANCH   9  18
ENDBRANCH   2   9
BRANCH   1  24
HETATM   24  C   UNK N   1      -0.780   1.931   1.198  0.00  0.00     0.263 C 
BRANCH  24  25
HETATM   25  C   UNK N   1      -0.589   3.084   0.183  0.00  0.00     0.196 C 
BRANCH  25  26
HETATM   26  O   UNK N   1       0.433   2.877  -0.762  0.00  0.00    -0.385 OA
BRANCH  26  27
HETATM   27  C   UNK N   1       1.659   2.881  -0.075  0.00  0.00     0.206 C 
BRANCH  27  28
HETATM   28  C   UNK N   1       2.429   4.151  -0.213  0.00  0.00    -0.035 A 
HETATM   29  C   UNK N   1       1.878   5.291  -0.812  0.00  0.00     0.009 A 
HETATM   30  C   UNK N   1       2.632   6.465  -0.904  0.00  0.00     0.001 A 
HETATM   31  C   UNK N   1       3.937   6.500  -0.402  0.00  0.00     0.000 A 
HETATM   32  C   UNK N   1       4.489   5.362   0.191  0.00  0.00     0.001 A 
HETATM   33  C   UNK N   1       3.734   4.192   0.288  0.00  0.00     0.009 A 
ENDBRANCH  27  28
ENDBRANCH  26  27
ENDBRANCH  25  26
ENDBRANCH  24  25
ENDBRANCH   1  24
TORSDOF 9
