MODEL 1
REMARK VINA RESULT:      -7.4      0.000      0.000
REMARK  2 active torsions:
REMARK  status: ('A' for Active; 'I' for Inactive)
REMARK    1  A    between atoms: C_10  and  O_1 
REMARK    2  A    between atoms: O_1  and  C_21 
REMARK       I    between atoms: N_4  and  C_12 
REMARK       I    between atoms: N_5  and  C_12 
ROOT
HETATM    1  O   UNK N   1      34.136  16.978   7.304  0.00  0.00    -0.247 OA
HETATM    2  N   UNK N   1      31.868  17.270   7.049  0.00  0.00    -0.264 N 
HETATM    3  N   UNK N   1      33.024  17.212   9.171  0.00  0.00    -0.351 N 
HETATM    4  C   UNK N   1      31.960  17.058   5.574  0.00  0.00     0.053 A 
HETATM    5  C   UNK N   1      30.609  17.571   7.765  0.00  0.00     0.050 A 
HETATM    6  C   UNK N   1      30.884  17.187   4.613  0.00  0.00    -0.001 A 
HETATM    7  C   UNK N   1      29.305  17.246   7.295  0.00  0.00    -0.028 A 
HETATM    8  C   UNK N   1      29.475  17.561   4.967  0.00  0.00     0.171 C 
HETATM    9  C   UNK N   1      29.057  16.591   6.013  0.00  0.00     0.078 C 
HETATM   10  C   UNK N   1      33.047  17.162   7.820  0.00  0.00     0.325 C 
HETATM   11  C   UNK N   1      33.210  16.673   5.023  0.00  0.00     0.031 A 
HETATM   12  C   UNK N   1      31.136  16.915   3.252  0.00  0.00     0.012 A 
HETATM   13  C   UNK N   1      30.661  18.205   9.034  0.00  0.00     0.031 A 
HETATM   14  C   UNK N   1      28.169  17.532   8.065  0.00  0.00     0.009 A 
HETATM   15  C   UNK N   1      33.428  16.429   3.674  0.00  0.00     0.002 A 
HETATM   16  C   UNK N   1      32.384  16.549   2.783  0.00  0.00     0.001 A 
HETATM   17  C   UNK N   1      29.529  18.482   9.794  0.00  0.00     0.002 A 
HETATM   18  C   UNK N   1      28.277  18.143   9.309  0.00  0.00     0.001 A 
HETATM   19  H   UNK N   1      32.174  17.361   9.644  0.00  0.00     0.160 HD
HETATM   20  H   UNK N   1      33.858  17.100   9.681  0.00  0.00     0.160 HD
ENDROOT
BRANCH   8  21
HETATM   21  O   UNK N   1      28.578  17.416   3.913  0.00  0.00    -0.311 OA
BRANCH  21  22
HETATM   22  C   UNK N   1      27.379  18.044   3.774  0.00  0.00     0.255 C 
HETATM   23  O   UNK N   1      26.379  17.430   3.436  0.00  0.00    -0.266 OA
HETATM   24  C   UNK N   1      27.283  19.501   4.076  0.00  0.00     0.126 C 
ENDBRANCH  21  22
ENDBRANCH   8  21
TORSDOF 2
ENDMDL
MODEL 2
REMARK VINA RESULT:      -7.2      1.642      6.433
REMARK  2 active torsions:
REMARK  status: ('A' for Active; 'I' for Inactive)
REMARK    1  A    between atoms: C_10  and  O_1 
REMARK    2  A    between atoms: O_1  and  C_21 
REMARK       I    between atoms: N_4  and  C_12 
REMARK       I    between atoms: N_5  and  C_12 
ROOT
HETATM    1  O   UNK N   1      27.911  18.001   4.954  0.00  0.00    -0.247 OA
HETATM    2  N   UNK N   1      30.064  17.379   5.478  0.00  0.00    -0.264 N 
HETATM    3  N   UNK N   1      29.029  17.085   3.314  0.00  0.00    -0.351 N 
HETATM    4  C   UNK N   1      29.871  17.749   6.912  0.00  0.00     0.053 A 
HETATM    5  C   UNK N   1      31.331  16.855   4.922  0.00  0.00     0.050 A 
HETATM    6  C   UNK N   1      30.880  17.735   7.952  0.00  0.00    -0.001 A 
HETATM    7  C   UNK N   1      32.341  16.195   5.676  0.00  0.00    -0.028 A 
HETATM    8  C   UNK N   1      32.309  17.334   7.738  0.00  0.00     0.171 C 
HETATM    9  C   UNK N   1      32.254  15.983   7.119  0.00  0.00     0.078 C 
HETATM   10  C   UNK N   1      28.971  17.519   4.593  0.00  0.00     0.325 C 
HETATM   11  C   UNK N   1      28.577  18.142   7.341  0.00  0.00     0.031 A 
HETATM   12  C   UNK N   1      30.518  18.082   9.270  0.00  0.00     0.012 A 
HETATM   13  C   UNK N   1      31.583  16.971   3.529  0.00  0.00     0.031 A 
HETATM   14  C   UNK N   1      33.492  15.691   5.053  0.00  0.00     0.009 A 
HETATM   15  C   UNK N   1      28.258  18.495   8.645  0.00  0.00     0.002 A 
HETATM   16  C   UNK N   1      29.235  18.462   9.616  0.00  0.00     0.001 A 
HETATM   17  C   UNK N   1      32.727  16.464   2.918  0.00  0.00     0.002 A 
HETATM   18  C   UNK N   1      33.685  15.820   3.682  0.00  0.00     0.001 A 
HETATM   19  H   UNK N   1      29.859  16.689   2.965  0.00  0.00     0.160 HD
HETATM   20  H   UNK N   1      28.239  17.167   2.732  0.00  0.00     0.160 HD
ENDROOT
BRANCH   8  21
HETATM   21  O   UNK N   1      33.033  17.198   8.918  0.00  0.00    -0.311 OA
BRANCH  21  22
HETATM   22  C   UNK N   1      34.387  17.222   9.048  0.00  0.00     0.255 C 
HETATM   23  O   UNK N   1      35.024  18.246   8.853  0.00  0.00    -0.266 OA
HETATM   24  C   UNK N   1      35.098  15.981   9.471  0.00  0.00     0.126 C 
ENDBRANCH  21  22
ENDBRANCH   8  21
TORSDOF 2
ENDMDL
MODEL 3
REMARK VINA RESULT:      -7.0     11.643     13.823
REMARK  2 active torsions:
REMARK  status: ('A' for Active; 'I' for Inactive)
REMARK    1  A    between atoms: C_10  and  O_1 
REMARK    2  A    between atoms: O_1  and  C_21 
REMARK       I    between atoms: N_4  and  C_12 
REMARK       I    between atoms: N_5  and  C_12 
ROOT
HETATM    1  O   UNK N   1      30.063  24.218  -2.628  0.00  0.00    -0.247 OA
HETATM    2  N   UNK N   1      29.382  23.134  -4.540  0.00  0.00    -0.264 N 
HETATM    3  N   UNK N   1      31.496  22.775  -3.427  0.00  0.00    -0.351 N 
HETATM    4  C   UNK N   1      28.143  23.964  -4.625  0.00  0.00     0.053 A 
HETATM    5  C   UNK N   1      29.725  22.060  -5.497  0.00  0.00     0.050 A 
HETATM    6  C   UNK N   1      27.063  23.812  -5.578  0.00  0.00    -0.001 A 
HETATM    7  C   UNK N   1      29.237  21.969  -6.831  0.00  0.00    -0.028 A 
HETATM    8  C   UNK N   1      27.028  22.768  -6.655  0.00  0.00     0.171 C 
HETATM    9  C   UNK N   1      28.299  22.930  -7.407  0.00  0.00     0.078 C 
HETATM   10  C   UNK N   1      30.297  23.394  -3.495  0.00  0.00     0.325 C 
HETATM   11  C   UNK N   1      27.982  25.033  -3.705  0.00  0.00     0.031 A 
HETATM   12  C   UNK N   1      25.976  24.709  -5.541  0.00  0.00     0.012 A 
HETATM   13  C   UNK N   1      30.630  21.039  -5.106  0.00  0.00     0.031 A 
HETATM   14  C   UNK N   1      29.653  20.936  -7.683  0.00  0.00     0.009 A 
HETATM   15  C   UNK N   1      26.889  25.889  -3.685  0.00  0.00     0.002 A 
HETATM   16  C   UNK N   1      25.881  25.727  -4.610  0.00  0.00     0.001 A 
HETATM   17  C   UNK N   1      31.041  20.018  -5.959  0.00  0.00     0.002 A 
HETATM   18  C   UNK N   1      30.553  19.967  -7.254  0.00  0.00     0.001 A 
HETATM   19  H   UNK N   1      31.741  22.097  -4.098  0.00  0.00     0.160 HD
HETATM   20  H   UNK N   1      32.126  23.002  -2.705  0.00  0.00     0.160 HD
ENDROOT
BRANCH   8  21
HETATM   21  O   UNK N   1      25.999  22.949  -7.574  0.00  0.00    -0.311 OA
BRANCH  21  22
HETATM   22  C   UNK N   1      25.084  22.021  -7.964  0.00  0.00     0.255 C 
HETATM   23  O   UNK N   1      23.916  22.323  -8.153  0.00  0.00    -0.266 OA
HETATM   24  C   UNK N   1      25.530  20.617  -8.196  0.00  0.00     0.126 C 
ENDBRANCH  21  22
ENDBRANCH   8  21
TORSDOF 2
ENDMDL
MODEL 4
REMARK VINA RESULT:      -6.9     11.342     14.069
REMARK  2 active torsions:
REMARK  status: ('A' for Active; 'I' for Inactive)
REMARK    1  A    between atoms: C_10  and  O_1 
REMARK    2  A    between atoms: O_1  and  C_21 
REMARK       I    between atoms: N_4  and  C_12 
REMARK       I    between atoms: N_5  and  C_12 
ROOT
HETATM    1  O   UNK N   1      26.182  21.731  -8.744  0.00  0.00    -0.247 OA
HETATM    2  N   UNK N   1      27.203  22.787  -6.972  0.00  0.00    -0.264 N 
HETATM    3  N   UNK N   1      25.246  23.608  -8.129  0.00  0.00    -0.351 N 
HETATM    4  C   UNK N   1      28.308  21.783  -6.951  0.00  0.00     0.053 A 
HETATM    5  C   UNK N   1      27.095  23.919  -6.026  0.00  0.00     0.050 A 
HETATM    6  C   UNK N   1      29.382  21.700  -5.982  0.00  0.00    -0.001 A 
HETATM    7  C   UNK N   1      28.185  24.494  -5.314  0.00  0.00    -0.028 A 
HETATM    8  C   UNK N   1      29.551  22.639  -4.825  0.00  0.00     0.171 C 
HETATM    9  C   UNK N   1      29.556  24.002  -5.416  0.00  0.00     0.078 C 
HETATM   10  C   UNK N   1      26.204  22.668  -7.964  0.00  0.00     0.325 C 
HETATM   11  C   UNK N   1      28.353  20.806  -7.979  0.00  0.00     0.031 A 
HETATM   12  C   UNK N   1      30.371  20.705  -6.129  0.00  0.00     0.012 A 
HETATM   13  C   UNK N   1      25.831  24.527  -5.805  0.00  0.00     0.031 A 
HETATM   14  C   UNK N   1      27.992  25.597  -4.469  0.00  0.00     0.009 A 
HETATM   15  C   UNK N   1      29.332  19.827  -8.085  0.00  0.00     0.002 A 
HETATM   16  C   UNK N   1      30.349  19.778  -7.156  0.00  0.00     0.001 A 
HETATM   17  C   UNK N   1      25.649  25.624  -4.968  0.00  0.00     0.002 A 
HETATM   18  C   UNK N   1      26.734  26.163  -4.298  0.00  0.00     0.001 A 
HETATM   19  H   UNK N   1      25.210  24.387  -7.528  0.00  0.00     0.160 HD
HETATM   20  H   UNK N   1      24.583  23.513  -8.851  0.00  0.00     0.160 HD
ENDROOT
BRANCH   8  21
HETATM   21  O   UNK N   1      30.765  22.492  -4.160  0.00  0.00    -0.311 OA
BRANCH  21  22
HETATM   22  C   UNK N   1      30.952  22.432  -2.814  0.00  0.00     0.255 C 
HETATM   23  O   UNK N   1      31.970  21.956  -2.336  0.00  0.00    -0.266 OA
HETATM   24  C   UNK N   1      29.905  22.990  -1.910  0.00  0.00     0.126 C 
ENDBRANCH  21  22
ENDBRANCH   8  21
TORSDOF 2
ENDMDL
MODEL 5
REMARK VINA RESULT:      -6.8      1.113      4.355
REMARK  2 active torsions:
REMARK  status: ('A' for Active; 'I' for Inactive)
REMARK    1  A    between atoms: C_10  and  O_1 
REMARK    2  A    between atoms: O_1  and  C_21 
REMARK       I    between atoms: N_4  and  C_12 
REMARK       I    between atoms: N_5  and  C_12 
ROOT
HETATM    1  O   UNK N   1      33.043  17.921   8.925  0.00  0.00    -0.247 OA
HETATM    2  N   UNK N   1      31.897  17.375   7.005  0.00  0.00    -0.264 N 
HETATM    3  N   UNK N   1      34.295  17.634   7.156  0.00  0.00    -0.351 N 
HETATM    4  C   UNK N   1      30.580  17.544   7.689  0.00  0.00     0.053 A 
HETATM    5  C   UNK N   1      32.049  16.965   5.593  0.00  0.00     0.050 A 
HETATM    6  C   UNK N   1      29.273  17.265   7.130  0.00  0.00    -0.001 A 
HETATM    7  C   UNK N   1      31.059  17.130   4.583  0.00  0.00    -0.028 A 
HETATM    8  C   UNK N   1      29.041  16.753   5.739  0.00  0.00     0.171 C 
HETATM    9  C   UNK N   1      29.742  17.708   4.842  0.00  0.00     0.078 C 
HETATM   10  C   UNK N   1      33.075  17.638   7.739  0.00  0.00     0.325 C 
HETATM   11  C   UNK N   1      30.567  18.043   9.017  0.00  0.00     0.031 A 
HETATM   12  C   UNK N   1      28.121  17.514   7.905  0.00  0.00     0.012 A 
HETATM   13  C   UNK N   1      33.272  16.386   5.161  0.00  0.00     0.031 A 
HETATM   14  C   UNK N   1      31.310  16.750   3.258  0.00  0.00     0.009 A 
HETATM   15  C   UNK N   1      29.414  18.261   9.760  0.00  0.00     0.002 A 
HETATM   16  C   UNK N   1      28.184  17.997   9.199  0.00  0.00     0.001 A 
HETATM   17  C   UNK N   1      33.514  16.014   3.842  0.00  0.00     0.002 A 
HETATM   18  C   UNK N   1      32.530  16.199   2.885  0.00  0.00     0.001 A 
HETATM   19  H   UNK N   1      34.385  17.410   6.202  0.00  0.00     0.160 HD
HETATM   20  H   UNK N   1      35.094  17.853   7.688  0.00  0.00     0.160 HD
ENDROOT
BRANCH   8  21
HETATM   21  O   UNK N   1      27.702  16.762   5.357  0.00  0.00    -0.311 OA
BRANCH  21  22
HETATM   22  C   UNK N   1      27.211  16.514   4.114  0.00  0.00     0.255 C 
HETATM   23  O   UNK N   1      27.520  15.505   3.500  0.00  0.00    -0.266 OA
HETATM   24  C   UNK N   1      26.249  17.479   3.507  0.00  0.00     0.126 C 
ENDBRANCH  21  22
ENDBRANCH   8  21
TORSDOF 2
ENDMDL
MODEL 6
REMARK VINA RESULT:      -6.7      2.332      4.487
REMARK  2 active torsions:
REMARK  status: ('A' for Active; 'I' for Inactive)
REMARK    1  A    between atoms: C_10  and  O_1 
REMARK    2  A    between atoms: O_1  and  C_21 
REMARK       I    between atoms: N_4  and  C_12 
REMARK       I    between atoms: N_5  and  C_12 
ROOT
HETATM    1  O   UNK N   1      29.176  18.246   9.729  0.00  0.00    -0.247 OA
HETATM    2  N   UNK N   1      29.160  17.943   7.447  0.00  0.00    -0.264 N 
HETATM    3  N   UNK N   1      27.502  19.190   8.687  0.00  0.00    -0.351 N 
HETATM    4  C   UNK N   1      30.339  17.029   7.515  0.00  0.00     0.053 A 
HETATM    5  C   UNK N   1      28.483  18.329   6.191  0.00  0.00     0.050 A 
HETATM    6  C   UNK N   1      31.048  16.448   6.393  0.00  0.00    -0.001 A 
HETATM    7  C   UNK N   1      28.512  17.575   4.983  0.00  0.00    -0.028 A 
HETATM    8  C   UNK N   1      30.692  16.683   4.955  0.00  0.00     0.171 C 
HETATM    9  C   UNK N   1      29.254  16.325   4.838  0.00  0.00     0.078 C 
HETATM   10  C   UNK N   1      28.641  18.462   8.655  0.00  0.00     0.325 C 
HETATM   11  C   UNK N   1      30.833  16.654   8.792  0.00  0.00     0.031 A 
HETATM   12  C   UNK N   1      32.127  15.571   6.635  0.00  0.00     0.012 A 
HETATM   13  C   UNK N   1      27.709  19.518   6.151  0.00  0.00     0.031 A 
HETATM   14  C   UNK N   1      27.801  17.999   3.852  0.00  0.00     0.009 A 
HETATM   15  C   UNK N   1      31.909  15.802   8.995  0.00  0.00     0.002 A 
HETATM   16  C   UNK N   1      32.559  15.255   7.910  0.00  0.00     0.001 A 
HETATM   17  C   UNK N   1      27.003  19.930   5.024  0.00  0.00     0.002 A 
HETATM   18  C   UNK N   1      27.047  19.166   3.869  0.00  0.00     0.001 A 
HETATM   19  H   UNK N   1      27.027  19.399   7.851  0.00  0.00     0.160 HD
HETATM   20  H   UNK N   1      27.148  19.510   9.548  0.00  0.00     0.160 HD
ENDROOT
BRANCH   8  21
HETATM   21  O   UNK N   1      31.378  15.858   4.068  0.00  0.00    -0.311 OA
BRANCH  21  22
HETATM   22  C   UNK N   1      32.232  16.253   3.086  0.00  0.00     0.255 C 
HETATM   23  O   UNK N   1      31.936  17.151   2.313  0.00  0.00    -0.266 OA
HETATM   24  C   UNK N   1      33.566  15.596   2.977  0.00  0.00     0.126 C 
ENDBRANCH  21  22
ENDBRANCH   8  21
TORSDOF 2
ENDMDL
MODEL 7
REMARK VINA RESULT:      -6.7      1.567      4.870
REMARK  2 active torsions:
REMARK  status: ('A' for Active; 'I' for Inactive)
REMARK    1  A    between atoms: C_10  and  O_1 
REMARK    2  A    between atoms: O_1  and  C_21 
REMARK       I    between atoms: N_4  and  C_12 
REMARK       I    between atoms: N_5  and  C_12 
ROOT
HETATM    1  O   UNK N   1      28.640  17.403   3.789  0.00  0.00    -0.247 OA
HETATM    2  N   UNK N   1      29.707  17.361   5.828  0.00  0.00    -0.264 N 
HETATM    3  N   UNK N   1      27.386  17.944   5.495  0.00  0.00    -0.351 N 
HETATM    4  C   UNK N   1      31.023  17.067   5.185  0.00  0.00     0.053 A 
HETATM    5  C   UNK N   1      29.509  17.486   7.288  0.00  0.00     0.050 A 
HETATM    6  C   UNK N   1      32.272  16.784   5.862  0.00  0.00    -0.001 A 
HETATM    7  C   UNK N   1      30.529  17.819   8.224  0.00  0.00    -0.028 A 
HETATM    8  C   UNK N   1      32.435  16.744   7.352  0.00  0.00     0.171 C 
HETATM    9  C   UNK N   1      31.920  18.049   7.844  0.00  0.00     0.078 C 
HETATM   10  C   UNK N   1      28.579  17.549   4.998  0.00  0.00     0.325 C 
HETATM   11  C   UNK N   1      31.100  17.076   3.768  0.00  0.00     0.031 A 
HETATM   12  C   UNK N   1      33.437  16.561   5.099  0.00  0.00     0.012 A 
HETATM   13  C   UNK N   1      28.213  17.298   7.837  0.00  0.00     0.031 A 
HETATM   14  C   UNK N   1      30.237  17.959   9.588  0.00  0.00     0.009 A 
HETATM   15  C   UNK N   1      32.261  16.835   3.046  0.00  0.00     0.002 A 
HETATM   16  C   UNK N   1      33.437  16.579   3.716  0.00  0.00     0.001 A 
HETATM   17  C   UNK N   1      27.931  17.442   9.192  0.00  0.00     0.002 A 
HETATM   18  C   UNK N   1      28.947  17.776  10.072  0.00  0.00     0.001 A 
HETATM   19  H   UNK N   1      27.274  18.076   6.464  0.00  0.00     0.160 HD
HETATM   20  H   UNK N   1      26.627  18.099   4.887  0.00  0.00     0.160 HD
ENDROOT
BRANCH   8  21
HETATM   21  O   UNK N   1      33.761  16.661   7.766  0.00  0.00    -0.311 OA
BRANCH  21  22
HETATM   22  C   UNK N   1      34.208  16.550   9.046  0.00  0.00     0.255 C 
HETATM   23  O   UNK N   1      34.857  17.441   9.570  0.00  0.00    -0.266 OA
HETATM   24  C   UNK N   1      33.866  15.329   9.830  0.00  0.00     0.126 C 
ENDBRANCH  21  22
ENDBRANCH   8  21
TORSDOF 2
ENDMDL
MODEL 8
REMARK VINA RESULT:      -6.7     12.865     14.143
REMARK  2 active torsions:
REMARK  status: ('A' for Active; 'I' for Inactive)
REMARK    1  A    between atoms: C_10  and  O_1 
REMARK    2  A    between atoms: O_1  and  C_21 
REMARK       I    between atoms: N_4  and  C_12 
REMARK       I    between atoms: N_5  and  C_12 
ROOT
HETATM    1  O   UNK N   1      30.968  25.748  -3.828  0.00  0.00    -0.247 OA
HETATM    2  N   UNK N   1      28.918  25.377  -4.806  0.00  0.00    -0.264 N 
HETATM    3  N   UNK N   1      29.505  27.345  -3.532  0.00  0.00    -0.351 N 
HETATM    4  C   UNK N   1      29.319  24.002  -5.230  0.00  0.00     0.053 A 
HETATM    5  C   UNK N   1      27.602  25.983  -5.101  0.00  0.00     0.050 A 
HETATM    6  C   UNK N   1      28.544  23.089  -6.046  0.00  0.00    -0.001 A 
HETATM    7  C   UNK N   1      26.411  25.254  -5.376  0.00  0.00    -0.028 A 
HETATM    8  C   UNK N   1      27.184  23.396  -6.599  0.00  0.00     0.171 C 
HETATM    9  C   UNK N   1      26.360  23.795  -5.429  0.00  0.00     0.078 C 
HETATM   10  C   UNK N   1      29.840  26.147  -4.061  0.00  0.00     0.325 C 
HETATM   11  C   UNK N   1      30.571  23.498  -4.794  0.00  0.00     0.031 A 
HETATM   12  C   UNK N   1      29.058  21.805  -6.326  0.00  0.00     0.012 A 
HETATM   13  C   UNK N   1      27.465  27.396  -5.089  0.00  0.00     0.031 A 
HETATM   14  C   UNK N   1      25.196  25.917  -5.601  0.00  0.00     0.009 A 
HETATM   15  C   UNK N   1      31.056  22.234  -5.104  0.00  0.00     0.002 A 
HETATM   16  C   UNK N   1      30.294  21.382  -5.872  0.00  0.00     0.001 A 
HETATM   17  C   UNK N   1      26.255  28.046  -5.310  0.00  0.00     0.002 A 
HETATM   18  C   UNK N   1      25.114  27.304  -5.566  0.00  0.00     0.001 A 
HETATM   19  H   UNK N   1      28.609  27.720  -3.689  0.00  0.00     0.160 HD
HETATM   20  H   UNK N   1      30.159  27.843  -2.990  0.00  0.00     0.160 HD
ENDROOT
BRANCH   8  21
HETATM   21  O   UNK N   1      26.553  22.295  -7.171  0.00  0.00    -0.311 OA
BRANCH  21  22
HETATM   22  C   UNK N   1      25.241  22.200  -7.519  0.00  0.00     0.255 C 
HETATM   23  O   UNK N   1      24.726  23.013  -8.271  0.00  0.00    -0.266 OA
HETATM   24  C   UNK N   1      24.432  21.063  -6.996  0.00  0.00     0.126 C 
ENDBRANCH  21  22
ENDBRANCH   8  21
TORSDOF 2
ENDMDL
MODEL 9
REMARK VINA RESULT:      -6.6      2.356      3.780
REMARK  2 active torsions:
REMARK  status: ('A' for Active; 'I' for Inactive)
REMARK    1  A    between atoms: C_10  and  O_1 
REMARK    2  A    between atoms: O_1  and  C_21 
REMARK       I    between atoms: N_4  and  C_12 
REMARK       I    between atoms: N_5  and  C_12 
ROOT
HETATM    1  O   UNK N   1      32.525  14.790   2.834  0.00  0.00    -0.247 OA
HETATM    2  N   UNK N   1      31.794  16.078   4.596  0.00  0.00    -0.264 N 
HETATM    3  N   UNK N   1      34.024  15.173   4.379  0.00  0.00    -0.351 N 
HETATM    4  C   UNK N   1      30.398  16.094   4.064  0.00  0.00     0.053 A 
HETATM    5  C   UNK N   1      32.217  16.774   5.830  0.00  0.00     0.050 A 
HETATM    6  C   UNK N   1      29.276  16.835   4.603  0.00  0.00    -0.001 A 
HETATM    7  C   UNK N   1      31.352  17.131   6.903  0.00  0.00    -0.028 A 
HETATM    8  C   UNK N   1      29.350  17.721   5.812  0.00  0.00     0.171 C 
HETATM    9  C   UNK N   1      29.915  16.871   6.893  0.00  0.00     0.078 C 
HETATM   10  C   UNK N   1      32.774  15.342   3.893  0.00  0.00     0.325 C 
HETATM   11  C   UNK N   1      30.099  15.300   2.927  0.00  0.00     0.031 A 
HETATM   12  C   UNK N   1      28.009  16.709   3.996  0.00  0.00     0.012 A 
HETATM   13  C   UNK N   1      33.586  17.103   6.013  0.00  0.00     0.031 A 
HETATM   14  C   UNK N   1      31.853  17.751   8.057  0.00  0.00     0.009 A 
HETATM   15  C   UNK N   1      28.842  15.212   2.343  0.00  0.00     0.002 A 
HETATM   16  C   UNK N   1      27.790  15.919   2.883  0.00  0.00     0.001 A 
HETATM   17  C   UNK N   1      34.076  17.716   7.163  0.00  0.00     0.002 A 
HETATM   18  C   UNK N   1      33.206  18.040   8.190  0.00  0.00     0.001 A 
HETATM   19  H   UNK N   1      34.285  15.597   5.228  0.00  0.00     0.160 HD
HETATM   20  H   UNK N   1      34.675  14.627   3.881  0.00  0.00     0.160 HD
ENDROOT
BRANCH   8  21
HETATM   21  O   UNK N   1      28.107  18.157   6.261  0.00  0.00    -0.311 OA
BRANCH  21  22
HETATM   22  C   UNK N   1      27.848  19.299   6.952  0.00  0.00     0.255 C 
HETATM   23  O   UNK N   1      27.882  19.322   8.172  0.00  0.00    -0.266 OA
HETATM   24  C   UNK N   1      27.550  20.551   6.199  0.00  0.00     0.126 C 
ENDBRANCH  21  22
ENDBRANCH   8  21
TORSDOF 2
ENDMDL
