MODEL 1
REMARK VINA RESULT:      -6.1      0.000      0.000
REMARK  13 active torsions:
REMARK  status: ('A' for Active; 'I' for Inactive)
REMARK    1  A    between atoms: C_3  and  C_2 
REMARK    2  A    between atoms: C_4  and  C_3 
REMARK    3  A    between atoms: C_5  and  C_4 
REMARK    4  A    between atoms: C_6  and  C_5 
REMARK    5  A    between atoms: C_9  and  C_6 
REMARK    6  A    between atoms: C_22  and  C_9 
REMARK    7  A    between atoms: C_19  and  C_17 
REMARK    8  A    between atoms: N_26  and  C_17 
REMARK    9  A    between atoms: C_23  and  C_18 
REMARK   10  A    between atoms: C_23  and  C_19 
REMARK   11  A    between atoms: C_19  and  N_24 
REMARK   12  A    between atoms: C_22  and  O_27 
REMARK   13  A    between atoms: C_23  and  O_28 
ROOT
HETATM    1  C   UNK N   1      29.690  23.716  -3.578  0.00  0.00     0.144 C 
ENDROOT
BRANCH   1   2
HETATM    2  C   UNK N   1      30.632  24.936  -3.474  0.00  0.00     0.300 C 
BRANCH   2   3
HETATM    3  N   UNK N   1      30.815  25.621  -4.749  0.00  0.00     0.090 N 
HETATM    4  C   UNK N   1      30.622  24.640  -5.804  0.00  0.00     0.272 C 
HETATM    5  C   UNK N   1      30.034  25.372  -6.994  0.00  0.00     0.032 C 
HETATM    6  C   UNK N   1      29.543  26.690  -6.443  0.00  0.00     0.032 C 
HETATM    7  C   UNK N   1      29.722  26.558  -4.949  0.00  0.00     0.272 C 
ENDBRANCH   2   3
ENDBRANCH   1   2
BRANCH   1   8
HETATM    8  C   UNK N   1      30.219  22.492  -2.772  0.00  0.00     0.175 C 
BRANCH   8   9
HETATM    9  C   UNK N   1      31.358  21.751  -3.450  0.00  0.00    -0.025 A 
HETATM   10  C   UNK N   1      32.584  21.523  -2.798  0.00  0.00     0.013 A 
HETATM   11  C   UNK N   1      33.603  20.805  -3.439  0.00  0.00     0.040 A 
HETATM   12  C   UNK N   1      33.403  20.309  -4.732  0.00  0.00     0.102 A 
HETATM   13  C   UNK N   1      32.188  20.540  -5.386  0.00  0.00     0.102 A 
HETATM   14  O   UNK N   1      34.369  19.597  -5.357  0.00  0.00    -0.346 OA
HETATM   15  C   UNK N   1      31.173  21.239  -4.746  0.00  0.00     0.049 A 
HETATM   16  O   UNK N   1      32.015  20.089  -6.651  0.00  0.00    -0.346 OA
HETATM   17  C   UNK N   1      33.079  19.625  -7.406  0.00  0.00     0.202 C 
HETATM   18  C   UNK N   1      34.118  18.904  -6.533  0.00  0.00     0.202 C 
ENDBRANCH   8   9
BRANCH   8  19
HETATM   19  O   UNK N   1      30.618  22.909  -1.497  0.00  0.00    -0.389 OA
HETATM   20  H   UNK N   1      29.973  22.998  -0.779  0.00  0.00     0.210 HD
ENDBRANCH   8  19
ENDBRANCH   1   8
BRANCH   1  21
HETATM   21  N   UNK N   1      28.308  24.007  -3.200  0.00  0.00    -0.365 N 
HETATM   22  C   UNK N   1      27.220  24.054  -3.899  0.00  0.00     0.111 C 
ATOM     23  HN  UNK N   1      28.178  24.211  -2.209  1.00  0.00     0.161 HD
BRANCH  22  24
HETATM   24  C   UNK N   1      27.173  23.804  -5.372  0.00  0.00     0.083 C 
BRANCH  24  25
HETATM   25  C   UNK N   1      25.877  24.351  -5.938  0.00  0.00     0.008 C 
BRANCH  25  26
HETATM   26  C   UNK N   1      26.119  25.027  -7.267  0.00  0.00     0.000 C 
BRANCH  26  27
HETATM   27  C   UNK N   1      25.901  26.509  -7.073  0.00  0.00     0.000 C 
BRANCH  27  28
HETATM   28  C   UNK N   1      25.138  26.764  -5.795  0.00  0.00    -0.000 C 
BRANCH  28  29
HETATM   29  C   UNK N   1      25.748  27.963  -5.104  0.00  0.00    -0.005 C 
HETATM   30  C   UNK N   1      25.726  27.751  -3.607  0.00  0.00     0.005 C 
ENDBRANCH  28  29
ENDBRANCH  27  28
ENDBRANCH  26  27
ENDBRANCH  25  26
ENDBRANCH  24  25
ENDBRANCH  22  24
BRANCH  22  31
HETATM   31  O   UNK N   1      26.074  24.392  -3.276  0.00  0.00    -0.350 OA
HETATM   32  H   UNK N   1      25.242  24.252  -3.685  0.00  0.00     0.219 HD
ENDBRANCH  22  31
ENDBRANCH   1  21
TORSDOF 13
ENDMDL
MODEL 2
REMARK VINA RESULT:      -6.0     10.298     13.586
REMARK  13 active torsions:
REMARK  status: ('A' for Active; 'I' for Inactive)
REMARK    1  A    between atoms: C_3  and  C_2 
REMARK    2  A    between atoms: C_4  and  C_3 
REMARK    3  A    between atoms: C_5  and  C_4 
REMARK    4  A    between atoms: C_6  and  C_5 
REMARK    5  A    between atoms: C_9  and  C_6 
REMARK    6  A    between atoms: C_22  and  C_9 
REMARK    7  A    between atoms: C_19  and  C_17 
REMARK    8  A    between atoms: N_26  and  C_17 
REMARK    9  A    between atoms: C_23  and  C_18 
REMARK   10  A    between atoms: C_23  and  C_19 
REMARK   11  A    between atoms: C_19  and  N_24 
REMARK   12  A    between atoms: C_22  and  O_27 
REMARK   13  A    between atoms: C_23  and  O_28 
ROOT
HETATM    1  C   UNK N   1      27.491  18.757   4.839  0.00  0.00     0.144 C 
ENDROOT
BRANCH   1   2
HETATM    2  C   UNK N   1      28.107  19.217   6.179  0.00  0.00     0.300 C 
BRANCH   2   3
HETATM    3  N   UNK N   1      28.224  18.135   7.150  0.00  0.00     0.090 N 
HETATM    4  C   UNK N   1      29.612  17.704   7.160  0.00  0.00     0.272 C 
HETATM    5  C   UNK N   1      29.926  17.236   8.568  0.00  0.00     0.032 C 
HETATM    6  C   UNK N   1      28.806  17.781   9.424  0.00  0.00     0.032 C 
HETATM    7  C   UNK N   1      28.021  18.669   8.487  0.00  0.00     0.272 C 
ENDBRANCH   2   3
ENDBRANCH   1   2
BRANCH   1   8
HETATM    8  C   UNK N   1      26.686  19.893   4.138  0.00  0.00     0.175 C 
BRANCH   8   9
HETATM    9  C   UNK N   1      25.203  19.600   3.995  0.00  0.00    -0.025 A 
HETATM   10  C   UNK N   1      24.581  18.562   4.712  0.00  0.00     0.013 A 
HETATM   11  C   UNK N   1      23.203  18.340   4.585  0.00  0.00     0.040 A 
HETATM   12  C   UNK N   1      22.439  19.154   3.742  0.00  0.00     0.102 A 
HETATM   13  C   UNK N   1      23.055  20.183   3.020  0.00  0.00     0.102 A 
HETATM   14  O   UNK N   1      21.104  18.966   3.622  0.00  0.00    -0.346 OA
HETATM   15  C   UNK N   1      24.418  20.412   3.158  0.00  0.00     0.049 A 
HETATM   16  O   UNK N   1      22.315  20.944   2.179  0.00  0.00    -0.346 OA
HETATM   17  C   UNK N   1      21.027  20.584   1.821  0.00  0.00     0.202 C 
HETATM   18  C   UNK N   1      20.292  19.892   2.981  0.00  0.00     0.202 C 
ENDBRANCH   8   9
BRANCH   8  19
HETATM   19  O   UNK N   1      26.866  21.092   4.837  0.00  0.00    -0.389 OA
HETATM   20  H   UNK N   1      27.595  21.194   5.468  0.00  0.00     0.210 HD
ENDBRANCH   8  19
ENDBRANCH   1   8
BRANCH   1  21
HETATM   21  N   UNK N   1      28.466  18.186   3.911  0.00  0.00    -0.365 N 
HETATM   22  C   UNK N   1      28.571  17.001   3.401  0.00  0.00     0.111 C 
ATOM     23  HN  UNK N   1      29.193  18.837   3.613  1.00  0.00     0.161 HD
BRANCH  22  24
HETATM   24  C   UNK N   1      27.628  15.883   3.706  0.00  0.00     0.083 C 
BRANCH  24  25
HETATM   25  C   UNK N   1      26.428  15.965   2.782  0.00  0.00     0.008 C 
BRANCH  25  26
HETATM   26  C   UNK N   1      25.629  14.684   2.832  0.00  0.00     0.000 C 
BRANCH  26  27
HETATM   27  C   UNK N   1      24.467  14.908   3.772  0.00  0.00     0.000 C 
BRANCH  27  28
HETATM   28  C   UNK N   1      24.726  14.231   5.097  0.00  0.00    -0.000 C 
BRANCH  28  29
HETATM   29  C   UNK N   1      24.664  15.277   6.188  0.00  0.00    -0.005 C 
HETATM   30  C   UNK N   1      25.965  15.283   6.960  0.00  0.00     0.005 C 
ENDBRANCH  28  29
ENDBRANCH  27  28
ENDBRANCH  26  27
ENDBRANCH  25  26
ENDBRANCH  24  25
ENDBRANCH  22  24
BRANCH  22  31
HETATM   31  O   UNK N   1      29.614  16.746   2.587  0.00  0.00    -0.350 OA
HETATM   32  H   UNK N   1      29.952  17.406   2.013  0.00  0.00     0.219 HD
ENDBRANCH  22  31
ENDBRANCH   1  21
TORSDOF 13
ENDMDL
MODEL 3
REMARK VINA RESULT:      -6.0     13.028     15.924
REMARK  13 active torsions:
REMARK  status: ('A' for Active; 'I' for Inactive)
REMARK    1  A    between atoms: C_3  and  C_2 
REMARK    2  A    between atoms: C_4  and  C_3 
REMARK    3  A    between atoms: C_5  and  C_4 
REMARK    4  A    between atoms: C_6  and  C_5 
REMARK    5  A    between atoms: C_9  and  C_6 
REMARK    6  A    between atoms: C_22  and  C_9 
REMARK    7  A    between atoms: C_19  and  C_17 
REMARK    8  A    between atoms: N_26  and  C_17 
REMARK    9  A    between atoms: C_23  and  C_18 
REMARK   10  A    between atoms: C_23  and  C_19 
REMARK   11  A    between atoms: C_19  and  N_24 
REMARK   12  A    between atoms: C_22  and  O_27 
REMARK   13  A    between atoms: C_23  and  O_28 
ROOT
HETATM    1  C   UNK N   1      21.640  14.823   6.518  0.00  0.00     0.144 C 
ENDROOT
BRANCH   1   2
HETATM    2  C   UNK N   1      21.165  13.713   7.481  0.00  0.00     0.300 C 
BRANCH   2   3
HETATM    3  N   UNK N   1      22.094  13.484   8.582  0.00  0.00     0.090 N 
HETATM    4  C   UNK N   1      21.330  13.543   9.818  0.00  0.00     0.272 C 
HETATM    5  C   UNK N   1      21.990  12.593  10.798  0.00  0.00     0.032 C 
HETATM    6  C   UNK N   1      22.892  11.720   9.956  0.00  0.00     0.032 C 
HETATM    7  C   UNK N   1      22.561  12.108   8.534  0.00  0.00     0.272 C 
ENDBRANCH   2   3
ENDBRANCH   1   2
BRANCH   1   8
HETATM    8  C   UNK N   1      20.626  16.005   6.433  0.00  0.00     0.175 C 
BRANCH   8   9
HETATM    9  C   UNK N   1      20.630  16.726   5.096  0.00  0.00    -0.025 A 
HETATM   10  C   UNK N   1      20.164  16.108   3.921  0.00  0.00     0.013 A 
HETATM   11  C   UNK N   1      20.147  16.814   2.710  0.00  0.00     0.040 A 
HETATM   12  C   UNK N   1      20.593  18.139   2.666  0.00  0.00     0.102 A 
HETATM   13  C   UNK N   1      21.063  18.755   3.831  0.00  0.00     0.102 A 
HETATM   14  O   UNK N   1      20.564  18.840   1.510  0.00  0.00    -0.346 OA
HETATM   15  C   UNK N   1      21.066  18.060   5.034  0.00  0.00     0.049 A 
HETATM   16  O   UNK N   1      21.527  20.026   3.774  0.00  0.00    -0.346 OA
HETATM   17  C   UNK N   1      21.781  20.649   2.565  0.00  0.00     0.202 C 
HETATM   18  C   UNK N   1      20.780  20.212   1.483  0.00  0.00     0.202 C 
ENDBRANCH   8   9
BRANCH   8  19
HETATM   19  O   UNK N   1      19.338  15.536   6.713  0.00  0.00    -0.389 OA
HETATM   20  H   UNK N   1      19.059  15.368   7.627  0.00  0.00     0.210 HD
ENDBRANCH   8  19
ENDBRANCH   1   8
BRANCH   1  21
HETATM   21  N   UNK N   1      22.977  15.331   6.819  0.00  0.00    -0.365 N 
HETATM   22  C   UNK N   1      24.027  15.475   6.077  0.00  0.00     0.111 C 
ATOM     23  HN  UNK N   1      23.106  15.622   7.789  1.00  0.00     0.161 HD
BRANCH  22  24
HETATM   24  C   UNK N   1      24.073  15.101   4.630  0.00  0.00     0.083 C 
BRANCH  24  25
HETATM   25  C   UNK N   1      24.095  16.358   3.782  0.00  0.00     0.008 C 
BRANCH  25  26
HETATM   26  C   UNK N   1      25.461  16.563   3.170  0.00  0.00     0.000 C 
BRANCH  26  27
HETATM   27  C   UNK N   1      25.979  17.901   3.645  0.00  0.00     0.000 C 
BRANCH  27  28
HETATM   28  C   UNK N   1      24.854  18.721   4.229  0.00  0.00    -0.000 C 
BRANCH  28  29
HETATM   29  C   UNK N   1      25.199  20.186   4.075  0.00  0.00    -0.005 C 
HETATM   30  C   UNK N   1      25.529  20.480   2.629  0.00  0.00     0.005 C 
ENDBRANCH  28  29
ENDBRANCH  27  28
ENDBRANCH  26  27
ENDBRANCH  25  26
ENDBRANCH  24  25
ENDBRANCH  22  24
BRANCH  22  31
HETATM   31  O   UNK N   1      25.155  15.943   6.647  0.00  0.00    -0.350 OA
HETATM   32  H   UNK N   1      25.708  15.382   7.154  0.00  0.00     0.219 HD
ENDBRANCH  22  31
ENDBRANCH   1  21
TORSDOF 13
ENDMDL
MODEL 4
REMARK VINA RESULT:      -6.0     16.664     20.408
REMARK  13 active torsions:
REMARK  status: ('A' for Active; 'I' for Inactive)
REMARK    1  A    between atoms: C_3  and  C_2 
REMARK    2  A    between atoms: C_4  and  C_3 
REMARK    3  A    between atoms: C_5  and  C_4 
REMARK    4  A    between atoms: C_6  and  C_5 
REMARK    5  A    between atoms: C_9  and  C_6 
REMARK    6  A    between atoms: C_22  and  C_9 
REMARK    7  A    between atoms: C_19  and  C_17 
REMARK    8  A    between atoms: N_26  and  C_17 
REMARK    9  A    between atoms: C_23  and  C_18 
REMARK   10  A    between atoms: C_23  and  C_19 
REMARK   11  A    between atoms: C_19  and  N_24 
REMARK   12  A    between atoms: C_22  and  O_27 
REMARK   13  A    between atoms: C_23  and  O_28 
ROOT
HETATM    1  C   UNK N   1      35.887  14.763  11.046  0.00  0.00     0.144 C 
ENDROOT
BRANCH   1   2
HETATM    2  C   UNK N   1      35.715  13.274  10.674  0.00  0.00     0.300 C 
BRANCH   2   3
HETATM    3  N   UNK N   1      36.745  12.795   9.759  0.00  0.00     0.090 N 
HETATM    4  C   UNK N   1      37.215  13.937   8.993  0.00  0.00     0.272 C 
HETATM    5  C   UNK N   1      38.679  13.695   8.680  0.00  0.00     0.032 C 
HETATM    6  C   UNK N   1      39.105  12.590   9.619  0.00  0.00     0.032 C 
HETATM    7  C   UNK N   1      37.913  12.392  10.525  0.00  0.00     0.272 C 
ENDBRANCH   2   3
ENDBRANCH   1   2
BRANCH   1   8
HETATM    8  C   UNK N   1      34.548  15.555  10.948  0.00  0.00     0.175 C 
BRANCH   8   9
HETATM    9  C   UNK N   1      34.315  16.209   9.597  0.00  0.00    -0.025 A 
HETATM   10  C   UNK N   1      34.762  17.513   9.320  0.00  0.00     0.013 A 
HETATM   11  C   UNK N   1      34.563  18.075   8.051  0.00  0.00     0.040 A 
HETATM   12  C   UNK N   1      33.918  17.336   7.053  0.00  0.00     0.102 A 
HETATM   13  C   UNK N   1      33.466  16.041   7.327  0.00  0.00     0.102 A 
HETATM   14  O   UNK N   1      33.735  17.856   5.817  0.00  0.00    -0.346 OA
HETATM   15  C   UNK N   1      33.676  15.479   8.580  0.00  0.00     0.049 A 
HETATM   16  O   UNK N   1      32.811  15.346   6.367  0.00  0.00    -0.346 OA
HETATM   17  C   UNK N   1      32.357  15.959   5.212  0.00  0.00     0.202 C 
HETATM   18  C   UNK N   1      33.312  17.072   4.752  0.00  0.00     0.202 C 
ENDBRANCH   8   9
BRANCH   8  19
HETATM   19  O   UNK N   1      33.479  14.705  11.253  0.00  0.00    -0.389 OA
HETATM   20  H   UNK N   1      32.940  14.851  12.046  0.00  0.00     0.210 HD
ENDBRANCH   8  19
ENDBRANCH   1   8
BRANCH   1  21
HETATM   21  N   UNK N   1      36.500  14.974  12.356  0.00  0.00    -0.365 N 
HETATM   22  C   UNK N   1      36.375  14.333  13.474  0.00  0.00     0.111 C 
ATOM     23  HN  UNK N   1      37.140  15.768  12.397  1.00  0.00     0.161 HD
BRANCH  22  24
HETATM   24  C   UNK N   1      35.483  13.147  13.651  0.00  0.00     0.083 C 
BRANCH  24  25
HETATM   25  C   UNK N   1      35.092  13.021  15.111  0.00  0.00     0.008 C 
BRANCH  25  26
HETATM   26  C   UNK N   1      35.559  11.700  15.675  0.00  0.00     0.000 C 
BRANCH  26  27
HETATM   27  C   UNK N   1      35.545  11.815  17.181  0.00  0.00     0.000 C 
BRANCH  27  28
HETATM   28  C   UNK N   1      35.099  13.196  17.598  0.00  0.00    -0.000 C 
BRANCH  28  29
HETATM   29  C   UNK N   1      35.147  13.280  19.107  0.00  0.00    -0.005 C 
HETATM   30  C   UNK N   1      35.389  11.903  19.684  0.00  0.00     0.005 C 
ENDBRANCH  28  29
ENDBRANCH  27  28
ENDBRANCH  26  27
ENDBRANCH  25  26
ENDBRANCH  24  25
ENDBRANCH  22  24
BRANCH  22  31
HETATM   31  O   UNK N   1      37.049  14.787  14.549  0.00  0.00    -0.350 OA
HETATM   32  H   UNK N   1      37.982  14.717  14.600  0.00  0.00     0.219 HD
ENDBRANCH  22  31
ENDBRANCH   1  21
TORSDOF 13
ENDMDL
MODEL 5
REMARK VINA RESULT:      -5.9      2.580      5.129
REMARK  13 active torsions:
REMARK  status: ('A' for Active; 'I' for Inactive)
REMARK    1  A    between atoms: C_3  and  C_2 
REMARK    2  A    between atoms: C_4  and  C_3 
REMARK    3  A    between atoms: C_5  and  C_4 
REMARK    4  A    between atoms: C_6  and  C_5 
REMARK    5  A    between atoms: C_9  and  C_6 
REMARK    6  A    between atoms: C_22  and  C_9 
REMARK    7  A    between atoms: C_19  and  C_17 
REMARK    8  A    between atoms: N_26  and  C_17 
REMARK    9  A    between atoms: C_23  and  C_18 
REMARK   10  A    between atoms: C_23  and  C_19 
REMARK   11  A    between atoms: C_19  and  N_24 
REMARK   12  A    between atoms: C_22  and  O_27 
REMARK   13  A    between atoms: C_23  and  O_28 
ROOT
HETATM    1  C   UNK N   1      25.972  25.087  -5.134  0.00  0.00     0.144 C 
ENDROOT
BRANCH   1   2
HETATM    2  C   UNK N   1      25.222  26.427  -5.301  0.00  0.00     0.300 C 
BRANCH   2   3
HETATM    3  N   UNK N   1      25.844  27.306  -6.285  0.00  0.00     0.090 N 
HETATM    4  C   UNK N   1      26.689  28.243  -5.563  0.00  0.00     0.272 C 
HETATM    5  C   UNK N   1      27.861  28.577  -6.466  0.00  0.00     0.032 C 
HETATM    6  C   UNK N   1      27.850  27.510  -7.536  0.00  0.00     0.032 C 
HETATM    7  C   UNK N   1      26.786  26.538  -7.082  0.00  0.00     0.272 C 
ENDBRANCH   2   3
ENDBRANCH   1   2
BRANCH   1   8
HETATM    8  C   UNK N   1      26.434  24.848  -3.665  0.00  0.00     0.175 C 
BRANCH   8   9
HETATM    9  C   UNK N   1      27.851  24.314  -3.543  0.00  0.00    -0.025 A 
HETATM   10  C   UNK N   1      28.218  23.418  -2.523  0.00  0.00     0.013 A 
HETATM   11  C   UNK N   1      29.525  22.915  -2.459  0.00  0.00     0.040 A 
HETATM   12  C   UNK N   1      30.471  23.303  -3.414  0.00  0.00     0.102 A 
HETATM   13  C   UNK N   1      30.112  24.200  -4.427  0.00  0.00     0.102 A 
HETATM   14  O   UNK N   1      31.731  22.812  -3.379  0.00  0.00    -0.346 OA
HETATM   15  C   UNK N   1      28.812  24.687  -4.498  0.00  0.00     0.049 A 
HETATM   16  O   UNK N   1      31.042  24.599  -5.326  0.00  0.00    -0.346 OA
HETATM   17  C   UNK N   1      32.389  24.346  -5.134  0.00  0.00     0.202 C 
HETATM   18  C   UNK N   1      32.615  22.996  -4.434  0.00  0.00     0.202 C 
ENDBRANCH   8   9
BRANCH   8  19
HETATM   19  O   UNK N   1      26.313  26.038  -2.937  0.00  0.00    -0.389 OA
HETATM   20  H   UNK N   1      26.117  26.020  -1.988  0.00  0.00     0.210 HD
ENDBRANCH   8  19
ENDBRANCH   1   8
BRANCH   1  21
HETATM   21  N   UNK N   1      25.221  23.930  -5.618  0.00  0.00    -0.365 N 
HETATM   22  C   UNK N   1      25.568  22.937  -6.372  0.00  0.00     0.111 C 
ATOM     23  HN  UNK N   1      24.249  23.901  -5.307  1.00  0.00     0.161 HD
BRANCH  22  24
HETATM   24  C   UNK N   1      26.936  22.781  -6.954  0.00  0.00     0.083 C 
BRANCH  24  25
HETATM   25  C   UNK N   1      26.836  22.684  -8.464  0.00  0.00     0.008 C 
BRANCH  25  26
HETATM   26  C   UNK N   1      27.779  21.630  -8.993  0.00  0.00     0.000 C 
BRANCH  26  27
HETATM   27  C   UNK N   1      28.131  20.713  -7.845  0.00  0.00     0.000 C 
BRANCH  27  28
HETATM   28  C   UNK N   1      29.252  19.782  -8.241  0.00  0.00    -0.000 C 
BRANCH  28  29
HETATM   29  C   UNK N   1      30.189  19.633  -7.063  0.00  0.00    -0.005 C 
HETATM   30  C   UNK N   1      30.064  20.839  -6.160  0.00  0.00     0.005 C 
ENDBRANCH  28  29
ENDBRANCH  27  28
ENDBRANCH  26  27
ENDBRANCH  25  26
ENDBRANCH  24  25
ENDBRANCH  22  24
BRANCH  22  31
HETATM   31  O   UNK N   1      24.635  22.019  -6.690  0.00  0.00    -0.350 OA
HETATM   32  H   UNK N   1      23.723  22.187  -6.550  0.00  0.00     0.219 HD
ENDBRANCH  22  31
ENDBRANCH   1  21
TORSDOF 13
ENDMDL
MODEL 6
REMARK VINA RESULT:      -5.9     10.185     13.808
REMARK  13 active torsions:
REMARK  status: ('A' for Active; 'I' for Inactive)
REMARK    1  A    between atoms: C_3  and  C_2 
REMARK    2  A    between atoms: C_4  and  C_3 
REMARK    3  A    between atoms: C_5  and  C_4 
REMARK    4  A    between atoms: C_6  and  C_5 
REMARK    5  A    between atoms: C_9  and  C_6 
REMARK    6  A    between atoms: C_22  and  C_9 
REMARK    7  A    between atoms: C_19  and  C_17 
REMARK    8  A    between atoms: N_26  and  C_17 
REMARK    9  A    between atoms: C_23  and  C_18 
REMARK   10  A    between atoms: C_23  and  C_19 
REMARK   11  A    between atoms: C_19  and  N_24 
REMARK   12  A    between atoms: C_22  and  O_27 
REMARK   13  A    between atoms: C_23  and  O_28 
ROOT
HETATM    1  C   UNK N   1      27.592  17.117   3.791  0.00  0.00     0.144 C 
ENDROOT
BRANCH   1   2
HETATM    2  C   UNK N   1      27.394  15.617   4.102  0.00  0.00     0.300 C 
BRANCH   2   3
HETATM    3  N   UNK N   1      26.923  14.856   2.951  0.00  0.00     0.090 N 
HETATM    4  C   UNK N   1      26.058  13.800   3.449  0.00  0.00     0.272 C 
HETATM    5  C   UNK N   1      25.004  13.546   2.388  0.00  0.00     0.032 C 
HETATM    6  C   UNK N   1      25.069  14.747   1.472  0.00  0.00     0.032 C 
HETATM    7  C   UNK N   1      26.029  15.688   2.162  0.00  0.00     0.272 C 
ENDBRANCH   2   3
ENDBRANCH   1   2
BRANCH   1   8
HETATM    8  C   UNK N   1      26.869  18.035   4.823  0.00  0.00     0.175 C 
BRANCH   8   9
HETATM    9  C   UNK N   1      25.747  18.868   4.228  0.00  0.00    -0.025 A 
HETATM   10  C   UNK N   1      26.007  20.018   3.459  0.00  0.00     0.013 A 
HETATM   11  C   UNK N   1      24.951  20.745   2.894  0.00  0.00     0.040 A 
HETATM   12  C   UNK N   1      23.630  20.327   3.092  0.00  0.00     0.102 A 
HETATM   13  C   UNK N   1      23.367  19.188   3.862  0.00  0.00     0.102 A 
HETATM   14  O   UNK N   1      22.600  21.006   2.537  0.00  0.00    -0.346 OA
HETATM   15  C   UNK N   1      24.415  18.460   4.409  0.00  0.00     0.049 A 
HETATM   16  O   UNK N   1      22.085  18.811   4.079  0.00  0.00    -0.346 OA
HETATM   17  C   UNK N   1      21.023  19.647   3.775  0.00  0.00     0.202 C 
HETATM   18  C   UNK N   1      21.310  20.491   2.523  0.00  0.00     0.202 C 
ENDBRANCH   8   9
BRANCH   8  19
HETATM   19  O   UNK N   1      26.374  17.256   5.874  0.00  0.00    -0.389 OA
HETATM   20  H   UNK N   1      26.944  17.008   6.619  0.00  0.00     0.210 HD
ENDBRANCH   8  19
ENDBRANCH   1   8
BRANCH   1  21
HETATM   21  N   UNK N   1      28.994  17.510   3.665  0.00  0.00    -0.365 N 
HETATM   22  C   UNK N   1      29.981  17.446   4.500  0.00  0.00     0.111 C 
ATOM     23  HN  UNK N   1      29.239  17.908   2.757  1.00  0.00     0.161 HD
BRANCH  22  24
HETATM   24  C   UNK N   1      29.853  16.913   5.890  0.00  0.00     0.083 C 
BRANCH  24  25
HETATM   25  C   UNK N   1      31.225  16.548   6.422  0.00  0.00     0.008 C 
BRANCH  25  26
HETATM   26  C   UNK N   1      31.615  17.461   7.560  0.00  0.00     0.000 C 
BRANCH  26  27
HETATM   27  C   UNK N   1      30.647  17.219   8.694  0.00  0.00     0.000 C 
BRANCH  27  28
HETATM   28  C   UNK N   1      30.137  18.532   9.239  0.00  0.00    -0.000 C 
BRANCH  28  29
HETATM   29  C   UNK N   1      28.668  18.652   8.901  0.00  0.00    -0.005 C 
HETATM   30  C   UNK N   1      27.976  17.335   9.169  0.00  0.00     0.005 C 
ENDBRANCH  28  29
ENDBRANCH  27  28
ENDBRANCH  26  27
ENDBRANCH  25  26
ENDBRANCH  24  25
ENDBRANCH  22  24
BRANCH  22  31
HETATM   31  O   UNK N   1      31.178  17.928   4.113  0.00  0.00    -0.350 OA
HETATM   32  H   UNK N   1      31.256  18.780   3.730  0.00  0.00     0.219 HD
ENDBRANCH  22  31
ENDBRANCH   1  21
TORSDOF 13
ENDMDL
MODEL 7
REMARK VINA RESULT:      -5.9     11.743     15.587
REMARK  13 active torsions:
REMARK  status: ('A' for Active; 'I' for Inactive)
REMARK    1  A    between atoms: C_3  and  C_2 
REMARK    2  A    between atoms: C_4  and  C_3 
REMARK    3  A    between atoms: C_5  and  C_4 
REMARK    4  A    between atoms: C_6  and  C_5 
REMARK    5  A    between atoms: C_9  and  C_6 
REMARK    6  A    between atoms: C_22  and  C_9 
REMARK    7  A    between atoms: C_19  and  C_17 
REMARK    8  A    between atoms: N_26  and  C_17 
REMARK    9  A    between atoms: C_23  and  C_18 
REMARK   10  A    between atoms: C_23  and  C_19 
REMARK   11  A    between atoms: C_19  and  N_24 
REMARK   12  A    between atoms: C_22  and  O_27 
REMARK   13  A    between atoms: C_23  and  O_28 
ROOT
HETATM    1  C   UNK N   1      31.965  16.649   8.675  0.00  0.00     0.144 C 
ENDROOT
BRANCH   1   2
HETATM    2  C   UNK N   1      32.169  15.390   9.547  0.00  0.00     0.300 C 
BRANCH   2   3
HETATM    3  N   UNK N   1      33.526  14.859   9.467  0.00  0.00     0.090 N 
HETATM    4  C   UNK N   1      34.067  14.838  10.816  0.00  0.00     0.272 C 
HETATM    5  C   UNK N   1      35.020  13.661  10.897  0.00  0.00     0.032 C 
HETATM    6  C   UNK N   1      34.696  12.807   9.693  0.00  0.00     0.032 C 
HETATM    7  C   UNK N   1      33.467  13.454   9.099  0.00  0.00     0.272 C 
ENDBRANCH   2   3
ENDBRANCH   1   2
BRANCH   1   8
HETATM    8  C   UNK N   1      30.699  17.457   9.092  0.00  0.00     0.175 C 
BRANCH   8   9
HETATM    9  C   UNK N   1      29.814  17.862   7.926  0.00  0.00    -0.025 A 
HETATM   10  C   UNK N   1      29.912  17.236   6.671  0.00  0.00     0.013 A 
HETATM   11  C   UNK N   1      29.056  17.608   5.625  0.00  0.00     0.040 A 
HETATM   12  C   UNK N   1      28.097  18.606   5.829  0.00  0.00     0.102 A 
HETATM   13  C   UNK N   1      28.000  19.236   7.074  0.00  0.00     0.102 A 
HETATM   14  O   UNK N   1      27.250  18.964   4.836  0.00  0.00    -0.346 OA
HETATM   15  C   UNK N   1      28.839  18.857   8.114  0.00  0.00     0.049 A 
HETATM   16  O   UNK N   1      27.094  20.226   7.253  0.00  0.00    -0.346 OA
HETATM   17  C   UNK N   1      26.432  20.803   6.183  0.00  0.00     0.202 C 
HETATM   18  C   UNK N   1      26.149  19.776   5.075  0.00  0.00     0.202 C 
ENDBRANCH   8   9
BRANCH   8  19
HETATM   19  O   UNK N   1      29.954  16.715  10.016  0.00  0.00    -0.389 OA
HETATM   20  H   UNK N   1      29.009  16.551   9.874  0.00  0.00     0.210 HD
ENDBRANCH   8  19
ENDBRANCH   1   8
BRANCH   1  21
HETATM   21  N   UNK N   1      33.131  17.530   8.633  0.00  0.00    -0.365 N 
HETATM   22  C   UNK N   1      33.862  17.937   7.646  0.00  0.00     0.111 C 
ATOM     23  HN  UNK N   1      33.421  17.885   9.544  1.00  0.00     0.161 HD
BRANCH  22  24
HETATM   24  C   UNK N   1      33.631  17.533   6.225  0.00  0.00     0.083 C 
BRANCH  24  25
HETATM   25  C   UNK N   1      34.455  16.299   5.909  0.00  0.00     0.008 C 
BRANCH  25  26
HETATM   26  C   UNK N   1      33.571  15.079   5.813  0.00  0.00     0.000 C 
BRANCH  26  27
HETATM   27  C   UNK N   1      33.106  14.963   4.380  0.00  0.00     0.000 C 
BRANCH  27  28
HETATM   28  C   UNK N   1      31.601  15.060   4.307  0.00  0.00    -0.000 C 
BRANCH  28  29
HETATM   29  C   UNK N   1      31.232  15.854   3.073  0.00  0.00    -0.005 C 
HETATM   30  C   UNK N   1      32.134  17.063   2.959  0.00  0.00     0.005 C 
ENDBRANCH  28  29
ENDBRANCH  27  28
ENDBRANCH  26  27
ENDBRANCH  25  26
ENDBRANCH  24  25
ENDBRANCH  22  24
BRANCH  22  31
HETATM   31  O   UNK N   1      34.917  18.731   7.916  0.00  0.00    -0.350 OA
HETATM   32  H   UNK N   1      34.810  19.655   8.029  0.00  0.00     0.219 HD
ENDBRANCH  22  31
ENDBRANCH   1  21
TORSDOF 13
ENDMDL
MODEL 8
REMARK VINA RESULT:      -5.9     12.787     15.267
REMARK  13 active torsions:
REMARK  status: ('A' for Active; 'I' for Inactive)
REMARK    1  A    between atoms: C_3  and  C_2 
REMARK    2  A    between atoms: C_4  and  C_3 
REMARK    3  A    between atoms: C_5  and  C_4 
REMARK    4  A    between atoms: C_6  and  C_5 
REMARK    5  A    between atoms: C_9  and  C_6 
REMARK    6  A    between atoms: C_22  and  C_9 
REMARK    7  A    between atoms: C_19  and  C_17 
REMARK    8  A    between atoms: N_26  and  C_17 
REMARK    9  A    between atoms: C_23  and  C_18 
REMARK   10  A    between atoms: C_23  and  C_19 
REMARK   11  A    between atoms: C_19  and  N_24 
REMARK   12  A    between atoms: C_22  and  O_27 
REMARK   13  A    between atoms: C_23  and  O_28 
ROOT
HETATM    1  C   UNK N   1      20.679  17.062   3.818  0.00  0.00     0.144 C 
ENDROOT
BRANCH   1   2
HETATM    2  C   UNK N   1      20.907  16.565   2.374  0.00  0.00     0.300 C 
BRANCH   2   3
HETATM    3  N   UNK N   1      21.435  15.206   2.319  0.00  0.00     0.090 N 
HETATM    4  C   UNK N   1      21.374  14.769   0.934  0.00  0.00     0.272 C 
HETATM    5  C   UNK N   1      22.539  13.825   0.710  0.00  0.00     0.032 C 
HETATM    6  C   UNK N   1      23.465  14.056   1.883  0.00  0.00     0.032 C 
HETATM    7  C   UNK N   1      22.860  15.236   2.606  0.00  0.00     0.272 C 
ENDBRANCH   2   3
ENDBRANCH   1   2
BRANCH   1   8
HETATM    8  C   UNK N   1      20.863  18.605   3.947  0.00  0.00     0.175 C 
BRANCH   8   9
HETATM    9  C   UNK N   1      22.294  19.074   3.751  0.00  0.00    -0.025 A 
HETATM   10  C   UNK N   1      22.606  20.166   2.921  0.00  0.00     0.013 A 
HETATM   11  C   UNK N   1      23.933  20.598   2.789  0.00  0.00     0.040 A 
HETATM   12  C   UNK N   1      24.954  19.943   3.486  0.00  0.00     0.102 A 
HETATM   13  C   UNK N   1      24.648  18.851   4.307  0.00  0.00     0.102 A 
HETATM   14  O   UNK N   1      26.237  20.358   3.385  0.00  0.00    -0.346 OA
HETATM   15  C   UNK N   1      23.331  18.433   4.449  0.00  0.00     0.049 A 
HETATM   16  O   UNK N   1      25.646  18.200   4.950  0.00  0.00    -0.346 OA
HETATM   17  C   UNK N   1      26.975  18.418   4.632  0.00  0.00     0.202 C 
HETATM   18  C   UNK N   1      27.227  19.881   4.233  0.00  0.00     0.202 C 
ENDBRANCH   8   9
BRANCH   8  19
HETATM   19  O   UNK N   1      20.022  19.254   3.036  0.00  0.00    -0.389 OA
HETATM   20  H   UNK N   1      20.010  20.221   2.974  0.00  0.00     0.210 HD
ENDBRANCH   8  19
ENDBRANCH   1   8
BRANCH   1  21
HETATM   21  N   UNK N   1      19.390  16.662   4.380  0.00  0.00    -0.365 N 
HETATM   22  C   UNK N   1      19.090  16.007   5.456  0.00  0.00     0.111 C 
ATOM     23  HN  UNK N   1      18.583  16.948   3.825  1.00  0.00     0.161 HD
BRANCH  22  24
HETATM   24  C   UNK N   1      20.110  15.477   6.411  0.00  0.00     0.083 C 
BRANCH  24  25
HETATM   25  C   UNK N   1      20.375  16.508   7.492  0.00  0.00     0.008 C 
BRANCH  25  26
HETATM   26  C   UNK N   1      20.119  15.922   8.860  0.00  0.00     0.000 C 
BRANCH  26  27
HETATM   27  C   UNK N   1      20.409  14.441   8.786  0.00  0.00     0.000 C 
BRANCH  27  28
HETATM   28  C   UNK N   1      21.522  14.075   9.738  0.00  0.00    -0.000 C 
BRANCH  28  29
HETATM   29  C   UNK N   1      21.322  12.643  10.181  0.00  0.00    -0.005 C 
HETATM   30  C   UNK N   1      22.471  12.221  11.070  0.00  0.00     0.005 C 
ENDBRANCH  28  29
ENDBRANCH  27  28
ENDBRANCH  26  27
ENDBRANCH  25  26
ENDBRANCH  24  25
ENDBRANCH  22  24
BRANCH  22  31
HETATM   31  O   UNK N   1      17.792  15.747   5.705  0.00  0.00    -0.350 OA
HETATM   32  H   UNK N   1      17.508  14.884   5.938  0.00  0.00     0.219 HD
ENDBRANCH  22  31
ENDBRANCH   1  21
TORSDOF 13
ENDMDL
MODEL 9
REMARK VINA RESULT:      -5.8      2.299      5.365
REMARK  13 active torsions:
REMARK  status: ('A' for Active; 'I' for Inactive)
REMARK    1  A    between atoms: C_3  and  C_2 
REMARK    2  A    between atoms: C_4  and  C_3 
REMARK    3  A    between atoms: C_5  and  C_4 
REMARK    4  A    between atoms: C_6  and  C_5 
REMARK    5  A    between atoms: C_9  and  C_6 
REMARK    6  A    between atoms: C_22  and  C_9 
REMARK    7  A    between atoms: C_19  and  C_17 
REMARK    8  A    between atoms: N_26  and  C_17 
REMARK    9  A    between atoms: C_23  and  C_18 
REMARK   10  A    between atoms: C_23  and  C_19 
REMARK   11  A    between atoms: C_19  and  N_24 
REMARK   12  A    between atoms: C_22  and  O_27 
REMARK   13  A    between atoms: C_23  and  O_28 
ROOT
HETATM    1  C   UNK N   1      30.298  24.226  -3.650  0.00  0.00     0.144 C 
ENDROOT
BRANCH   1   2
HETATM    2  C   UNK N   1      31.155  23.055  -3.122  0.00  0.00     0.300 C 
BRANCH   2   3
HETATM    3  N   UNK N   1      31.605  22.159  -4.182  0.00  0.00     0.090 N 
HETATM    4  C   UNK N   1      32.926  21.676  -3.815  0.00  0.00     0.272 C 
HETATM    5  C   UNK N   1      33.061  20.273  -4.374  0.00  0.00     0.032 C 
HETATM    6  C   UNK N   1      31.652  19.847  -4.715  0.00  0.00     0.032 C 
HETATM    7  C   UNK N   1      30.785  20.958  -4.170  0.00  0.00     0.272 C 
ENDBRANCH   2   3
ENDBRANCH   1   2
BRANCH   1   8
HETATM    8  C   UNK N   1      28.815  24.133  -3.177  0.00  0.00     0.175 C 
BRANCH   8   9
HETATM    9  C   UNK N   1      27.816  23.965  -4.309  0.00  0.00    -0.025 A 
HETATM   10  C   UNK N   1      26.460  24.306  -4.154  0.00  0.00     0.013 A 
HETATM   11  C   UNK N   1      25.570  24.173  -5.228  0.00  0.00     0.040 A 
HETATM   12  C   UNK N   1      26.029  23.702  -6.463  0.00  0.00     0.102 A 
HETATM   13  C   UNK N   1      27.376  23.355  -6.619  0.00  0.00     0.102 A 
HETATM   14  O   UNK N   1      25.188  23.586  -7.516  0.00  0.00    -0.346 OA
HETATM   15  C   UNK N   1      28.261  23.501  -5.558  0.00  0.00     0.049 A 
HETATM   16  O   UNK N   1      27.806  22.865  -7.806  0.00  0.00    -0.346 OA
HETATM   17  C   UNK N   1      26.917  22.465  -8.788  0.00  0.00     0.202 C 
HETATM   18  C   UNK N   1      25.656  23.345  -8.801  0.00  0.00     0.202 C 
ENDBRANCH   8   9
BRANCH   8  19
HETATM   19  O   UNK N   1      28.681  23.079  -2.267  0.00  0.00    -0.389 OA
HETATM   20  H   UNK N   1      29.015  22.194  -2.480  0.00  0.00     0.210 HD
ENDBRANCH   8  19
ENDBRANCH   1   8
BRANCH   1  21
HETATM   21  N   UNK N   1      30.844  25.545  -3.332  0.00  0.00    -0.365 N 
HETATM   22  C   UNK N   1      30.915  26.634  -4.027  0.00  0.00     0.111 C 
ATOM     23  HN  UNK N   1      31.241  25.619  -2.395  1.00  0.00     0.161 HD
BRANCH  22  24
HETATM   24  C   UNK N   1      30.410  26.754  -5.428  0.00  0.00     0.083 C 
BRANCH  24  25
HETATM   25  C   UNK N   1      29.003  27.321  -5.414  0.00  0.00     0.008 C 
BRANCH  25  26
HETATM   26  C   UNK N   1      28.295  27.021  -6.714  0.00  0.00     0.000 C 
BRANCH  26  27
HETATM   27  C   UNK N   1      26.836  27.368  -6.530  0.00  0.00     0.000 C 
BRANCH  27  28
HETATM   28  C   UNK N   1      26.674  28.386  -5.426  0.00  0.00    -0.000 C 
BRANCH  28  29
HETATM   29  C   UNK N   1      25.482  27.992  -4.582  0.00  0.00    -0.005 C 
HETATM   30  C   UNK N   1      25.942  27.651  -3.183  0.00  0.00     0.005 C 
ENDBRANCH  28  29
ENDBRANCH  27  28
ENDBRANCH  26  27
ENDBRANCH  25  26
ENDBRANCH  24  25
ENDBRANCH  22  24
BRANCH  22  31
HETATM   31  O   UNK N   1      31.518  27.706  -3.477  0.00  0.00    -0.350 OA
HETATM   32  H   UNK N   1      31.094  28.541  -3.455  0.00  0.00     0.219 HD
ENDBRANCH  22  31
ENDBRANCH   1  21
TORSDOF 13
ENDMDL
