MODEL 1
REMARK VINA RESULT:      -4.9      0.000      0.000
REMARK WARNING: 32 MAX_TORS EXCEEDED!!!
REMARK  40 active torsions:
REMARK  status: ('A' for Active; 'I' for Inactive)
REMARK    1  A    between atoms: C_1  and  C_2 
REMARK    2  A    between atoms: C_1  and  N_26 
REMARK    3  A    between atoms: C_2  and  O_3 
REMARK    4  A    between atoms: O_3  and  P_4 
REMARK    5  A    between atoms: P_4  and  O_5 
REMARK    6  A    between atoms: O_5  and  C_6 
REMARK    7  A    between atoms: C_6  and  C_7 
REMARK    8  A    between atoms: C_7  and  C_8 
REMARK    9  A    between atoms: C_7  and  O_28 
REMARK   10  A    between atoms: C_8  and  O_9 
REMARK   11  A    between atoms: O_9  and  C_10 
REMARK   12  A    between atoms: C_10  and  C_11 
REMARK   13  A    between atoms: C_11  and  C_12 
REMARK   14  A    between atoms: C_12  and  C_13 
REMARK   15  A    between atoms: C_13  and  C_14 
REMARK   16  A    between atoms: C_14  and  C_15 
REMARK   17  A    between atoms: C_15  and  C_16 
REMARK   18  A    between atoms: C_16  and  C_17 
REMARK   19  A    between atoms: C_17  and  C_18 
REMARK   20  A    between atoms: C_18  and  C_19 
REMARK   21  A    between atoms: C_19  and  C_20 
REMARK   22  A    between atoms: C_20  and  C_21 
REMARK   23  A    between atoms: C_21  and  C_22 
REMARK   24  A    between atoms: C_22  and  C_23 
REMARK   25  A    between atoms: C_23  and  C_24 
REMARK   26  A    between atoms: O_28  and  C_29 
REMARK   27  A    between atoms: C_29  and  C_30 
REMARK   28  A    between atoms: C_30  and  C_31 
REMARK   29  A    between atoms: C_31  and  C_32 
REMARK   30  A    between atoms: C_32  and  C_33 
REMARK   31  A    between atoms: C_33  and  C_34 
REMARK   32  A    between atoms: C_34  and  C_35 
REMARK   33  A    between atoms: C_35  and  C_36 
REMARK   34  A    between atoms: C_36  and  C_37 
REMARK   35  A    between atoms: C_37  and  C_38 
REMARK   36  A    between atoms: C_38  and  C_39 
REMARK   37  A    between atoms: C_39  and  C_40 
REMARK   38  A    between atoms: C_40  and  C_41 
REMARK   39  A    between atoms: C_41  and  C_42 
REMARK   40  A    between atoms: C_42  and  C_43 
ROOT
HETATM    1  C   UNK N   1      20.787  17.421   4.084  0.00  0.00     0.180 C 
ENDROOT
BRANCH   1   2
HETATM    2  C   UNK N   1      20.166  18.468   3.163  0.00  0.00     0.216 C 
BRANCH   2   3
HETATM    3  O   UNK N   1      21.104  18.932   2.235  0.00  0.00    -0.287 OA
BRANCH   3   4
HETATM    4  P   UNK N   1      21.216  20.637   2.512  0.00  0.00     0.408 P 
HETATM    5  O   UNK N   1      20.280  20.942   3.712  0.00  0.00    -0.624 OA
HETATM    6  O   UNK N   1      20.573  21.503   1.151  0.00  0.00    -0.624 OA
BRANCH   4   7
HETATM    7  O   UNK N   1      22.816  21.158   2.976  0.00  0.00    -0.288 OA
BRANCH   7   8
HETATM    8  C   UNK N   1      23.564  19.987   3.127  0.00  0.00     0.209 C 
BRANCH   8   9
HETATM    9  C   UNK N   1      25.063  20.309   3.154  0.00  0.00     0.262 C 
BRANCH   9  10
HETATM   10  N   UNK N   1      25.770  19.652   4.257  0.00  0.00    -0.077 N 
HETATM   11  C   UNK N   1      26.062  20.586   5.333  0.00  0.00     0.271 C 
HETATM   12  C   UNK N   1      27.007  19.040   3.796  0.00  0.00     0.271 C 
HETATM   13  C   UNK N   1      24.915  18.609   4.791  0.00  0.00     0.271 C 
ENDBRANCH   9  10
ENDBRANCH   8   9
ENDBRANCH   7   8
ENDBRANCH   4   7
ENDBRANCH   3   4
ENDBRANCH   2   3
ENDBRANCH   1   2
BRANCH   1  14
HETATM   14  C   UNK N   1      21.838  16.626   3.324  0.00  0.00     0.213 C 
BRANCH  14  15
HETATM   15  O   UNK N   1      21.339  15.374   3.034  0.00  0.00    -0.319 OA
BRANCH  15  16
HETATM   16  C   UNK N   1      21.127  14.959   1.765  0.00  0.00     0.258 C 
HETATM   17  O   UNK N   1      21.002  15.800   0.885  0.00  0.00    -0.265 OA
BRANCH  16  18
HETATM   18  C   UNK N   1      21.072  13.484   1.428  0.00  0.00     0.111 C 
BRANCH  18  19
HETATM   19  C   UNK N   1      22.070  13.059   0.362  0.00  0.00     0.010 C 
BRANCH  19  20
HETATM   20  C   UNK N   1      23.382  12.631   0.995  0.00  0.00     0.000 C 
BRANCH  20  21
HETATM   21  C   UNK N   1      24.405  13.750   0.900  0.00  0.00     0.000 C 
BRANCH  21  22
HETATM   22  C   UNK N   1      24.694  14.352   2.269  0.00  0.00     0.000 C 
BRANCH  22  23
HETATM   23  C   UNK N   1      25.980  15.159   2.235  0.00  0.00     0.000 C 
BRANCH  23  24
HETATM   24  C   UNK N   1      26.544  15.304   3.635  0.00  0.00     0.000 C 
BRANCH  24  25
HETATM   25  C   UNK N   1      27.867  14.564   3.757  0.00  0.00     0.000 C 
BRANCH  25  26
HETATM   26  C   UNK N   1      27.872  13.643   4.964  0.00  0.00     0.000 C 
BRANCH  26  27
HETATM   27  C   UNK N   1      26.842  12.539   4.800  0.00  0.00     0.000 C 
BRANCH  27  28
HETATM   28  C   UNK N   1      27.348  11.480   3.839  0.00  0.00     0.000 C 
BRANCH  28  29
HETATM   29  C   UNK N   1      26.247  11.082   2.870  0.00  0.00     0.000 C 
BRANCH  29  30
HETATM   30  C   UNK N   1      26.813  10.913   1.473  0.00  0.00    -0.000 C 
BRANCH  30  31
HETATM   31  C   UNK N   1      27.968  11.875   1.262  0.00  0.00    -0.005 C 
HETATM   32  C   UNK N   1      28.975  11.259   0.316  0.00  0.00     0.005 C 
ENDBRANCH  30  31
ENDBRANCH  29  30
ENDBRANCH  28  29
ENDBRANCH  27  28
ENDBRANCH  26  27
ENDBRANCH  25  26
ENDBRANCH  24  25
ENDBRANCH  23  24
ENDBRANCH  22  23
ENDBRANCH  21  22
ENDBRANCH  20  21
ENDBRANCH  19  20
ENDBRANCH  18  19
ENDBRANCH  16  18
ENDBRANCH  15  16
ENDBRANCH  14  15
ENDBRANCH   1  14
BRANCH   1  33
HETATM   33  O   UNK N   1      21.367  18.032   5.178  0.00  0.00    -0.312 OA
BRANCH  33  34
HETATM   34  C   UNK N   1      20.963  17.809   6.449  0.00  0.00     0.259 C 
HETATM   35  O   UNK N   1      20.922  18.744   7.232  0.00  0.00    -0.265 OA
BRANCH  34  36
HETATM   36  C   UNK N   1      20.532  16.442   6.903  0.00  0.00     0.111 C 
BRANCH  36  37
HETATM   37  C   UNK N   1      20.504  16.353   8.422  0.00  0.00     0.010 C 
BRANCH  37  38
HETATM   38  C   UNK N   1      21.401  15.224   8.909  0.00  0.00     0.000 C 
BRANCH  38  39
HETATM   39  C   UNK N   1      20.571  14.019   9.319  0.00  0.00     0.000 C 
BRANCH  39  40
HETATM   40  C   UNK N   1      21.433  12.766   9.380  0.00  0.00     0.000 C 
BRANCH  40  41
HETATM   41  C   UNK N   1      22.699  13.028  10.174  0.00  0.00     0.000 C 
BRANCH  41  42
HETATM   42  C   UNK N   1      23.886  12.353   9.511  0.00  0.00     0.000 C 
BRANCH  42  43
HETATM   43  C   UNK N   1      24.960  13.369   9.160  0.00  0.00     0.000 C 
BRANCH  43  44
HETATM   44  C   UNK N   1      25.113  13.478   7.651  0.00  0.00     0.000 C 
BRANCH  44  45
HETATM   45  C   UNK N   1      24.769  14.870   7.144  0.00  0.00     0.000 C 
BRANCH  45  46
HETATM   46  C   UNK N   1      23.768  14.811   6.000  0.00  0.00     0.000 C 
BRANCH  46  47
HETATM   47  C   UNK N   1      23.394  13.368   5.711  0.00  0.00     0.000 C 
BRANCH  47  48
HETATM   48  C   UNK N   1      21.885  13.223   5.669  0.00  0.00    -0.000 C 
BRANCH  48  49
HETATM   49  C   UNK N   1      21.521  11.899   5.031  0.00  0.00    -0.005 C 
HETATM   50  C   UNK N   1      22.732  11.339   4.315  0.00  0.00     0.005 C 
ENDBRANCH  48  49
ENDBRANCH  47  48
ENDBRANCH  46  47
ENDBRANCH  45  46
ENDBRANCH  44  45
ENDBRANCH  43  44
ENDBRANCH  42  43
ENDBRANCH  41  42
ENDBRANCH  40  41
ENDBRANCH  39  40
ENDBRANCH  38  39
ENDBRANCH  37  38
ENDBRANCH  36  37
ENDBRANCH  34  36
ENDBRANCH  33  34
ENDBRANCH   1  33
TORSDOF 40
ENDMDL
MODEL 2
REMARK VINA RESULT:      -4.7      1.405      2.727
REMARK WARNING: 32 MAX_TORS EXCEEDED!!!
REMARK  40 active torsions:
REMARK  status: ('A' for Active; 'I' for Inactive)
REMARK    1  A    between atoms: C_1  and  C_2 
REMARK    2  A    between atoms: C_1  and  N_26 
REMARK    3  A    between atoms: C_2  and  O_3 
REMARK    4  A    between atoms: O_3  and  P_4 
REMARK    5  A    between atoms: P_4  and  O_5 
REMARK    6  A    between atoms: O_5  and  C_6 
REMARK    7  A    between atoms: C_6  and  C_7 
REMARK    8  A    between atoms: C_7  and  C_8 
REMARK    9  A    between atoms: C_7  and  O_28 
REMARK   10  A    between atoms: C_8  and  O_9 
REMARK   11  A    between atoms: O_9  and  C_10 
REMARK   12  A    between atoms: C_10  and  C_11 
REMARK   13  A    between atoms: C_11  and  C_12 
REMARK   14  A    between atoms: C_12  and  C_13 
REMARK   15  A    between atoms: C_13  and  C_14 
REMARK   16  A    between atoms: C_14  and  C_15 
REMARK   17  A    between atoms: C_15  and  C_16 
REMARK   18  A    between atoms: C_16  and  C_17 
REMARK   19  A    between atoms: C_17  and  C_18 
REMARK   20  A    between atoms: C_18  and  C_19 
REMARK   21  A    between atoms: C_19  and  C_20 
REMARK   22  A    between atoms: C_20  and  C_21 
REMARK   23  A    between atoms: C_21  and  C_22 
REMARK   24  A    between atoms: C_22  and  C_23 
REMARK   25  A    between atoms: C_23  and  C_24 
REMARK   26  A    between atoms: O_28  and  C_29 
REMARK   27  A    between atoms: C_29  and  C_30 
REMARK   28  A    between atoms: C_30  and  C_31 
REMARK   29  A    between atoms: C_31  and  C_32 
REMARK   30  A    between atoms: C_32  and  C_33 
REMARK   31  A    between atoms: C_33  and  C_34 
REMARK   32  A    between atoms: C_34  and  C_35 
REMARK   33  A    between atoms: C_35  and  C_36 
REMARK   34  A    between atoms: C_36  and  C_37 
REMARK   35  A    between atoms: C_37  and  C_38 
REMARK   36  A    between atoms: C_38  and  C_39 
REMARK   37  A    between atoms: C_39  and  C_40 
REMARK   38  A    between atoms: C_40  and  C_41 
REMARK   39  A    between atoms: C_41  and  C_42 
REMARK   40  A    between atoms: C_42  and  C_43 
ROOT
HETATM    1  C   UNK N   1      20.912  17.102   4.150  0.00  0.00     0.180 C 
ENDROOT
BRANCH   1   2
HETATM    2  C   UNK N   1      20.234  18.214   3.352  0.00  0.00     0.216 C 
BRANCH   2   3
HETATM    3  O   UNK N   1      21.081  18.690   2.346  0.00  0.00    -0.287 OA
BRANCH   3   4
HETATM    4  P   UNK N   1      21.311  20.369   2.700  0.00  0.00     0.408 P 
HETATM    5  O   UNK N   1      20.275  20.724   3.798  0.00  0.00    -0.624 OA
HETATM    6  O   UNK N   1      20.908  21.329   1.310  0.00  0.00    -0.624 OA
BRANCH   4   7
HETATM    7  O   UNK N   1      22.888  20.726   3.359  0.00  0.00    -0.288 OA
BRANCH   7   8
HETATM    8  C   UNK N   1      23.667  19.593   3.106  0.00  0.00     0.209 C 
BRANCH   8   9
HETATM    9  C   UNK N   1      24.625  19.331   4.274  0.00  0.00     0.262 C 
BRANCH   9  10
HETATM   10  N   UNK N   1      25.937  19.959   4.090  0.00  0.00    -0.077 N 
HETATM   11  C   UNK N   1      26.265  20.843   5.197  0.00  0.00     0.271 C 
HETATM   12  C   UNK N   1      25.990  20.705   2.842  0.00  0.00     0.271 C 
HETATM   13  C   UNK N   1      26.941  18.913   4.040  0.00  0.00     0.271 C 
ENDBRANCH   9  10
ENDBRANCH   8   9
ENDBRANCH   7   8
ENDBRANCH   4   7
ENDBRANCH   3   4
ENDBRANCH   2   3
ENDBRANCH   1   2
BRANCH   1  14
HETATM   14  C   UNK N   1      21.932  16.389   3.274  0.00  0.00     0.213 C 
BRANCH  14  15
HETATM   15  O   UNK N   1      21.417  15.174   2.874  0.00  0.00    -0.319 OA
BRANCH  15  16
HETATM   16  C   UNK N   1      20.818  15.005   1.674  0.00  0.00     0.258 C 
HETATM   17  O   UNK N   1      21.162  15.718   0.740  0.00  0.00    -0.265 OA
BRANCH  16  18
HETATM   18  C   UNK N   1      19.765  13.936   1.475  0.00  0.00     0.111 C 
BRANCH  18  19
HETATM   19  C   UNK N   1      20.186  12.826   0.525  0.00  0.00     0.010 C 
BRANCH  19  20
HETATM   20  C   UNK N   1      21.377  12.067   1.081  0.00  0.00     0.000 C 
BRANCH  20  21
HETATM   21  C   UNK N   1      22.535  12.106   0.098  0.00  0.00     0.000 C 
BRANCH  21  22
HETATM   22  C   UNK N   1      23.687  12.946   0.636  0.00  0.00     0.000 C 
BRANCH  22  23
HETATM   23  C   UNK N   1      23.969  12.597   2.088  0.00  0.00     0.000 C 
BRANCH  23  24
HETATM   24  C   UNK N   1      24.616  13.773   2.792  0.00  0.00     0.000 C 
BRANCH  24  25
HETATM   25  C   UNK N   1      25.589  14.481   1.864  0.00  0.00     0.000 C 
BRANCH  25  26
HETATM   26  C   UNK N   1      26.475  15.447   2.631  0.00  0.00     0.000 C 
BRANCH  26  27
HETATM   27  C   UNK N   1      26.137  15.424   4.112  0.00  0.00     0.000 C 
BRANCH  27  28
HETATM   28  C   UNK N   1      27.326  14.942   4.920  0.00  0.00     0.000 C 
BRANCH  28  29
HETATM   29  C   UNK N   1      27.573  15.872   6.096  0.00  0.00     0.000 C 
BRANCH  29  30
HETATM   30  C   UNK N   1      28.991  16.409   6.052  0.00  0.00    -0.000 C 
BRANCH  30  31
HETATM   31  C   UNK N   1      29.088  17.688   6.863  0.00  0.00    -0.005 C 
HETATM   32  C   UNK N   1      28.220  17.572   8.097  0.00  0.00     0.005 C 
ENDBRANCH  30  31
ENDBRANCH  29  30
ENDBRANCH  28  29
ENDBRANCH  27  28
ENDBRANCH  26  27
ENDBRANCH  25  26
ENDBRANCH  24  25
ENDBRANCH  23  24
ENDBRANCH  22  23
ENDBRANCH  21  22
ENDBRANCH  20  21
ENDBRANCH  19  20
ENDBRANCH  18  19
ENDBRANCH  16  18
ENDBRANCH  15  16
ENDBRANCH  14  15
ENDBRANCH   1  14
BRANCH   1  33
HETATM   33  O   UNK N   1      21.541  17.627   5.261  0.00  0.00    -0.312 OA
BRANCH  33  34
HETATM   34  C   UNK N   1      21.009  17.576   6.503  0.00  0.00     0.259 C 
HETATM   35  O   UNK N   1      21.058  18.569   7.212  0.00  0.00    -0.265 OA
BRANCH  34  36
HETATM   36  C   UNK N   1      20.330  16.334   7.012  0.00  0.00     0.111 C 
BRANCH  36  37
HETATM   37  C   UNK N   1      20.389  16.262   8.531  0.00  0.00     0.010 C 
BRANCH  37  38
HETATM   38  C   UNK N   1      21.268  15.104   8.979  0.00  0.00     0.000 C 
BRANCH  38  39
HETATM   39  C   UNK N   1      20.441  14.045   9.687  0.00  0.00     0.000 C 
BRANCH  39  40
HETATM   40  C   UNK N   1      21.218  12.741   9.803  0.00  0.00     0.000 C 
BRANCH  40  41
HETATM   41  C   UNK N   1      22.586  12.988  10.412  0.00  0.00     0.000 C 
BRANCH  41  42
HETATM   42  C   UNK N   1      23.654  12.254   9.622  0.00  0.00     0.000 C 
BRANCH  42  43
HETATM   43  C   UNK N   1      24.786  13.193   9.239  0.00  0.00     0.000 C 
BRANCH  43  44
HETATM   44  C   UNK N   1      24.931  13.259   7.726  0.00  0.00     0.000 C 
BRANCH  44  45
HETATM   45  C   UNK N   1      24.308  14.521   7.151  0.00  0.00     0.000 C 
BRANCH  45  46
HETATM   46  C   UNK N   1      23.228  14.190   6.131  0.00  0.00     0.000 C 
BRANCH  46  47
HETATM   47  C   UNK N   1      23.109  12.685   5.970  0.00  0.00     0.000 C 
BRANCH  47  48
HETATM   48  C   UNK N   1      21.673  12.253   6.195  0.00  0.00    -0.000 C 
BRANCH  48  49
HETATM   49  C   UNK N   1      20.905  12.351   4.895  0.00  0.00    -0.005 C 
HETATM   50  C   UNK N   1      19.643  13.158   5.119  0.00  0.00     0.005 C 
ENDBRANCH  48  49
ENDBRANCH  47  48
ENDBRANCH  46  47
ENDBRANCH  45  46
ENDBRANCH  44  45
ENDBRANCH  43  44
ENDBRANCH  42  43
ENDBRANCH  41  42
ENDBRANCH  40  41
ENDBRANCH  39  40
ENDBRANCH  38  39
ENDBRANCH  37  38
ENDBRANCH  36  37
ENDBRANCH  34  36
ENDBRANCH  33  34
ENDBRANCH   1  33
TORSDOF 40
ENDMDL
MODEL 3
REMARK VINA RESULT:      -4.6      3.202      7.027
REMARK WARNING: 32 MAX_TORS EXCEEDED!!!
REMARK  40 active torsions:
REMARK  status: ('A' for Active; 'I' for Inactive)
REMARK    1  A    between atoms: C_1  and  C_2 
REMARK    2  A    between atoms: C_1  and  N_26 
REMARK    3  A    between atoms: C_2  and  O_3 
REMARK    4  A    between atoms: O_3  and  P_4 
REMARK    5  A    between atoms: P_4  and  O_5 
REMARK    6  A    between atoms: O_5  and  C_6 
REMARK    7  A    between atoms: C_6  and  C_7 
REMARK    8  A    between atoms: C_7  and  C_8 
REMARK    9  A    between atoms: C_7  and  O_28 
REMARK   10  A    between atoms: C_8  and  O_9 
REMARK   11  A    between atoms: O_9  and  C_10 
REMARK   12  A    between atoms: C_10  and  C_11 
REMARK   13  A    between atoms: C_11  and  C_12 
REMARK   14  A    between atoms: C_12  and  C_13 
REMARK   15  A    between atoms: C_13  and  C_14 
REMARK   16  A    between atoms: C_14  and  C_15 
REMARK   17  A    between atoms: C_15  and  C_16 
REMARK   18  A    between atoms: C_16  and  C_17 
REMARK   19  A    between atoms: C_17  and  C_18 
REMARK   20  A    between atoms: C_18  and  C_19 
REMARK   21  A    between atoms: C_19  and  C_20 
REMARK   22  A    between atoms: C_20  and  C_21 
REMARK   23  A    between atoms: C_21  and  C_22 
REMARK   24  A    between atoms: C_22  and  C_23 
REMARK   25  A    between atoms: C_23  and  C_24 
REMARK   26  A    between atoms: O_28  and  C_29 
REMARK   27  A    between atoms: C_29  and  C_30 
REMARK   28  A    between atoms: C_30  and  C_31 
REMARK   29  A    between atoms: C_31  and  C_32 
REMARK   30  A    between atoms: C_32  and  C_33 
REMARK   31  A    between atoms: C_33  and  C_34 
REMARK   32  A    between atoms: C_34  and  C_35 
REMARK   33  A    between atoms: C_35  and  C_36 
REMARK   34  A    between atoms: C_36  and  C_37 
REMARK   35  A    between atoms: C_37  and  C_38 
REMARK   36  A    between atoms: C_38  and  C_39 
REMARK   37  A    between atoms: C_39  and  C_40 
REMARK   38  A    between atoms: C_40  and  C_41 
REMARK   39  A    between atoms: C_41  and  C_42 
REMARK   40  A    between atoms: C_42  and  C_43 
ROOT
HETATM    1  C   UNK N   1      21.503  18.435   3.279  0.00  0.00     0.180 C 
ENDROOT
BRANCH   1   2
HETATM    2  C   UNK N   1      20.871  17.590   4.383  0.00  0.00     0.216 C 
BRANCH   2   3
HETATM    3  O   UNK N   1      21.791  17.344   5.406  0.00  0.00    -0.287 OA
BRANCH   3   4
HETATM    4  P   UNK N   1      20.853  16.730   6.726  0.00  0.00     0.408 P 
HETATM    5  O   UNK N   1      19.460  16.383   6.139  0.00  0.00    -0.624 OA
HETATM    6  O   UNK N   1      20.597  17.979   7.905  0.00  0.00    -0.624 OA
BRANCH   4   7
HETATM    7  O   UNK N   1      21.497  15.255   7.404  0.00  0.00    -0.288 OA
BRANCH   7   8
HETATM    8  C   UNK N   1      21.261  15.340   8.779  0.00  0.00     0.209 C 
BRANCH   8   9
HETATM    9  C   UNK N   1      20.683  14.020   9.305  0.00  0.00     0.262 C 
BRANCH   9  10
HETATM   10  N   UNK N   1      21.708  12.997   9.533  0.00  0.00    -0.077 N 
HETATM   11  C   UNK N   1      23.024  13.592   9.708  0.00  0.00     0.271 C 
HETATM   12  C   UNK N   1      21.749  12.041   8.437  0.00  0.00     0.271 C 
HETATM   13  C   UNK N   1      21.376  12.283  10.751  0.00  0.00     0.271 C 
ENDBRANCH   9  10
ENDBRANCH   8   9
ENDBRANCH   7   8
ENDBRANCH   4   7
ENDBRANCH   3   4
ENDBRANCH   2   3
ENDBRANCH   1   2
BRANCH   1  14
HETATM   14  C   UNK N   1      20.462  18.750   2.214  0.00  0.00     0.213 C 
BRANCH  14  15
HETATM   15  O   UNK N   1      19.782  17.596   1.888  0.00  0.00    -0.319 OA
BRANCH  15  16
HETATM   16  C   UNK N   1      20.048  16.896   0.762  0.00  0.00     0.258 C 
HETATM   17  O   UNK N   1      20.365  17.509  -0.249  0.00  0.00    -0.265 OA
BRANCH  16  18
HETATM   18  C   UNK N   1      19.985  15.384   0.753  0.00  0.00     0.111 C 
BRANCH  18  19
HETATM   19  C   UNK N   1      21.084  14.717   1.564  0.00  0.00     0.010 C 
BRANCH  19  20
HETATM   20  C   UNK N   1      21.809  13.676   0.730  0.00  0.00     0.000 C 
BRANCH  20  21
HETATM   21  C   UNK N   1      23.297  13.982   0.679  0.00  0.00     0.000 C 
BRANCH  21  22
HETATM   22  C   UNK N   1      24.118  12.708   0.524  0.00  0.00     0.000 C 
BRANCH  22  23
HETATM   23  C   UNK N   1      25.242  12.671   1.544  0.00  0.00     0.000 C 
BRANCH  23  24
HETATM   24  C   UNK N   1      26.106  11.444   1.327  0.00  0.00     0.000 C 
BRANCH  24  25
HETATM   25  C   UNK N   1      27.576  11.788   1.502  0.00  0.00     0.000 C 
BRANCH  25  26
HETATM   26  C   UNK N   1      27.774  12.801   2.616  0.00  0.00     0.000 C 
BRANCH  26  27
HETATM   27  C   UNK N   1      28.847  13.808   2.240  0.00  0.00     0.000 C 
BRANCH  27  28
HETATM   28  C   UNK N   1      28.244  15.192   2.082  0.00  0.00     0.000 C 
BRANCH  28  29
HETATM   29  C   UNK N   1      27.186  15.427   3.147  0.00  0.00     0.000 C 
BRANCH  29  30
HETATM   30  C   UNK N   1      25.982  16.127   2.544  0.00  0.00    -0.000 C 
BRANCH  30  31
HETATM   31  C   UNK N   1      24.810  16.064   3.506  0.00  0.00    -0.005 C 
HETATM   32  C   UNK N   1      25.316  16.161   4.929  0.00  0.00     0.005 C 
ENDBRANCH  30  31
ENDBRANCH  29  30
ENDBRANCH  28  29
ENDBRANCH  27  28
ENDBRANCH  26  27
ENDBRANCH  25  26
ENDBRANCH  24  25
ENDBRANCH  23  24
ENDBRANCH  22  23
ENDBRANCH  21  22
ENDBRANCH  20  21
ENDBRANCH  19  20
ENDBRANCH  18  19
ENDBRANCH  16  18
ENDBRANCH  15  16
ENDBRANCH  14  15
ENDBRANCH   1  14
BRANCH   1  33
HETATM   33  O   UNK N   1      22.001  19.611   3.804  0.00  0.00    -0.312 OA
BRANCH  33  34
HETATM   34  C   UNK N   1      23.135  20.197   3.357  0.00  0.00     0.259 C 
HETATM   35  O   UNK N   1      23.053  21.186   2.647  0.00  0.00    -0.265 OA
BRANCH  34  36
HETATM   36  C   UNK N   1      24.490  19.674   3.748  0.00  0.00     0.111 C 
BRANCH  36  37
HETATM   37  C   UNK N   1      25.575  20.232   2.839  0.00  0.00     0.010 C 
BRANCH  37  38
HETATM   38  C   UNK N   1      26.943  20.090   3.488  0.00  0.00     0.000 C 
BRANCH  38  39
HETATM   39  C   UNK N   1      26.890  20.505   4.949  0.00  0.00     0.000 C 
BRANCH  39  40
HETATM   40  C   UNK N   1      27.612  19.491   5.824  0.00  0.00     0.000 C 
BRANCH  40  41
HETATM   41  C   UNK N   1      28.340  18.470   4.969  0.00  0.00     0.000 C 
BRANCH  41  42
HETATM   42  C   UNK N   1      28.893  17.355   5.837  0.00  0.00     0.000 C 
BRANCH  42  43
HETATM   43  C   UNK N   1      30.401  17.243   5.680  0.00  0.00     0.000 C 
BRANCH  43  44
HETATM   44  C   UNK N   1      30.748  16.587   4.353  0.00  0.00     0.000 C 
BRANCH  44  45
HETATM   45  C   UNK N   1      31.985  17.205   3.720  0.00  0.00     0.000 C 
BRANCH  45  46
HETATM   46  C   UNK N   1      32.989  17.641   4.776  0.00  0.00     0.000 C 
BRANCH  46  47
HETATM   47  C   UNK N   1      33.856  16.463   5.186  0.00  0.00     0.000 C 
BRANCH  47  48
HETATM   48  C   UNK N   1      34.079  16.481   6.686  0.00  0.00    -0.000 C 
BRANCH  48  49
HETATM   49  C   UNK N   1      33.838  17.878   7.217  0.00  0.00    -0.005 C 
HETATM   50  C   UNK N   1      32.881  17.810   8.388  0.00  0.00     0.005 C 
ENDBRANCH  48  49
ENDBRANCH  47  48
ENDBRANCH  46  47
ENDBRANCH  45  46
ENDBRANCH  44  45
ENDBRANCH  43  44
ENDBRANCH  42  43
ENDBRANCH  41  42
ENDBRANCH  40  41
ENDBRANCH  39  40
ENDBRANCH  38  39
ENDBRANCH  37  38
ENDBRANCH  36  37
ENDBRANCH  34  36
ENDBRANCH  33  34
ENDBRANCH   1  33
TORSDOF 40
ENDMDL
MODEL 4
REMARK VINA RESULT:      -4.5      3.197      6.307
REMARK WARNING: 32 MAX_TORS EXCEEDED!!!
REMARK  40 active torsions:
REMARK  status: ('A' for Active; 'I' for Inactive)
REMARK    1  A    between atoms: C_1  and  C_2 
REMARK    2  A    between atoms: C_1  and  N_26 
REMARK    3  A    between atoms: C_2  and  O_3 
REMARK    4  A    between atoms: O_3  and  P_4 
REMARK    5  A    between atoms: P_4  and  O_5 
REMARK    6  A    between atoms: O_5  and  C_6 
REMARK    7  A    between atoms: C_6  and  C_7 
REMARK    8  A    between atoms: C_7  and  C_8 
REMARK    9  A    between atoms: C_7  and  O_28 
REMARK   10  A    between atoms: C_8  and  O_9 
REMARK   11  A    between atoms: O_9  and  C_10 
REMARK   12  A    between atoms: C_10  and  C_11 
REMARK   13  A    between atoms: C_11  and  C_12 
REMARK   14  A    between atoms: C_12  and  C_13 
REMARK   15  A    between atoms: C_13  and  C_14 
REMARK   16  A    between atoms: C_14  and  C_15 
REMARK   17  A    between atoms: C_15  and  C_16 
REMARK   18  A    between atoms: C_16  and  C_17 
REMARK   19  A    between atoms: C_17  and  C_18 
REMARK   20  A    between atoms: C_18  and  C_19 
REMARK   21  A    between atoms: C_19  and  C_20 
REMARK   22  A    between atoms: C_20  and  C_21 
REMARK   23  A    between atoms: C_21  and  C_22 
REMARK   24  A    between atoms: C_22  and  C_23 
REMARK   25  A    between atoms: C_23  and  C_24 
REMARK   26  A    between atoms: O_28  and  C_29 
REMARK   27  A    between atoms: C_29  and  C_30 
REMARK   28  A    between atoms: C_30  and  C_31 
REMARK   29  A    between atoms: C_31  and  C_32 
REMARK   30  A    between atoms: C_32  and  C_33 
REMARK   31  A    between atoms: C_33  and  C_34 
REMARK   32  A    between atoms: C_34  and  C_35 
REMARK   33  A    between atoms: C_35  and  C_36 
REMARK   34  A    between atoms: C_36  and  C_37 
REMARK   35  A    between atoms: C_37  and  C_38 
REMARK   36  A    between atoms: C_38  and  C_39 
REMARK   37  A    between atoms: C_39  and  C_40 
REMARK   38  A    between atoms: C_40  and  C_41 
REMARK   39  A    between atoms: C_41  and  C_42 
REMARK   40  A    between atoms: C_42  and  C_43 
ROOT
HETATM    1  C   UNK N   1      20.950  15.958   7.172  0.00  0.00     0.180 C 
ENDROOT
BRANCH   1   2
HETATM    2  C   UNK N   1      20.364  15.177   5.998  0.00  0.00     0.216 C 
BRANCH   2   3
HETATM    3  O   UNK N   1      21.276  14.226   5.531  0.00  0.00    -0.287 OA
BRANCH   3   4
HETATM    4  P   UNK N   1      20.343  12.794   5.259  0.00  0.00     0.408 P 
HETATM    5  O   UNK N   1      18.856  13.232   5.305  0.00  0.00    -0.624 OA
HETATM    6  O   UNK N   1      20.571  11.679   6.572  0.00  0.00    -0.624 OA
BRANCH   4   7
HETATM    7  O   UNK N   1      20.612  12.081   3.688  0.00  0.00    -0.288 OA
BRANCH   7   8
HETATM    8  C   UNK N   1      21.107  13.115   2.886  0.00  0.00     0.209 C 
BRANCH   8   9
HETATM    9  C   UNK N   1      19.953  13.897   2.249  0.00  0.00     0.262 C 
BRANCH   9  10
HETATM   10  N   UNK N   1      20.358  15.218   1.760  0.00  0.00    -0.077 N 
HETATM   11  C   UNK N   1      21.779  15.259   1.451  0.00  0.00     0.271 C 
HETATM   12  C   UNK N   1      20.043  16.256   2.730  0.00  0.00     0.271 C 
HETATM   13  C   UNK N   1      19.627  15.497   0.538  0.00  0.00     0.271 C 
ENDBRANCH   9  10
ENDBRANCH   8   9
ENDBRANCH   7   8
ENDBRANCH   4   7
ENDBRANCH   3   4
ENDBRANCH   2   3
ENDBRANCH   1   2
BRANCH   1  14
HETATM   14  C   UNK N   1      21.162  17.410   6.769  0.00  0.00     0.213 C 
BRANCH  14  15
HETATM   15  O   UNK N   1      22.320  17.512   6.029  0.00  0.00    -0.319 OA
BRANCH  15  16
HETATM   16  C   UNK N   1      22.394  18.257   4.904  0.00  0.00     0.258 C 
HETATM   17  O   UNK N   1      21.441  18.964   4.604  0.00  0.00    -0.265 OA
BRANCH  16  18
HETATM   18  C   UNK N   1      23.639  18.245   4.043  0.00  0.00     0.111 C 
BRANCH  18  19
HETATM   19  C   UNK N   1      24.363  19.581   3.988  0.00  0.00     0.010 C 
BRANCH  19  20
HETATM   20  C   UNK N   1      25.678  19.448   3.240  0.00  0.00     0.000 C 
BRANCH  20  21
HETATM   21  C   UNK N   1      26.815  20.029   4.064  0.00  0.00     0.000 C 
BRANCH  21  22
HETATM   22  C   UNK N   1      26.287  20.872   5.217  0.00  0.00     0.000 C 
BRANCH  22  23
HETATM   23  C   UNK N   1      27.181  20.728   6.436  0.00  0.00     0.000 C 
BRANCH  23  24
HETATM   24  C   UNK N   1      27.765  19.331   6.495  0.00  0.00     0.000 C 
BRANCH  24  25
HETATM   25  C   UNK N   1      28.442  19.090   7.835  0.00  0.00     0.000 C 
BRANCH  25  26
HETATM   26  C   UNK N   1      28.394  17.622   8.218  0.00  0.00     0.000 C 
BRANCH  26  27
HETATM   27  C   UNK N   1      29.689  17.202   8.893  0.00  0.00     0.000 C 
BRANCH  27  28
HETATM   28  C   UNK N   1      30.711  18.322   8.823  0.00  0.00     0.000 C 
BRANCH  28  29
HETATM   29  C   UNK N   1      32.025  17.800   8.268  0.00  0.00     0.000 C 
BRANCH  29  30
HETATM   30  C   UNK N   1      31.767  16.682   7.276  0.00  0.00    -0.000 C 
BRANCH  30  31
HETATM   31  C   UNK N   1      32.033  17.170   5.864  0.00  0.00    -0.005 C 
HETATM   32  C   UNK N   1      30.720  17.349   5.133  0.00  0.00     0.005 C 
ENDBRANCH  30  31
ENDBRANCH  29  30
ENDBRANCH  28  29
ENDBRANCH  27  28
ENDBRANCH  26  27
ENDBRANCH  25  26
ENDBRANCH  24  25
ENDBRANCH  23  24
ENDBRANCH  22  23
ENDBRANCH  21  22
ENDBRANCH  20  21
ENDBRANCH  19  20
ENDBRANCH  18  19
ENDBRANCH  16  18
ENDBRANCH  15  16
ENDBRANCH  14  15
ENDBRANCH   1  14
BRANCH   1  33
HETATM   33  O   UNK N   1      20.099  15.897   8.258  0.00  0.00    -0.312 OA
BRANCH  33  34
HETATM   34  C   UNK N   1      20.114  14.882   9.151  0.00  0.00     0.259 C 
HETATM   35  O   UNK N   1      19.060  14.501   9.636  0.00  0.00    -0.265 OA
BRANCH  34  36
HETATM   36  C   UNK N   1      21.396  14.192   9.529  0.00  0.00     0.111 C 
BRANCH  36  37
HETATM   37  C   UNK N   1      21.121  12.891  10.268  0.00  0.00     0.010 C 
BRANCH  37  38
HETATM   38  C   UNK N   1      22.346  12.454  11.057  0.00  0.00     0.000 C 
BRANCH  38  39
HETATM   39  C   UNK N   1      23.109  11.375  10.307  0.00  0.00     0.000 C 
BRANCH  39  40
HETATM   40  C   UNK N   1      24.172  11.991   9.408  0.00  0.00     0.000 C 
BRANCH  40  41
HETATM   41  C   UNK N   1      23.882  11.681   7.950  0.00  0.00     0.000 C 
BRANCH  41  42
HETATM   42  C   UNK N   1      24.750  12.538   7.047  0.00  0.00     0.000 C 
BRANCH  42  43
HETATM   43  C   UNK N   1      24.778  13.978   7.531  0.00  0.00     0.000 C 
BRANCH  43  44
HETATM   44  C   UNK N   1      24.660  14.935   6.354  0.00  0.00     0.000 C 
BRANCH  44  45
HETATM   45  C   UNK N   1      25.905  15.793   6.193  0.00  0.00     0.000 C 
BRANCH  45  46
HETATM   46  C   UNK N   1      27.133  14.941   5.912  0.00  0.00     0.000 C 
BRANCH  46  47
HETATM   47  C   UNK N   1      27.796  15.395   4.623  0.00  0.00     0.000 C 
BRANCH  47  48
HETATM   48  C   UNK N   1      26.856  16.297   3.847  0.00  0.00    -0.000 C 
BRANCH  48  49
HETATM   49  C   UNK N   1      26.627  15.721   2.466  0.00  0.00    -0.005 C 
HETATM   50  C   UNK N   1      25.492  14.722   2.523  0.00  0.00     0.005 C 
ENDBRANCH  48  49
ENDBRANCH  47  48
ENDBRANCH  46  47
ENDBRANCH  45  46
ENDBRANCH  44  45
ENDBRANCH  43  44
ENDBRANCH  42  43
ENDBRANCH  41  42
ENDBRANCH  40  41
ENDBRANCH  39  40
ENDBRANCH  38  39
ENDBRANCH  37  38
ENDBRANCH  36  37
ENDBRANCH  34  36
ENDBRANCH  33  34
ENDBRANCH   1  33
TORSDOF 40
ENDMDL
MODEL 5
REMARK VINA RESULT:      -4.4      1.276      5.079
REMARK WARNING: 32 MAX_TORS EXCEEDED!!!
REMARK  40 active torsions:
REMARK  status: ('A' for Active; 'I' for Inactive)
REMARK    1  A    between atoms: C_1  and  C_2 
REMARK    2  A    between atoms: C_1  and  N_26 
REMARK    3  A    between atoms: C_2  and  O_3 
REMARK    4  A    between atoms: O_3  and  P_4 
REMARK    5  A    between atoms: P_4  and  O_5 
REMARK    6  A    between atoms: O_5  and  C_6 
REMARK    7  A    between atoms: C_6  and  C_7 
REMARK    8  A    between atoms: C_7  and  C_8 
REMARK    9  A    between atoms: C_7  and  O_28 
REMARK   10  A    between atoms: C_8  and  O_9 
REMARK   11  A    between atoms: O_9  and  C_10 
REMARK   12  A    between atoms: C_10  and  C_11 
REMARK   13  A    between atoms: C_11  and  C_12 
REMARK   14  A    between atoms: C_12  and  C_13 
REMARK   15  A    between atoms: C_13  and  C_14 
REMARK   16  A    between atoms: C_14  and  C_15 
REMARK   17  A    between atoms: C_15  and  C_16 
REMARK   18  A    between atoms: C_16  and  C_17 
REMARK   19  A    between atoms: C_17  and  C_18 
REMARK   20  A    between atoms: C_18  and  C_19 
REMARK   21  A    between atoms: C_19  and  C_20 
REMARK   22  A    between atoms: C_20  and  C_21 
REMARK   23  A    between atoms: C_21  and  C_22 
REMARK   24  A    between atoms: C_22  and  C_23 
REMARK   25  A    between atoms: C_23  and  C_24 
REMARK   26  A    between atoms: O_28  and  C_29 
REMARK   27  A    between atoms: C_29  and  C_30 
REMARK   28  A    between atoms: C_30  and  C_31 
REMARK   29  A    between atoms: C_31  and  C_32 
REMARK   30  A    between atoms: C_32  and  C_33 
REMARK   31  A    between atoms: C_33  and  C_34 
REMARK   32  A    between atoms: C_34  and  C_35 
REMARK   33  A    between atoms: C_35  and  C_36 
REMARK   34  A    between atoms: C_36  and  C_37 
REMARK   35  A    between atoms: C_37  and  C_38 
REMARK   36  A    between atoms: C_38  and  C_39 
REMARK   37  A    between atoms: C_39  and  C_40 
REMARK   38  A    between atoms: C_40  and  C_41 
REMARK   39  A    between atoms: C_41  and  C_42 
REMARK   40  A    between atoms: C_42  and  C_43 
ROOT
HETATM    1  C   UNK N   1      20.254  16.588   3.251  0.00  0.00     0.180 C 
ENDROOT
BRANCH   1   2
HETATM    2  C   UNK N   1      19.694  17.990   3.020  0.00  0.00     0.216 C 
BRANCH   2   3
HETATM    3  O   UNK N   1      20.464  18.683   2.081  0.00  0.00    -0.287 OA
BRANCH   3   4
HETATM    4  P   UNK N   1      21.455  19.759   3.007  0.00  0.00     0.408 P 
HETATM    5  O   UNK N   1      20.503  20.472   4.004  0.00  0.00    -0.624 OA
HETATM    6  O   UNK N   1      22.110  20.996   1.979  0.00  0.00    -0.624 OA
BRANCH   4   7
HETATM    7  O   UNK N   1      22.662  18.937   3.963  0.00  0.00    -0.288 OA
BRANCH   7   8
HETATM    8  C   UNK N   1      23.877  19.551   3.644  0.00  0.00     0.209 C 
BRANCH   8   9
HETATM    9  C   UNK N   1      24.878  19.387   4.793  0.00  0.00     0.262 C 
BRANCH   9  10
HETATM   10  N   UNK N   1      26.214  18.991   4.337  0.00  0.00    -0.077 N 
HETATM   11  C   UNK N   1      27.055  18.573   5.448  0.00  0.00     0.271 C 
HETATM   12  C   UNK N   1      26.864  20.075   3.617  0.00  0.00     0.271 C 
HETATM   13  C   UNK N   1      26.072  17.864   3.435  0.00  0.00     0.271 C 
ENDBRANCH   9  10
ENDBRANCH   8   9
ENDBRANCH   7   8
ENDBRANCH   4   7
ENDBRANCH   3   4
ENDBRANCH   2   3
ENDBRANCH   1   2
BRANCH   1  14
HETATM   14  C   UNK N   1      20.018  16.172   4.695  0.00  0.00     0.213 C 
BRANCH  14  15
HETATM   15  O   UNK N   1      20.099  17.283   5.507  0.00  0.00    -0.319 OA
BRANCH  15  16
HETATM   16  C   UNK N   1      20.976  17.365   6.533  0.00  0.00     0.258 C 
HETATM   17  O   UNK N   1      21.069  18.422   7.143  0.00  0.00    -0.265 OA
BRANCH  16  18
HETATM   18  C   UNK N   1      21.807  16.168   6.942  0.00  0.00     0.111 C 
BRANCH  18  19
HETATM   19  C   UNK N   1      21.265  15.427   8.154  0.00  0.00     0.010 C 
BRANCH  19  20
HETATM   20  C   UNK N   1      20.680  14.087   7.747  0.00  0.00     0.000 C 
BRANCH  20  21
HETATM   21  C   UNK N   1      21.480  12.951   8.364  0.00  0.00     0.000 C 
BRANCH  21  22
HETATM   22  C   UNK N   1      22.473  13.472   9.396  0.00  0.00     0.000 C 
BRANCH  22  23
HETATM   23  C   UNK N   1      23.854  12.892   9.146  0.00  0.00     0.000 C 
BRANCH  23  24
HETATM   24  C   UNK N   1      23.972  12.421   7.710  0.00  0.00     0.000 C 
BRANCH  24  25
HETATM   25  C   UNK N   1      25.156  13.085   7.026  0.00  0.00     0.000 C 
BRANCH  25  26
HETATM   26  C   UNK N   1      25.077  14.598   7.139  0.00  0.00     0.000 C 
BRANCH  26  27
HETATM   27  C   UNK N   1      26.336  15.243   6.585  0.00  0.00     0.000 C 
BRANCH  27  28
HETATM   28  C   UNK N   1      26.751  14.570   5.290  0.00  0.00     0.000 C 
BRANCH  28  29
HETATM   29  C   UNK N   1      28.263  14.604   5.142  0.00  0.00     0.000 C 
BRANCH  29  30
HETATM   30  C   UNK N   1      28.644  15.061   3.747  0.00  0.00    -0.000 C 
BRANCH  30  31
HETATM   31  C   UNK N   1      27.648  14.525   2.735  0.00  0.00    -0.005 C 
HETATM   32  C   UNK N   1      28.290  13.419   1.928  0.00  0.00     0.005 C 
ENDBRANCH  30  31
ENDBRANCH  29  30
ENDBRANCH  28  29
ENDBRANCH  27  28
ENDBRANCH  26  27
ENDBRANCH  25  26
ENDBRANCH  24  25
ENDBRANCH  23  24
ENDBRANCH  22  23
ENDBRANCH  21  22
ENDBRANCH  20  21
ENDBRANCH  19  20
ENDBRANCH  18  19
ENDBRANCH  16  18
ENDBRANCH  15  16
ENDBRANCH  14  15
ENDBRANCH   1  14
BRANCH   1  33
HETATM   33  O   UNK N   1      19.645  15.686   2.402  0.00  0.00    -0.312 OA
BRANCH  33  34
HETATM   34  C   UNK N   1      20.277  15.119   1.350  0.00  0.00     0.259 C 
HETATM   35  O   UNK N   1      20.994  15.809   0.644  0.00  0.00    -0.265 OA
BRANCH  34  36
HETATM   36  C   UNK N   1      20.142  13.649   1.058  0.00  0.00     0.111 C 
BRANCH  36  37
HETATM   37  C   UNK N   1      19.902  12.857   2.334  0.00  0.00     0.010 C 
BRANCH  37  38
HETATM   38  C   UNK N   1      20.763  11.602   2.355  0.00  0.00     0.000 C 
BRANCH  38  39
HETATM   39  C   UNK N   1      21.939  11.773   3.302  0.00  0.00     0.000 C 
BRANCH  39  40
HETATM   40  C   UNK N   1      21.614  12.790   4.386  0.00  0.00     0.000 C 
BRANCH  40  41
HETATM   41  C   UNK N   1      22.692  13.857   4.456  0.00  0.00     0.000 C 
BRANCH  41  42
HETATM   42  C   UNK N   1      23.788  13.565   3.447  0.00  0.00     0.000 C 
BRANCH  42  43
HETATM   43  C   UNK N   1      23.879  14.672   2.410  0.00  0.00     0.000 C 
BRANCH  43  44
HETATM   44  C   UNK N   1      24.491  14.144   1.122  0.00  0.00     0.000 C 
BRANCH  44  45
HETATM   45  C   UNK N   1      23.480  13.376   0.286  0.00  0.00     0.000 C 
BRANCH  45  46
HETATM   46  C   UNK N   1      23.957  11.960   0.002  0.00  0.00     0.000 C 
BRANCH  46  47
HETATM   47  C   UNK N   1      25.159  11.633   0.871  0.00  0.00     0.000 C 
BRANCH  47  48
HETATM   48  C   UNK N   1      25.143  10.163   1.245  0.00  0.00    -0.000 C 
BRANCH  48  49
HETATM   49  C   UNK N   1      25.026  10.025   2.748  0.00  0.00    -0.005 C 
HETATM   50  C   UNK N   1      26.093  10.868   3.413  0.00  0.00     0.005 C 
ENDBRANCH  48  49
ENDBRANCH  47  48
ENDBRANCH  46  47
ENDBRANCH  45  46
ENDBRANCH  44  45
ENDBRANCH  43  44
ENDBRANCH  42  43
ENDBRANCH  41  42
ENDBRANCH  40  41
ENDBRANCH  39  40
ENDBRANCH  38  39
ENDBRANCH  37  38
ENDBRANCH  36  37
ENDBRANCH  34  36
ENDBRANCH  33  34
ENDBRANCH   1  33
TORSDOF 40
ENDMDL
MODEL 6
REMARK VINA RESULT:      -4.4     12.905     16.450
REMARK WARNING: 32 MAX_TORS EXCEEDED!!!
REMARK  40 active torsions:
REMARK  status: ('A' for Active; 'I' for Inactive)
REMARK    1  A    between atoms: C_1  and  C_2 
REMARK    2  A    between atoms: C_1  and  N_26 
REMARK    3  A    between atoms: C_2  and  O_3 
REMARK    4  A    between atoms: O_3  and  P_4 
REMARK    5  A    between atoms: P_4  and  O_5 
REMARK    6  A    between atoms: O_5  and  C_6 
REMARK    7  A    between atoms: C_6  and  C_7 
REMARK    8  A    between atoms: C_7  and  C_8 
REMARK    9  A    between atoms: C_7  and  O_28 
REMARK   10  A    between atoms: C_8  and  O_9 
REMARK   11  A    between atoms: O_9  and  C_10 
REMARK   12  A    between atoms: C_10  and  C_11 
REMARK   13  A    between atoms: C_11  and  C_12 
REMARK   14  A    between atoms: C_12  and  C_13 
REMARK   15  A    between atoms: C_13  and  C_14 
REMARK   16  A    between atoms: C_14  and  C_15 
REMARK   17  A    between atoms: C_15  and  C_16 
REMARK   18  A    between atoms: C_16  and  C_17 
REMARK   19  A    between atoms: C_17  and  C_18 
REMARK   20  A    between atoms: C_18  and  C_19 
REMARK   21  A    between atoms: C_19  and  C_20 
REMARK   22  A    between atoms: C_20  and  C_21 
REMARK   23  A    between atoms: C_21  and  C_22 
REMARK   24  A    between atoms: C_22  and  C_23 
REMARK   25  A    between atoms: C_23  and  C_24 
REMARK   26  A    between atoms: O_28  and  C_29 
REMARK   27  A    between atoms: C_29  and  C_30 
REMARK   28  A    between atoms: C_30  and  C_31 
REMARK   29  A    between atoms: C_31  and  C_32 
REMARK   30  A    between atoms: C_32  and  C_33 
REMARK   31  A    between atoms: C_33  and  C_34 
REMARK   32  A    between atoms: C_34  and  C_35 
REMARK   33  A    between atoms: C_35  and  C_36 
REMARK   34  A    between atoms: C_36  and  C_37 
REMARK   35  A    between atoms: C_37  and  C_38 
REMARK   36  A    between atoms: C_38  and  C_39 
REMARK   37  A    between atoms: C_39  and  C_40 
REMARK   38  A    between atoms: C_40  and  C_41 
REMARK   39  A    between atoms: C_41  and  C_42 
REMARK   40  A    between atoms: C_42  and  C_43 
ROOT
HETATM    1  C   UNK N   1      26.325  25.195  -5.917  0.00  0.00     0.180 C 
ENDROOT
BRANCH   1   2
HETATM    2  C   UNK N   1      25.902  24.231  -7.024  0.00  0.00     0.216 C 
BRANCH   2   3
HETATM    3  O   UNK N   1      26.196  22.911  -6.671  0.00  0.00    -0.287 OA
BRANCH   3   4
HETATM    4  P   UNK N   1      25.080  21.938  -7.569  0.00  0.00     0.408 P 
HETATM    5  O   UNK N   1      24.374  22.898  -8.562  0.00  0.00    -0.624 OA
HETATM    6  O   UNK N   1      23.846  21.324  -6.513  0.00  0.00    -0.624 OA
BRANCH   4   7
HETATM    7  O   UNK N   1      25.856  20.701  -8.526  0.00  0.00    -0.288 OA
BRANCH   7   8
HETATM    8  C   UNK N   1      25.963  21.235  -9.814  0.00  0.00     0.209 C 
BRANCH   8   9
HETATM    9  C   UNK N   1      27.435  21.459 -10.180  0.00  0.00     0.262 C 
BRANCH   9  10
HETATM   10  N   UNK N   1      27.629  22.571 -11.116  0.00  0.00    -0.077 N 
HETATM   11  C   UNK N   1      26.713  22.485 -12.242  0.00  0.00     0.271 C 
HETATM   12  C   UNK N   1      28.998  22.610 -11.606  0.00  0.00     0.271 C 
HETATM   13  C   UNK N   1      27.359  23.811 -10.413  0.00  0.00     0.271 C 
ENDBRANCH   9  10
ENDBRANCH   8   9
ENDBRANCH   7   8
ENDBRANCH   4   7
ENDBRANCH   3   4
ENDBRANCH   2   3
ENDBRANCH   1   2
BRANCH   1  14
HETATM   14  C   UNK N   1      25.591  26.517  -6.079  0.00  0.00     0.213 C 
BRANCH  14  15
HETATM   15  O   UNK N   1      25.077  26.904  -4.860  0.00  0.00    -0.319 OA
BRANCH  15  16
HETATM   16  C   UNK N   1      25.676  27.840  -4.089  0.00  0.00     0.258 C 
HETATM   17  O   UNK N   1      25.478  27.819  -2.881  0.00  0.00    -0.265 OA
BRANCH  16  18
HETATM   18  C   UNK N   1      26.596  28.876  -4.697  0.00  0.00     0.111 C 
BRANCH  18  19
HETATM   19  C   UNK N   1      26.558  30.223  -3.993  0.00  0.00     0.010 C 
BRANCH  19  20
HETATM   20  C   UNK N   1      27.905  30.541  -3.369  0.00  0.00     0.000 C 
BRANCH  20  21
HETATM   21  C   UNK N   1      27.908  30.163  -1.897  0.00  0.00     0.000 C 
BRANCH  21  22
HETATM   22  C   UNK N   1      29.329  30.040  -1.362  0.00  0.00     0.000 C 
BRANCH  22  23
HETATM   23  C   UNK N   1      30.321  29.922  -2.506  0.00  0.00     0.000 C 
BRANCH  23  24
HETATM   24  C   UNK N   1      31.366  28.870  -2.187  0.00  0.00     0.000 C 
BRANCH  24  25
HETATM   25  C   UNK N   1      31.069  27.580  -2.933  0.00  0.00     0.000 C 
BRANCH  25  26
HETATM   26  C   UNK N   1      30.194  27.837  -4.147  0.00  0.00     0.000 C 
BRANCH  26  27
HETATM   27  C   UNK N   1      31.046  28.022  -5.392  0.00  0.00     0.000 C 
BRANCH  27  28
HETATM   28  C   UNK N   1      30.393  29.011  -6.339  0.00  0.00     0.000 C 
BRANCH  28  29
HETATM   29  C   UNK N   1      30.411  28.468  -7.758  0.00  0.00     0.000 C 
BRANCH  29  30
HETATM   30  C   UNK N   1      29.065  28.687  -8.421  0.00  0.00    -0.000 C 
BRANCH  30  31
HETATM   31  C   UNK N   1      28.246  27.411  -8.368  0.00  0.00    -0.005 C 
HETATM   32  C   UNK N   1      29.170  26.222  -8.213  0.00  0.00     0.005 C 
ENDBRANCH  30  31
ENDBRANCH  29  30
ENDBRANCH  28  29
ENDBRANCH  27  28
ENDBRANCH  26  27
ENDBRANCH  25  26
ENDBRANCH  24  25
ENDBRANCH  23  24
ENDBRANCH  22  23
ENDBRANCH  21  22
ENDBRANCH  20  21
ENDBRANCH  19  20
ENDBRANCH  18  19
ENDBRANCH  16  18
ENDBRANCH  15  16
ENDBRANCH  14  15
ENDBRANCH   1  14
BRANCH   1  33
HETATM   33  O   UNK N   1      26.041  24.654  -4.679  0.00  0.00    -0.312 OA
BRANCH  33  34
HETATM   34  C   UNK N   1      26.993  24.355  -3.767  0.00  0.00     0.259 C 
HETATM   35  O   UNK N   1      26.668  24.181  -2.604  0.00  0.00    -0.265 OA
BRANCH  34  36
HETATM   36  C   UNK N   1      28.435  24.201  -4.166  0.00  0.00     0.111 C 
BRANCH  36  37
HETATM   37  C   UNK N   1      29.246  23.557  -3.050  0.00  0.00     0.010 C 
BRANCH  37  38
HETATM   38  C   UNK N   1      30.726  23.869  -3.215  0.00  0.00     0.000 C 
BRANCH  38  39
HETATM   39  C   UNK N   1      31.025  24.313  -4.637  0.00  0.00     0.000 C 
BRANCH  39  40
HETATM   40  C   UNK N   1      32.506  24.624  -4.805  0.00  0.00     0.000 C 
BRANCH  40  41
HETATM   41  C   UNK N   1      33.154  23.636  -5.757  0.00  0.00     0.000 C 
BRANCH  41  42
HETATM   42  C   UNK N   1      33.709  22.450  -4.988  0.00  0.00     0.000 C 
BRANCH  42  43
HETATM   43  C   UNK N   1      33.192  21.142  -5.564  0.00  0.00     0.000 C 
BRANCH  43  44
HETATM   44  C   UNK N   1      32.367  20.395  -4.527  0.00  0.00     0.000 C 
BRANCH  44  45
HETATM   45  C   UNK N   1      30.875  20.587  -4.744  0.00  0.00     0.000 C 
BRANCH  45  46
HETATM   46  C   UNK N   1      30.518  20.537  -6.222  0.00  0.00     0.000 C 
BRANCH  46  47
HETATM   47  C   UNK N   1      29.359  21.476  -6.509  0.00  0.00     0.000 C 
BRANCH  47  48
HETATM   48  C   UNK N   1      29.799  22.564  -7.470  0.00  0.00    -0.000 C 
BRANCH  48  49
HETATM   49  C   UNK N   1      30.906  22.037  -8.358  0.00  0.00    -0.005 C 
HETATM   50  C   UNK N   1      31.615  23.202  -9.016  0.00  0.00     0.005 C 
ENDBRANCH  48  49
ENDBRANCH  47  48
ENDBRANCH  46  47
ENDBRANCH  45  46
ENDBRANCH  44  45
ENDBRANCH  43  44
ENDBRANCH  42  43
ENDBRANCH  41  42
ENDBRANCH  40  41
ENDBRANCH  39  40
ENDBRANCH  38  39
ENDBRANCH  37  38
ENDBRANCH  36  37
ENDBRANCH  34  36
ENDBRANCH  33  34
ENDBRANCH   1  33
TORSDOF 40
ENDMDL
MODEL 7
REMARK VINA RESULT:      -4.3      2.562      6.039
REMARK WARNING: 32 MAX_TORS EXCEEDED!!!
REMARK  40 active torsions:
REMARK  status: ('A' for Active; 'I' for Inactive)
REMARK    1  A    between atoms: C_1  and  C_2 
REMARK    2  A    between atoms: C_1  and  N_26 
REMARK    3  A    between atoms: C_2  and  O_3 
REMARK    4  A    between atoms: O_3  and  P_4 
REMARK    5  A    between atoms: P_4  and  O_5 
REMARK    6  A    between atoms: O_5  and  C_6 
REMARK    7  A    between atoms: C_6  and  C_7 
REMARK    8  A    between atoms: C_7  and  C_8 
REMARK    9  A    between atoms: C_7  and  O_28 
REMARK   10  A    between atoms: C_8  and  O_9 
REMARK   11  A    between atoms: O_9  and  C_10 
REMARK   12  A    between atoms: C_10  and  C_11 
REMARK   13  A    between atoms: C_11  and  C_12 
REMARK   14  A    between atoms: C_12  and  C_13 
REMARK   15  A    between atoms: C_13  and  C_14 
REMARK   16  A    between atoms: C_14  and  C_15 
REMARK   17  A    between atoms: C_15  and  C_16 
REMARK   18  A    between atoms: C_16  and  C_17 
REMARK   19  A    between atoms: C_17  and  C_18 
REMARK   20  A    between atoms: C_18  and  C_19 
REMARK   21  A    between atoms: C_19  and  C_20 
REMARK   22  A    between atoms: C_20  and  C_21 
REMARK   23  A    between atoms: C_21  and  C_22 
REMARK   24  A    between atoms: C_22  and  C_23 
REMARK   25  A    between atoms: C_23  and  C_24 
REMARK   26  A    between atoms: O_28  and  C_29 
REMARK   27  A    between atoms: C_29  and  C_30 
REMARK   28  A    between atoms: C_30  and  C_31 
REMARK   29  A    between atoms: C_31  and  C_32 
REMARK   30  A    between atoms: C_32  and  C_33 
REMARK   31  A    between atoms: C_33  and  C_34 
REMARK   32  A    between atoms: C_34  and  C_35 
REMARK   33  A    between atoms: C_35  and  C_36 
REMARK   34  A    between atoms: C_36  and  C_37 
REMARK   35  A    between atoms: C_37  and  C_38 
REMARK   36  A    between atoms: C_38  and  C_39 
REMARK   37  A    between atoms: C_39  and  C_40 
REMARK   38  A    between atoms: C_40  and  C_41 
REMARK   39  A    between atoms: C_41  and  C_42 
REMARK   40  A    between atoms: C_42  and  C_43 
ROOT
HETATM    1  C   UNK N   1      23.169  19.062   3.747  0.00  0.00     0.180 C 
ENDROOT
BRANCH   1   2
HETATM    2  C   UNK N   1      24.587  19.628   3.714  0.00  0.00     0.216 C 
BRANCH   2   3
HETATM    3  O   UNK N   1      25.354  19.107   4.761  0.00  0.00    -0.287 OA
BRANCH   3   4
HETATM    4  P   UNK N   1      26.976  19.617   4.437  0.00  0.00     0.408 P 
HETATM    5  O   UNK N   1      26.880  20.659   3.292  0.00  0.00    -0.624 OA
HETATM    6  O   UNK N   1      27.905  18.286   3.819  0.00  0.00    -0.624 OA
BRANCH   4   7
HETATM    7  O   UNK N   1      27.730  20.422   5.791  0.00  0.00    -0.288 OA
BRANCH   7   8
HETATM    8  C   UNK N   1      27.442  19.631   6.907  0.00  0.00     0.209 C 
BRANCH   8   9
HETATM    9  C   UNK N   1      28.738  19.109   7.540  0.00  0.00     0.262 C 
BRANCH   9  10
HETATM   10  N   UNK N   1      28.642  17.711   7.970  0.00  0.00    -0.077 N 
HETATM   11  C   UNK N   1      27.774  16.942   7.092  0.00  0.00     0.271 C 
HETATM   12  C   UNK N   1      28.156  17.615   9.338  0.00  0.00     0.271 C 
HETATM   13  C   UNK N   1      29.967  17.124   7.913  0.00  0.00     0.271 C 
ENDBRANCH   9  10
ENDBRANCH   8   9
ENDBRANCH   7   8
ENDBRANCH   4   7
ENDBRANCH   3   4
ENDBRANCH   2   3
ENDBRANCH   1   2
BRANCH   1  14
HETATM   14  C   UNK N   1      22.940  18.323   5.056  0.00  0.00     0.213 C 
BRANCH  14  15
HETATM   15  O   UNK N   1      21.844  18.861   5.696  0.00  0.00    -0.319 OA
BRANCH  15  16
HETATM   16  C   UNK N   1      21.130  18.167   6.610  0.00  0.00     0.258 C 
HETATM   17  O   UNK N   1      20.781  18.734   7.637  0.00  0.00    -0.265 OA
BRANCH  16  18
HETATM   18  C   UNK N   1      20.740  16.726   6.361  0.00  0.00     0.111 C 
BRANCH  18  19
HETATM   19  C   UNK N   1      21.620  15.716   7.081  0.00  0.00     0.010 C 
BRANCH  19  20
HETATM   20  C   UNK N   1      21.034  15.364   8.436  0.00  0.00     0.000 C 
BRANCH  20  21
HETATM   21  C   UNK N   1      21.104  13.864   8.670  0.00  0.00     0.000 C 
BRANCH  21  22
HETATM   22  C   UNK N   1      22.017  13.530   9.842  0.00  0.00     0.000 C 
BRANCH  22  23
HETATM   23  C   UNK N   1      23.108  12.565   9.411  0.00  0.00     0.000 C 
BRANCH  23  24
HETATM   24  C   UNK N   1      24.463  13.240   9.484  0.00  0.00     0.000 C 
BRANCH  24  25
HETATM   25  C   UNK N   1      25.051  13.410   8.093  0.00  0.00     0.000 C 
BRANCH  25  26
HETATM   26  C   UNK N   1      24.152  12.788   7.038  0.00  0.00     0.000 C 
BRANCH  26  27
HETATM   27  C   UNK N   1      24.338  13.482   5.700  0.00  0.00     0.000 C 
BRANCH  27  28
HETATM   28  C   UNK N   1      25.568  12.948   4.991  0.00  0.00     0.000 C 
BRANCH  28  29
HETATM   29  C   UNK N   1      26.328  14.085   4.329  0.00  0.00     0.000 C 
BRANCH  29  30
HETATM   30  C   UNK N   1      25.495  15.352   4.345  0.00  0.00    -0.000 C 
BRANCH  30  31
HETATM   31  C   UNK N   1      25.601  16.060   3.008  0.00  0.00    -0.005 C 
HETATM   32  C   UNK N   1      26.426  15.224   2.055  0.00  0.00     0.005 C 
ENDBRANCH  30  31
ENDBRANCH  29  30
ENDBRANCH  28  29
ENDBRANCH  27  28
ENDBRANCH  26  27
ENDBRANCH  25  26
ENDBRANCH  24  25
ENDBRANCH  23  24
ENDBRANCH  22  23
ENDBRANCH  21  22
ENDBRANCH  20  21
ENDBRANCH  19  20
ENDBRANCH  18  19
ENDBRANCH  16  18
ENDBRANCH  15  16
ENDBRANCH  14  15
ENDBRANCH   1  14
BRANCH   1  33
HETATM   33  O   UNK N   1      22.246  20.081   3.620  0.00  0.00    -0.312 OA
BRANCH  33  34
HETATM   34  C   UNK N   1      21.413  20.196   2.562  0.00  0.00     0.259 C 
HETATM   35  O   UNK N   1      21.775  20.835   1.587  0.00  0.00    -0.265 OA
BRANCH  34  36
HETATM   36  C   UNK N   1      20.067  19.525   2.551  0.00  0.00     0.111 C 
BRANCH  36  37
HETATM   37  C   UNK N   1      20.114  18.218   1.773  0.00  0.00     0.010 C 
BRANCH  37  38
HETATM   38  C   UNK N   1      19.954  17.031   2.711  0.00  0.00     0.000 C 
BRANCH  38  39
HETATM   39  C   UNK N   1      20.644  15.801   2.143  0.00  0.00     0.000 C 
BRANCH  39  40
HETATM   40  C   UNK N   1      21.989  15.576   2.820  0.00  0.00     0.000 C 
BRANCH  40  41
HETATM   41  C   UNK N   1      22.334  14.098   2.843  0.00  0.00     0.000 C 
BRANCH  41  42
HETATM   42  C   UNK N   1      23.086  13.715   1.582  0.00  0.00     0.000 C 
BRANCH  42  43
HETATM   43  C   UNK N   1      23.099  12.206   1.397  0.00  0.00     0.000 C 
BRANCH  43  44
HETATM   44  C   UNK N   1      22.133  11.798   0.295  0.00  0.00     0.000 C 
BRANCH  44  45
HETATM   45  C   UNK N   1      20.803  11.319   0.854  0.00  0.00     0.000 C 
BRANCH  45  46
HETATM   46  C   UNK N   1      19.727  12.386   0.716  0.00  0.00     0.000 C 
BRANCH  46  47
HETATM   47  C   UNK N   1      18.984  12.547   2.030  0.00  0.00     0.000 C 
BRANCH  47  48
HETATM   48  C   UNK N   1      19.657  11.724   3.111  0.00  0.00    -0.000 C 
BRANCH  48  49
HETATM   49  C   UNK N   1      19.102  12.112   4.464  0.00  0.00    -0.005 C 
HETATM   50  C   UNK N   1      18.971  13.619   4.537  0.00  0.00     0.005 C 
ENDBRANCH  48  49
ENDBRANCH  47  48
ENDBRANCH  46  47
ENDBRANCH  45  46
ENDBRANCH  44  45
ENDBRANCH  43  44
ENDBRANCH  42  43
ENDBRANCH  41  42
ENDBRANCH  40  41
ENDBRANCH  39  40
ENDBRANCH  38  39
ENDBRANCH  37  38
ENDBRANCH  36  37
ENDBRANCH  34  36
ENDBRANCH  33  34
ENDBRANCH   1  33
TORSDOF 40
ENDMDL
MODEL 8
REMARK VINA RESULT:      -4.3      8.854     11.930
REMARK WARNING: 32 MAX_TORS EXCEEDED!!!
REMARK  40 active torsions:
REMARK  status: ('A' for Active; 'I' for Inactive)
REMARK    1  A    between atoms: C_1  and  C_2 
REMARK    2  A    between atoms: C_1  and  N_26 
REMARK    3  A    between atoms: C_2  and  O_3 
REMARK    4  A    between atoms: O_3  and  P_4 
REMARK    5  A    between atoms: P_4  and  O_5 
REMARK    6  A    between atoms: O_5  and  C_6 
REMARK    7  A    between atoms: C_6  and  C_7 
REMARK    8  A    between atoms: C_7  and  C_8 
REMARK    9  A    between atoms: C_7  and  O_28 
REMARK   10  A    between atoms: C_8  and  O_9 
REMARK   11  A    between atoms: O_9  and  C_10 
REMARK   12  A    between atoms: C_10  and  C_11 
REMARK   13  A    between atoms: C_11  and  C_12 
REMARK   14  A    between atoms: C_12  and  C_13 
REMARK   15  A    between atoms: C_13  and  C_14 
REMARK   16  A    between atoms: C_14  and  C_15 
REMARK   17  A    between atoms: C_15  and  C_16 
REMARK   18  A    between atoms: C_16  and  C_17 
REMARK   19  A    between atoms: C_17  and  C_18 
REMARK   20  A    between atoms: C_18  and  C_19 
REMARK   21  A    between atoms: C_19  and  C_20 
REMARK   22  A    between atoms: C_20  and  C_21 
REMARK   23  A    between atoms: C_21  and  C_22 
REMARK   24  A    between atoms: C_22  and  C_23 
REMARK   25  A    between atoms: C_23  and  C_24 
REMARK   26  A    between atoms: O_28  and  C_29 
REMARK   27  A    between atoms: C_29  and  C_30 
REMARK   28  A    between atoms: C_30  and  C_31 
REMARK   29  A    between atoms: C_31  and  C_32 
REMARK   30  A    between atoms: C_32  and  C_33 
REMARK   31  A    between atoms: C_33  and  C_34 
REMARK   32  A    between atoms: C_34  and  C_35 
REMARK   33  A    between atoms: C_35  and  C_36 
REMARK   34  A    between atoms: C_36  and  C_37 
REMARK   35  A    between atoms: C_37  and  C_38 
REMARK   36  A    between atoms: C_38  and  C_39 
REMARK   37  A    between atoms: C_39  and  C_40 
REMARK   38  A    between atoms: C_40  and  C_41 
REMARK   39  A    between atoms: C_41  and  C_42 
REMARK   40  A    between atoms: C_42  and  C_43 
ROOT
HETATM    1  C   UNK N   1      35.230  16.102   9.605  0.00  0.00     0.180 C 
ENDROOT
BRANCH   1   2
HETATM    2  C   UNK N   1      35.957  15.899  10.932  0.00  0.00     0.216 C 
BRANCH   2   3
HETATM    3  O   UNK N   1      35.064  15.505  11.933  0.00  0.00    -0.287 OA
BRANCH   3   4
HETATM    4  P   UNK N   1      35.918  14.325  12.869  0.00  0.00     0.408 P 
HETATM    5  O   UNK N   1      34.835  13.425  13.520  0.00  0.00    -0.624 OA
HETATM    6  O   UNK N   1      36.765  15.101  14.172  0.00  0.00    -0.624 OA
BRANCH   4   7
HETATM    7  O   UNK N   1      36.931  13.279  11.906  0.00  0.00    -0.288 OA
BRANCH   7   8
HETATM    8  C   UNK N   1      37.096  12.115  12.662  0.00  0.00     0.209 C 
BRANCH   8   9
HETATM    9  C   UNK N   1      36.607  10.893  11.875  0.00  0.00     0.262 C 
BRANCH   9  10
HETATM   10  N   UNK N   1      35.835   9.955  12.696  0.00  0.00    -0.077 N 
HETATM   11  C   UNK N   1      34.404  10.137  12.507  0.00  0.00     0.271 C 
HETATM   12  C   UNK N   1      36.161  10.101  14.106  0.00  0.00     0.271 C 
HETATM   13  C   UNK N   1      36.171   8.605  12.285  0.00  0.00     0.271 C 
ENDBRANCH   9  10
ENDBRANCH   8   9
ENDBRANCH   7   8
ENDBRANCH   4   7
ENDBRANCH   3   4
ENDBRANCH   2   3
ENDBRANCH   1   2
BRANCH   1  14
HETATM   14  C   UNK N   1      34.337  14.904   9.319  0.00  0.00     0.213 C 
BRANCH  14  15
HETATM   15  O   UNK N   1      34.493  14.525   8.003  0.00  0.00    -0.319 OA
BRANCH  15  16
HETATM   16  C   UNK N   1      33.449  14.139   7.235  0.00  0.00     0.258 C 
HETATM   17  O   UNK N   1      32.326  14.148   7.723  0.00  0.00    -0.265 OA
BRANCH  16  18
HETATM   18  C   UNK N   1      33.654  13.733   5.791  0.00  0.00     0.111 C 
BRANCH  18  19
HETATM   19  C   UNK N   1      32.799  14.512   4.805  0.00  0.00     0.010 C 
BRANCH  19  20
HETATM   20  C   UNK N   1      33.670  15.217   3.780  0.00  0.00     0.000 C 
BRANCH  20  21
HETATM   21  C   UNK N   1      32.878  16.303   3.071  0.00  0.00     0.000 C 
BRANCH  21  22
HETATM   22  C   UNK N   1      32.518  17.436   4.023  0.00  0.00     0.000 C 
BRANCH  22  23
HETATM   23  C   UNK N   1      31.010  17.586   4.127  0.00  0.00     0.000 C 
BRANCH  23  24
HETATM   24  C   UNK N   1      30.322  16.649   3.153  0.00  0.00     0.000 C 
BRANCH  24  25
HETATM   25  C   UNK N   1      28.828  16.596   3.429  0.00  0.00     0.000 C 
BRANCH  25  26
HETATM   26  C   UNK N   1      28.504  15.571   4.503  0.00  0.00     0.000 C 
BRANCH  26  27
HETATM   27  C   UNK N   1      27.244  14.803   4.147  0.00  0.00     0.000 C 
BRANCH  27  28
HETATM   28  C   UNK N   1      26.968  14.896   2.658  0.00  0.00     0.000 C 
BRANCH  28  29
HETATM   29  C   UNK N   1      26.728  13.511   2.081  0.00  0.00     0.000 C 
BRANCH  29  30
HETATM   30  C   UNK N   1      27.927  12.620   2.340  0.00  0.00    -0.000 C 
BRANCH  30  31
HETATM   31  C   UNK N   1      29.064  12.995   1.408  0.00  0.00    -0.005 C 
HETATM   32  C   UNK N   1      30.357  13.073   2.190  0.00  0.00     0.005 C 
ENDBRANCH  30  31
ENDBRANCH  29  30
ENDBRANCH  28  29
ENDBRANCH  27  28
ENDBRANCH  26  27
ENDBRANCH  25  26
ENDBRANCH  24  25
ENDBRANCH  23  24
ENDBRANCH  22  23
ENDBRANCH  21  22
ENDBRANCH  20  21
ENDBRANCH  19  20
ENDBRANCH  18  19
ENDBRANCH  16  18
ENDBRANCH  15  16
ENDBRANCH  14  15
ENDBRANCH   1  14
BRANCH   1  33
HETATM   33  O   UNK N   1      34.465  17.251   9.652  0.00  0.00    -0.312 OA
BRANCH  33  34
HETATM   34  C   UNK N   1      34.236  18.030   8.571  0.00  0.00     0.259 C 
HETATM   35  O   UNK N   1      35.016  18.933   8.313  0.00  0.00    -0.265 OA
BRANCH  34  36
HETATM   36  C   UNK N   1      33.061  17.783   7.665  0.00  0.00     0.111 C 
BRANCH  36  37
HETATM   37  C   UNK N   1      31.764  18.248   8.311  0.00  0.00     0.010 C 
BRANCH  37  38
HETATM   38  C   UNK N   1      30.594  17.402   7.832  0.00  0.00     0.000 C 
BRANCH  38  39
HETATM   39  C   UNK N   1      29.425  17.507   8.797  0.00  0.00     0.000 C 
BRANCH  39  40
HETATM   40  C   UNK N   1      28.350  18.430   8.244  0.00  0.00     0.000 C 
BRANCH  40  41
HETATM   41  C   UNK N   1      28.292  18.335   6.730  0.00  0.00     0.000 C 
BRANCH  41  42
HETATM   42  C   UNK N   1      27.686  19.598   6.146  0.00  0.00     0.000 C 
BRANCH  42  43
HETATM   43  C   UNK N   1      28.222  19.858   4.748  0.00  0.00     0.000 C 
BRANCH  43  44
HETATM   44  C   UNK N   1      27.078  20.124   3.782  0.00  0.00     0.000 C 
BRANCH  44  45
HETATM   45  C   UNK N   1      25.755  19.589   4.307  0.00  0.00     0.000 C 
BRANCH  45  46
HETATM   46  C   UNK N   1      25.451  18.211   3.739  0.00  0.00     0.000 C 
BRANCH  46  47
HETATM   47  C   UNK N   1      24.618  17.414   4.728  0.00  0.00     0.000 C 
BRANCH  47  48
HETATM   48  C   UNK N   1      23.211  17.976   4.791  0.00  0.00    -0.000 C 
BRANCH  48  49
HETATM   49  C   UNK N   1      22.404  17.207   5.815  0.00  0.00    -0.005 C 
HETATM   50  C   UNK N   1      21.339  18.113   6.396  0.00  0.00     0.005 C 
ENDBRANCH  48  49
ENDBRANCH  47  48
ENDBRANCH  46  47
ENDBRANCH  45  46
ENDBRANCH  44  45
ENDBRANCH  43  44
ENDBRANCH  42  43
ENDBRANCH  41  42
ENDBRANCH  40  41
ENDBRANCH  39  40
ENDBRANCH  38  39
ENDBRANCH  37  38
ENDBRANCH  36  37
ENDBRANCH  34  36
ENDBRANCH  33  34
ENDBRANCH   1  33
TORSDOF 40
ENDMDL
MODEL 9
REMARK VINA RESULT:      -4.3      9.363     12.381
REMARK WARNING: 32 MAX_TORS EXCEEDED!!!
REMARK  40 active torsions:
REMARK  status: ('A' for Active; 'I' for Inactive)
REMARK    1  A    between atoms: C_1  and  C_2 
REMARK    2  A    between atoms: C_1  and  N_26 
REMARK    3  A    between atoms: C_2  and  O_3 
REMARK    4  A    between atoms: O_3  and  P_4 
REMARK    5  A    between atoms: P_4  and  O_5 
REMARK    6  A    between atoms: O_5  and  C_6 
REMARK    7  A    between atoms: C_6  and  C_7 
REMARK    8  A    between atoms: C_7  and  C_8 
REMARK    9  A    between atoms: C_7  and  O_28 
REMARK   10  A    between atoms: C_8  and  O_9 
REMARK   11  A    between atoms: O_9  and  C_10 
REMARK   12  A    between atoms: C_10  and  C_11 
REMARK   13  A    between atoms: C_11  and  C_12 
REMARK   14  A    between atoms: C_12  and  C_13 
REMARK   15  A    between atoms: C_13  and  C_14 
REMARK   16  A    between atoms: C_14  and  C_15 
REMARK   17  A    between atoms: C_15  and  C_16 
REMARK   18  A    between atoms: C_16  and  C_17 
REMARK   19  A    between atoms: C_17  and  C_18 
REMARK   20  A    between atoms: C_18  and  C_19 
REMARK   21  A    between atoms: C_19  and  C_20 
REMARK   22  A    between atoms: C_20  and  C_21 
REMARK   23  A    between atoms: C_21  and  C_22 
REMARK   24  A    between atoms: C_22  and  C_23 
REMARK   25  A    between atoms: C_23  and  C_24 
REMARK   26  A    between atoms: O_28  and  C_29 
REMARK   27  A    between atoms: C_29  and  C_30 
REMARK   28  A    between atoms: C_30  and  C_31 
REMARK   29  A    between atoms: C_31  and  C_32 
REMARK   30  A    between atoms: C_32  and  C_33 
REMARK   31  A    between atoms: C_33  and  C_34 
REMARK   32  A    between atoms: C_34  and  C_35 
REMARK   33  A    between atoms: C_35  and  C_36 
REMARK   34  A    between atoms: C_36  and  C_37 
REMARK   35  A    between atoms: C_37  and  C_38 
REMARK   36  A    between atoms: C_38  and  C_39 
REMARK   37  A    between atoms: C_39  and  C_40 
REMARK   38  A    between atoms: C_40  and  C_41 
REMARK   39  A    between atoms: C_41  and  C_42 
REMARK   40  A    between atoms: C_42  and  C_43 
ROOT
HETATM    1  C   UNK N   1      35.271  16.449   9.709  0.00  0.00     0.180 C 
ENDROOT
BRANCH   1   2
HETATM    2  C   UNK N   1      35.437  15.995  11.158  0.00  0.00     0.216 C 
BRANCH   2   3
HETATM    3  O   UNK N   1      36.550  15.160  11.292  0.00  0.00    -0.287 OA
BRANCH   3   4
HETATM    4  P   UNK N   1      36.168  14.098  12.604  0.00  0.00     0.408 P 
HETATM    5  O   UNK N   1      37.024  12.822  12.389  0.00  0.00    -0.624 OA
HETATM    6  O   UNK N   1      34.507  13.601  12.502  0.00  0.00    -0.624 OA
BRANCH   4   7
HETATM    7  O   UNK N   1      36.607  14.743  14.166  0.00  0.00    -0.288 OA
BRANCH   7   8
HETATM    8  C   UNK N   1      36.875  13.631  14.970  0.00  0.00     0.209 C 
BRANCH   8   9
HETATM    9  C   UNK N   1      35.604  13.182  15.703  0.00  0.00     0.262 C 
BRANCH   9  10
HETATM   10  N   UNK N   1      35.576  11.740  15.969  0.00  0.00    -0.077 N 
HETATM   11  C   UNK N   1      35.450  11.463  17.391  0.00  0.00     0.271 C 
HETATM   12  C   UNK N   1      36.770  11.089  15.452  0.00  0.00     0.271 C 
HETATM   13  C   UNK N   1      34.420  11.175  15.299  0.00  0.00     0.271 C 
ENDBRANCH   9  10
ENDBRANCH   8   9
ENDBRANCH   7   8
ENDBRANCH   4   7
ENDBRANCH   3   4
ENDBRANCH   2   3
ENDBRANCH   1   2
BRANCH   1  14
HETATM   14  C   UNK N   1      34.983  15.246   8.824  0.00  0.00     0.213 C 
BRANCH  14  15
HETATM   15  O   UNK N   1      33.770  14.697   9.183  0.00  0.00    -0.319 OA
BRANCH  15  16
HETATM   16  C   UNK N   1      33.067  13.896   8.352  0.00  0.00     0.258 C 
HETATM   17  O   UNK N   1      32.667  12.819   8.774  0.00  0.00    -0.265 OA
BRANCH  16  18
HETATM   18  C   UNK N   1      32.751  14.329   6.936  0.00  0.00     0.111 C 
BRANCH  18  19
HETATM   19  C   UNK N   1      31.351  14.898   6.764  0.00  0.00     0.010 C 
BRANCH  19  20
HETATM   20  C   UNK N   1      30.778  14.511   5.413  0.00  0.00     0.000 C 
BRANCH  20  21
HETATM   21  C   UNK N   1      29.758  15.541   4.957  0.00  0.00     0.000 C 
BRANCH  21  22
HETATM   22  C   UNK N   1      30.327  16.434   3.861  0.00  0.00     0.000 C 
BRANCH  22  23
HETATM   23  C   UNK N   1      31.046  17.627   4.466  0.00  0.00     0.000 C 
BRANCH  23  24
HETATM   24  C   UNK N   1      32.519  17.588   4.107  0.00  0.00     0.000 C 
BRANCH  24  25
HETATM   25  C   UNK N   1      32.778  16.548   3.030  0.00  0.00     0.000 C 
BRANCH  25  26
HETATM   26  C   UNK N   1      33.761  15.494   3.510  0.00  0.00     0.000 C 
BRANCH  26  27
HETATM   27  C   UNK N   1      33.542  14.183   2.776  0.00  0.00     0.000 C 
BRANCH  27  28
HETATM   28  C   UNK N   1      34.686  13.914   1.817  0.00  0.00     0.000 C 
BRANCH  28  29
HETATM   29  C   UNK N   1      34.866  12.419   1.619  0.00  0.00     0.000 C 
BRANCH  29  30
HETATM   30  C   UNK N   1      34.898  11.713   2.962  0.00  0.00    -0.000 C 
BRANCH  30  31
HETATM   31  C   UNK N   1      36.328  11.606   3.458  0.00  0.00    -0.005 C 
HETATM   32  C   UNK N   1      36.462  10.401   4.363  0.00  0.00     0.005 C 
ENDBRANCH  30  31
ENDBRANCH  29  30
ENDBRANCH  28  29
ENDBRANCH  27  28
ENDBRANCH  26  27
ENDBRANCH  25  26
ENDBRANCH  24  25
ENDBRANCH  23  24
ENDBRANCH  22  23
ENDBRANCH  21  22
ENDBRANCH  20  21
ENDBRANCH  19  20
ENDBRANCH  18  19
ENDBRANCH  16  18
ENDBRANCH  15  16
ENDBRANCH  14  15
ENDBRANCH   1  14
BRANCH   1  33
HETATM   33  O   UNK N   1      34.237  17.358   9.610  0.00  0.00    -0.312 OA
BRANCH  33  34
HETATM   34  C   UNK N   1      34.075  18.180   8.548  0.00  0.00     0.259 C 
HETATM   35  O   UNK N   1      34.974  18.949   8.249  0.00  0.00    -0.265 OA
BRANCH  34  36
HETATM   36  C   UNK N   1      32.826  18.138   7.712  0.00  0.00     0.111 C 
BRANCH  36  37
HETATM   37  C   UNK N   1      31.669  17.522   8.486  0.00  0.00     0.010 C 
BRANCH  37  38
HETATM   38  C   UNK N   1      30.541  18.528   8.654  0.00  0.00     0.000 C 
BRANCH  38  39
HETATM   39  C   UNK N   1      29.193  17.870   8.408  0.00  0.00     0.000 C 
BRANCH  39  40
HETATM   40  C   UNK N   1      28.584  18.360   7.103  0.00  0.00     0.000 C 
BRANCH  40  41
HETATM   41  C   UNK N   1      27.808  19.645   7.325  0.00  0.00     0.000 C 
BRANCH  41  42
HETATM   42  C   UNK N   1      27.790  20.476   6.055  0.00  0.00     0.000 C 
BRANCH  42  43
HETATM   43  C   UNK N   1      27.986  19.597   4.830  0.00  0.00     0.000 C 
BRANCH  43  44
HETATM   44  C   UNK N   1      27.056  20.033   3.709  0.00  0.00     0.000 C 
BRANCH  44  45
HETATM   45  C   UNK N   1      25.622  19.593   3.955  0.00  0.00     0.000 C 
BRANCH  45  46
HETATM   46  C   UNK N   1      25.569  18.229   4.627  0.00  0.00     0.000 C 
BRANCH  46  47
HETATM   47  C   UNK N   1      25.364  17.144   3.584  0.00  0.00     0.000 C 
BRANCH  47  48
HETATM   48  C   UNK N   1      26.368  16.027   3.795  0.00  0.00    -0.000 C 
BRANCH  48  49
HETATM   49  C   UNK N   1      26.947  15.608   2.461  0.00  0.00    -0.005 C 
HETATM   50  C   UNK N   1      25.819  15.352   1.484  0.00  0.00     0.005 C 
ENDBRANCH  48  49
ENDBRANCH  47  48
ENDBRANCH  46  47
ENDBRANCH  45  46
ENDBRANCH  44  45
ENDBRANCH  43  44
ENDBRANCH  42  43
ENDBRANCH  41  42
ENDBRANCH  40  41
ENDBRANCH  39  40
ENDBRANCH  38  39
ENDBRANCH  37  38
ENDBRANCH  36  37
ENDBRANCH  34  36
ENDBRANCH  33  34
ENDBRANCH   1  33
TORSDOF 40
ENDMDL
