REMARK  1 active torsions:
REMARK  status: ('A' for Active; 'I' for Inactive)
REMARK    1  A    between atoms: C_1  and  O_19 
ROOT
HETATM    1  C   UNK N   1       4.565   0.701  -0.256  0.00  0.00     0.066 A 
HETATM    2  C   UNK N   1       3.602   1.704  -0.171  0.00  0.00     0.044 A 
HETATM    3  C   UNK N   1       2.242   1.382  -0.148  0.00  0.00    -0.045 A 
HETATM    4  C   UNK N   1       1.836   0.030  -0.210  0.00  0.00    -0.043 A 
HETATM    5  C   UNK N   1       2.816  -0.972  -0.300  0.00  0.00     0.011 A 
HETATM    6  C   UNK N   1       4.174  -0.638  -0.320  0.00  0.00     0.037 A 
HETATM    7  C   UNK N   1       1.263   2.509  -0.081  0.00  0.00     0.066 A 
HETATM    8  C   UNK N   1      -0.171   2.090  -0.026  0.00  0.00    -0.018 A 
HETATM    9  C   UNK N   1      -0.586   0.820  -0.120  0.00  0.00    -0.070 A 
HETATM   10  C   UNK N   1       0.371  -0.358  -0.225  0.00  0.00     0.048 A 
HETATM   11  C   UNK N   1      -2.042   0.523   0.115  0.00  0.00     0.031 C 
HETATM   12  C   UNK N   1      -2.378  -0.965   0.017  0.00  0.00     0.024 C 
HETATM   13  C   UNK N   1      -1.508  -1.702   1.051  0.00  0.00     0.018 C 
HETATM   14  C   UNK N   1       0.016  -1.354   0.918  0.00  0.00     0.015 C 
HETATM   15  C   UNK N   1      -3.132   1.215  -0.685  0.00  0.00     0.018 C 
HETATM   16  C   UNK N   1      -4.392   0.479  -0.193  0.00  0.00     0.080 C 
HETATM   17  C   UNK N   1      -3.847  -0.858   0.216  0.00  0.00     0.136 C 
HETATM   18  C   UNK N   1      -2.180  -1.583  -1.371  0.00  0.00     0.024 C 
HETATM   19  O   UNK N   1      -4.567  -1.810   0.478  0.00  0.00    -0.297 OA
ENDROOT
BRANCH   1  20
HETATM   20  O   UNK N   1       5.868   1.025  -0.282  0.00  0.00    -0.361 OA
HETATM   21  H   UNK N   1       6.519   0.351  -0.300  0.00  0.00     0.217 HD
ENDBRANCH   1  20
TORSDOF 1
