MODEL 1
REMARK VINA RESULT:      -7.6      0.000      0.000
REMARK  1 active torsions:
REMARK  status: ('A' for Active; 'I' for Inactive)
REMARK    1  A    between atoms: C_1  and  O_19 
ROOT
HETATM    1  C   UNK N   1      35.300  10.529  20.416  0.00  0.00     0.066 A 
HETATM    2  C   UNK N   1      35.265  11.831  19.921  0.00  0.00     0.044 A 
HETATM    3  C   UNK N   1      35.263  12.068  18.544  0.00  0.00    -0.045 A 
HETATM    4  C   UNK N   1      35.294  10.981  17.641  0.00  0.00    -0.043 A 
HETATM    5  C   UNK N   1      35.333   9.673  18.152  0.00  0.00     0.011 A 
HETATM    6  C   UNK N   1      35.333   9.448  19.532  0.00  0.00     0.037 A 
HETATM    7  C   UNK N   1      35.250  13.489  18.084  0.00  0.00     0.066 A 
HETATM    8  C   UNK N   1      35.214  13.667  16.600  0.00  0.00    -0.018 A 
HETATM    9  C   UNK N   1      35.280  12.658  15.721  0.00  0.00    -0.070 A 
HETATM   10  C   UNK N   1      35.330  11.196  16.142  0.00  0.00     0.048 A 
HETATM   11  C   UNK N   1      35.068  12.962  14.263  0.00  0.00     0.031 C 
HETATM   12  C   UNK N   1      35.130  11.722  13.372  0.00  0.00     0.024 C 
HETATM   13  C   UNK N   1      34.056  10.740  13.875  0.00  0.00     0.018 C 
HETATM   14  C   UNK N   1      34.166  10.460  15.415  0.00  0.00     0.015 C 
HETATM   15  C   UNK N   1      35.912  13.996  13.538  0.00  0.00     0.018 C 
HETATM   16  C   UNK N   1      35.426  13.830  12.086  0.00  0.00     0.080 C 
HETATM   17  C   UNK N   1      34.967  12.401  12.061  0.00  0.00     0.136 C 
HETATM   18  C   UNK N   1      36.495  11.027  13.325  0.00  0.00     0.024 C 
HETATM   19  O   UNK N   1      34.693  11.817  11.023  0.00  0.00    -0.297 OA
ENDROOT
BRANCH   1  20
HETATM   20  O   UNK N   1      35.307  10.317  21.742  0.00  0.00    -0.361 OA
HETATM   21  H   UNK N   1      34.909   9.546  22.095  0.00  0.00     0.217 HD
ENDBRANCH   1  20
TORSDOF 1
ENDMDL
MODEL 2
REMARK VINA RESULT:      -7.4      1.385      6.492
REMARK  1 active torsions:
REMARK  status: ('A' for Active; 'I' for Inactive)
REMARK    1  A    between atoms: C_1  and  O_19 
ROOT
HETATM    1  C   UNK N   1      36.124  14.368  13.502  0.00  0.00     0.066 A 
HETATM    2  C   UNK N   1      35.313  13.236  13.469  0.00  0.00     0.044 A 
HETATM    3  C   UNK N   1      35.178  12.426  14.601  0.00  0.00    -0.045 A 
HETATM    4  C   UNK N   1      35.869  12.754  15.789  0.00  0.00    -0.043 A 
HETATM    5  C   UNK N   1      36.688  13.895  15.808  0.00  0.00     0.011 A 
HETATM    6  C   UNK N   1      36.813  14.699  14.671  0.00  0.00     0.037 A 
HETATM    7  C   UNK N   1      34.311  11.214  14.487  0.00  0.00     0.066 A 
HETATM    8  C   UNK N   1      34.188  10.414  15.744  0.00  0.00    -0.018 A 
HETATM    9  C   UNK N   1      34.858  10.679  16.872  0.00  0.00    -0.070 A 
HETATM   10  C   UNK N   1      35.779  11.881  17.025  0.00  0.00     0.048 A 
HETATM   11  C   UNK N   1      34.517   9.895  18.110  0.00  0.00     0.031 C 
HETATM   12  C   UNK N   1      35.324  10.321  19.336  0.00  0.00     0.024 C 
HETATM   13  C   UNK N   1      35.060  11.820  19.563  0.00  0.00     0.018 C 
HETATM   14  C   UNK N   1      35.305  12.680  18.274  0.00  0.00     0.015 C 
HETATM   15  C   UNK N   1      34.568   8.377  18.126  0.00  0.00     0.018 C 
HETATM   16  C   UNK N   1      34.294   8.074  19.611  0.00  0.00     0.080 C 
HETATM   17  C   UNK N   1      34.793   9.314  20.292  0.00  0.00     0.136 C 
HETATM   18  C   UNK N   1      36.832  10.063  19.240  0.00  0.00     0.024 C 
HETATM   19  O   UNK N   1      34.938   9.387  21.503  0.00  0.00    -0.297 OA
ENDROOT
BRANCH   1  20
HETATM   20  O   UNK N   1      36.248  15.134  12.407  0.00  0.00    -0.361 OA
HETATM   21  H   UNK N   1      36.170  14.752  11.555  0.00  0.00     0.217 HD
ENDBRANCH   1  20
TORSDOF 1
ENDMDL
MODEL 3
REMARK VINA RESULT:      -7.2     22.448     25.413
REMARK  1 active torsions:
REMARK  status: ('A' for Active; 'I' for Inactive)
REMARK    1  A    between atoms: C_1  and  O_19 
ROOT
HETATM    1  C   UNK N   1      31.111  20.499  -4.577  0.00  0.00     0.066 A 
HETATM    2  C   UNK N   1      30.618  21.212  -3.486  0.00  0.00     0.044 A 
HETATM    3  C   UNK N   1      29.716  22.263  -3.675  0.00  0.00    -0.045 A 
HETATM    4  C   UNK N   1      29.298  22.608  -4.979  0.00  0.00    -0.043 A 
HETATM    5  C   UNK N   1      29.805  21.885  -6.071  0.00  0.00     0.011 A 
HETATM    6  C   UNK N   1      30.705  20.834  -5.871  0.00  0.00     0.037 A 
HETATM    7  C   UNK N   1      29.248  23.001  -2.462  0.00  0.00     0.066 A 
HETATM    8  C   UNK N   1      28.260  24.089  -2.735  0.00  0.00    -0.018 A 
HETATM    9  C   UNK N   1      27.874  24.462  -3.962  0.00  0.00    -0.070 A 
HETATM   10  C   UNK N   1      28.350  23.765  -5.228  0.00  0.00     0.048 A 
HETATM   11  C   UNK N   1      26.753  25.458  -4.089  0.00  0.00     0.031 C 
HETATM   12  C   UNK N   1      26.383  25.769  -5.539  0.00  0.00     0.024 C 
HETATM   13  C   UNK N   1      25.995  24.439  -6.210  0.00  0.00     0.018 C 
HETATM   14  C   UNK N   1      27.087  23.327  -6.026  0.00  0.00     0.015 C 
HETATM   15  C   UNK N   1      26.817  26.815  -3.410  0.00  0.00     0.018 C 
HETATM   16  C   UNK N   1      25.546  27.494  -3.954  0.00  0.00     0.080 C 
HETATM   17  C   UNK N   1      25.347  26.801  -5.270  0.00  0.00     0.136 C 
HETATM   18  C   UNK N   1      27.479  26.467  -6.351  0.00  0.00     0.024 C 
HETATM   19  O   UNK N   1      24.550  27.196  -6.108  0.00  0.00    -0.297 OA
ENDROOT
BRANCH   1  20
HETATM   20  O   UNK N   1      31.981  19.494  -4.382  0.00  0.00    -0.361 OA
HETATM   21  H   UNK N   1      32.636  19.309  -5.026  0.00  0.00     0.217 HD
ENDBRANCH   1  20
TORSDOF 1
ENDMDL
MODEL 4
REMARK VINA RESULT:      -7.1     22.129     25.504
REMARK  1 active torsions:
REMARK  status: ('A' for Active; 'I' for Inactive)
REMARK    1  A    between atoms: C_1  and  O_19 
ROOT
HETATM    1  C   UNK N   1      31.465  20.872  -4.014  0.00  0.00     0.066 A 
HETATM    2  C   UNK N   1      30.596  21.008  -5.094  0.00  0.00     0.044 A 
HETATM    3  C   UNK N   1      29.717  22.092  -5.166  0.00  0.00    -0.045 A 
HETATM    4  C   UNK N   1      29.707  23.061  -4.138  0.00  0.00    -0.043 A 
HETATM    5  C   UNK N   1      30.584  22.911  -3.052  0.00  0.00     0.011 A 
HETATM    6  C   UNK N   1      31.461  21.823  -2.992  0.00  0.00     0.037 A 
HETATM    7  C   UNK N   1      28.795  22.162  -6.340  0.00  0.00     0.066 A 
HETATM    8  C   UNK N   1      27.907  23.364  -6.369  0.00  0.00    -0.018 A 
HETATM    9  C   UNK N   1      27.850  24.278  -5.391  0.00  0.00    -0.070 A 
HETATM   10  C   UNK N   1      28.743  24.231  -4.160  0.00  0.00     0.048 A 
HETATM   11  C   UNK N   1      27.036  25.523  -5.621  0.00  0.00     0.031 C 
HETATM   12  C   UNK N   1      27.085  26.501  -4.447  0.00  0.00     0.024 C 
HETATM   13  C   UNK N   1      28.562  26.863  -4.211  0.00  0.00     0.018 C 
HETATM   14  C   UNK N   1      29.479  25.599  -4.062  0.00  0.00     0.015 C 
HETATM   15  C   UNK N   1      25.567  25.451  -5.999  0.00  0.00     0.018 C 
HETATM   16  C   UNK N   1      25.167  26.938  -5.969  0.00  0.00     0.080 C 
HETATM   17  C   UNK N   1      26.142  27.516  -4.986  0.00  0.00     0.136 C 
HETATM   18  C   UNK N   1      26.458  25.984  -3.148  0.00  0.00     0.024 C 
HETATM   19  O   UNK N   1      26.027  28.643  -4.530  0.00  0.00    -0.297 OA
ENDROOT
BRANCH   1  20
HETATM   20  O   UNK N   1      32.301  19.822  -3.956  0.00  0.00    -0.361 OA
HETATM   21  H   UNK N   1      33.147  19.918  -3.565  0.00  0.00     0.217 HD
ENDBRANCH   1  20
TORSDOF 1
ENDMDL
MODEL 5
REMARK VINA RESULT:      -7.1     21.900     25.731
REMARK  1 active torsions:
REMARK  status: ('A' for Active; 'I' for Inactive)
REMARK    1  A    between atoms: C_1  and  O_19 
ROOT
HETATM    1  C   UNK N   1      31.772  21.591  -3.008  0.00  0.00     0.066 A 
HETATM    2  C   UNK N   1      31.658  20.836  -4.173  0.00  0.00     0.044 A 
HETATM    3  C   UNK N   1      30.650  21.111  -5.101  0.00  0.00    -0.045 A 
HETATM    4  C   UNK N   1      29.738  22.164  -4.861  0.00  0.00    -0.043 A 
HETATM    5  C   UNK N   1      29.861  22.915  -3.681  0.00  0.00     0.011 A 
HETATM    6  C   UNK N   1      30.875  22.632  -2.760  0.00  0.00     0.037 A 
HETATM    7  C   UNK N   1      30.570  20.246  -6.317  0.00  0.00     0.066 A 
HETATM    8  C   UNK N   1      29.490  20.618  -7.281  0.00  0.00    -0.018 A 
HETATM    9  C   UNK N   1      28.590  21.586  -7.062  0.00  0.00    -0.070 A 
HETATM   10  C   UNK N   1      28.609  22.470  -5.824  0.00  0.00     0.048 A 
HETATM   11  C   UNK N   1      27.662  21.967  -8.183  0.00  0.00     0.031 C 
HETATM   12  C   UNK N   1      26.711  23.107  -7.819  0.00  0.00     0.024 C 
HETATM   13  C   UNK N   1      27.576  24.313  -7.407  0.00  0.00     0.018 C 
HETATM   14  C   UNK N   1      28.634  23.951  -6.306  0.00  0.00     0.015 C 
HETATM   15  C   UNK N   1      26.780  20.938  -8.868  0.00  0.00     0.018 C 
HETATM   16  C   UNK N   1      25.938  21.824  -9.804  0.00  0.00     0.080 C 
HETATM   17  C   UNK N   1      25.936  23.142  -9.086  0.00  0.00     0.136 C 
HETATM   18  C   UNK N   1      25.704  22.781  -6.711  0.00  0.00     0.024 C 
HETATM   19  O   UNK N   1      25.202  24.065  -9.407  0.00  0.00    -0.297 OA
ENDROOT
BRANCH   1  20
HETATM   20  O   UNK N   1      32.743  21.313  -2.122  0.00  0.00    -0.361 OA
HETATM   21  H   UNK N   1      32.902  20.426  -1.865  0.00  0.00     0.217 HD
ENDBRANCH   1  20
TORSDOF 1
ENDMDL
MODEL 6
REMARK VINA RESULT:      -7.0     13.824     15.687
REMARK  1 active torsions:
REMARK  status: ('A' for Active; 'I' for Inactive)
REMARK    1  A    between atoms: C_1  and  O_19 
ROOT
HETATM    1  C   UNK N   1      22.336  11.831  11.926  0.00  0.00     0.066 A 
HETATM    2  C   UNK N   1      23.398  12.135  11.076  0.00  0.00     0.044 A 
HETATM    3  C   UNK N   1      23.182  12.864   9.904  0.00  0.00    -0.045 A 
HETATM    4  C   UNK N   1      21.879  13.299   9.573  0.00  0.00    -0.043 A 
HETATM    5  C   UNK N   1      20.816  12.983  10.435  0.00  0.00     0.011 A 
HETATM    6  C   UNK N   1      21.044  12.255  11.607  0.00  0.00     0.037 A 
HETATM    7  C   UNK N   1      24.361  13.133   9.026  0.00  0.00     0.066 A 
HETATM    8  C   UNK N   1      24.063  13.945   7.807  0.00  0.00    -0.018 A 
HETATM    9  C   UNK N   1      22.833  14.339   7.451  0.00  0.00    -0.070 A 
HETATM   10  C   UNK N   1      21.597  14.059   8.293  0.00  0.00     0.048 A 
HETATM   11  C   UNK N   1      22.693  15.289   6.292  0.00  0.00     0.031 C 
HETATM   12  C   UNK N   1      21.245  15.690   6.012  0.00  0.00     0.024 C 
HETATM   13  C   UNK N   1      20.688  16.328   7.298  0.00  0.00     0.018 C 
HETATM   14  C   UNK N   1      20.895  15.423   8.562  0.00  0.00     0.015 C 
HETATM   15  C   UNK N   1      23.272  14.964   4.926  0.00  0.00     0.018 C 
HETATM   16  C   UNK N   1      22.745  16.138   4.080  0.00  0.00     0.080 C 
HETATM   17  C   UNK N   1      21.492  16.527   4.809  0.00  0.00     0.136 C 
HETATM   18  C   UNK N   1      20.333  14.547   5.557  0.00  0.00     0.024 C 
HETATM   19  O   UNK N   1      20.670  17.298   4.339  0.00  0.00    -0.297 OA
ENDROOT
BRANCH   1  20
HETATM   20  O   UNK N   1      22.558  11.126  13.047  0.00  0.00    -0.361 OA
HETATM   21  H   UNK N   1      22.662  10.195  13.004  0.00  0.00     0.217 HD
ENDBRANCH   1  20
TORSDOF 1
ENDMDL
MODEL 7
REMARK VINA RESULT:      -6.8     21.600     25.282
REMARK  1 active torsions:
REMARK  status: ('A' for Active; 'I' for Inactive)
REMARK    1  A    between atoms: C_1  and  O_19 
ROOT
HETATM    1  C   UNK N   1      26.398  22.502  -8.442  0.00  0.00     0.066 A 
HETATM    2  C   UNK N   1      27.191  21.360  -8.522  0.00  0.00     0.044 A 
HETATM    3  C   UNK N   1      28.277  21.188  -7.658  0.00  0.00    -0.045 A 
HETATM    4  C   UNK N   1      28.575  22.177  -6.694  0.00  0.00    -0.043 A 
HETATM    5  C   UNK N   1      27.771  23.327  -6.626  0.00  0.00     0.011 A 
HETATM    6  C   UNK N   1      26.686  23.487  -7.494  0.00  0.00     0.037 A 
HETATM    7  C   UNK N   1      29.100  19.951  -7.816  0.00  0.00     0.066 A 
HETATM    8  C   UNK N   1      30.223  19.817  -6.838  0.00  0.00    -0.018 A 
HETATM    9  C   UNK N   1      30.551  20.754  -5.939  0.00  0.00    -0.070 A 
HETATM   10  C   UNK N   1      29.765  22.045  -5.765  0.00  0.00     0.048 A 
HETATM   11  C   UNK N   1      31.596  20.424  -4.909  0.00  0.00     0.031 C 
HETATM   12  C   UNK N   1      31.850  21.562  -3.920  0.00  0.00     0.024 C 
HETATM   13  C   UNK N   1      30.509  21.886  -3.238  0.00  0.00     0.018 C 
HETATM   14  C   UNK N   1      29.353  22.145  -4.267  0.00  0.00     0.015 C 
HETATM   15  C   UNK N   1      32.982  19.947  -5.308  0.00  0.00     0.018 C 
HETATM   16  C   UNK N   1      33.696  19.895  -3.945  0.00  0.00     0.080 C 
HETATM   17  C   UNK N   1      32.947  20.922  -3.148  0.00  0.00     0.136 C 
HETATM   18  C   UNK N   1      32.447  22.832  -4.536  0.00  0.00     0.024 C 
HETATM   19  O   UNK N   1      33.339  21.328  -2.064  0.00  0.00    -0.297 OA
ENDROOT
BRANCH   1  20
HETATM   20  O   UNK N   1      25.361  22.657  -9.281  0.00  0.00    -0.361 OA
HETATM   21  H   UNK N   1      24.566  22.182  -9.137  0.00  0.00     0.217 HD
ENDBRANCH   1  20
TORSDOF 1
ENDMDL
MODEL 8
REMARK VINA RESULT:      -6.8      9.537     12.825
REMARK  1 active torsions:
REMARK  status: ('A' for Active; 'I' for Inactive)
REMARK    1  A    between atoms: C_1  and  O_19 
ROOT
HETATM    1  C   UNK N   1      27.047  18.820   5.683  0.00  0.00     0.066 A 
HETATM    2  C   UNK N   1      27.736  18.801   6.894  0.00  0.00     0.044 A 
HETATM    3  C   UNK N   1      29.001  18.212   6.981  0.00  0.00    -0.045 A 
HETATM    4  C   UNK N   1      29.590  17.631   5.835  0.00  0.00    -0.043 A 
HETATM    5  C   UNK N   1      28.884  17.653   4.622  0.00  0.00     0.011 A 
HETATM    6  C   UNK N   1      27.620  18.246   4.545  0.00  0.00     0.037 A 
HETATM    7  C   UNK N   1      29.672  18.205   8.316  0.00  0.00     0.066 A 
HETATM    8  C   UNK N   1      31.035  17.590   8.328  0.00  0.00    -0.018 A 
HETATM    9  C   UNK N   1      31.602  17.000   7.268  0.00  0.00    -0.070 A 
HETATM   10  C   UNK N   1      30.943  16.951   5.897  0.00  0.00     0.048 A 
HETATM   11  C   UNK N   1      33.039  16.568   7.372  0.00  0.00     0.031 C 
HETATM   12  C   UNK N   1      33.577  15.945   6.083  0.00  0.00     0.024 C 
HETATM   13  C   UNK N   1      33.411  16.989   4.964  0.00  0.00     0.018 C 
HETATM   14  C   UNK N   1      31.949  17.550   4.872  0.00  0.00     0.015 C 
HETATM   15  C   UNK N   1      33.510  15.635   8.473  0.00  0.00     0.018 C 
HETATM   16  C   UNK N   1      34.973  15.385   8.064  0.00  0.00     0.080 C 
HETATM   17  C   UNK N   1      34.932  15.588   6.577  0.00  0.00     0.136 C 
HETATM   18  C   UNK N   1      32.911  14.627   5.675  0.00  0.00     0.024 C 
HETATM   19  O   UNK N   1      35.862  15.282   5.846  0.00  0.00    -0.297 OA
ENDROOT
BRANCH   1  20
HETATM   20  O   UNK N   1      25.831  19.384   5.614  0.00  0.00    -0.361 OA
HETATM   21  H   UNK N   1      25.321  19.307   4.832  0.00  0.00     0.217 HD
ENDBRANCH   1  20
TORSDOF 1
ENDMDL
MODEL 9
REMARK VINA RESULT:      -6.7      9.856     13.219
REMARK  1 active torsions:
REMARK  status: ('A' for Active; 'I' for Inactive)
REMARK    1  A    between atoms: C_1  and  O_19 
ROOT
HETATM    1  C   UNK N   1      32.316  14.994   7.924  0.00  0.00     0.066 A 
HETATM    2  C   UNK N   1      31.791  16.041   8.678  0.00  0.00     0.044 A 
HETATM    3  C   UNK N   1      30.789  16.861   8.153  0.00  0.00    -0.045 A 
HETATM    4  C   UNK N   1      30.300  16.630   6.848  0.00  0.00    -0.043 A 
HETATM    5  C   UNK N   1      30.841  15.574   6.095  0.00  0.00     0.011 A 
HETATM    6  C   UNK N   1      31.842  14.759   6.632  0.00  0.00     0.037 A 
HETATM    7  C   UNK N   1      30.289  17.980   9.008  0.00  0.00     0.066 A 
HETATM    8  C   UNK N   1      29.195  18.795   8.396  0.00  0.00    -0.018 A 
HETATM    9  C   UNK N   1      28.739  18.622   7.148  0.00  0.00    -0.070 A 
HETATM   10  C   UNK N   1      29.241  17.519   6.228  0.00  0.00     0.048 A 
HETATM   11  C   UNK N   1      27.525  19.399   6.715  0.00  0.00     0.031 C 
HETATM   12  C   UNK N   1      27.084  19.083   5.287  0.00  0.00     0.024 C 
HETATM   13  C   UNK N   1      26.804  17.571   5.216  0.00  0.00     0.018 C 
HETATM   14  C   UNK N   1      28.001  16.708   5.749  0.00  0.00     0.015 C 
HETATM   15  C   UNK N   1      27.481  20.915   6.803  0.00  0.00     0.018 C 
HETATM   16  C   UNK N   1      26.136  21.226   6.121  0.00  0.00     0.080 C 
HETATM   17  C   UNK N   1      25.964  20.056   5.197  0.00  0.00     0.136 C 
HETATM   18  C   UNK N   1      28.084  19.483   4.197  0.00  0.00     0.024 C 
HETATM   19  O   UNK N   1      25.108  20.027   4.325  0.00  0.00    -0.297 OA
ENDROOT
BRANCH   1  20
HETATM   20  O   UNK N   1      33.283  14.217   8.440  0.00  0.00    -0.361 OA
HETATM   21  H   UNK N   1      33.083  13.346   8.723  0.00  0.00     0.217 HD
ENDBRANCH   1  20
TORSDOF 1
ENDMDL
