REMARK  2 active torsions:
REMARK  status: ('A' for Active; 'I' for Inactive)
REMARK    1  A    between atoms: C_7  and  C_8 
REMARK    2  A    between atoms: C_14  and  C_15 
ROOT
HETATM    1  C   UNK N   1       0.081  -2.456  -0.173  0.00  0.00     0.013 A 
HETATM    2  C   UNK N   1       1.317  -1.814  -0.082  0.00  0.00     0.056 A 
HETATM    3  C   UNK N   1       0.009  -3.823   0.069  0.00  0.00     0.032 A 
HETATM    4  C   UNK N   1       1.216  -4.506   0.330  0.00  0.00     0.090 A 
HETATM    5  N   UNK N   1       2.408  -3.828   0.408  0.00  0.00    -0.357 N 
ATOM      6  HN  UNK N   1       3.267  -4.340   0.609  1.00  0.00     0.166 HD
HETATM    7  C   UNK N   1       2.458  -2.483   0.218  0.00  0.00     0.114 A 
HETATM    8  C   UNK N   1       3.660  -1.704   0.343  0.00  0.00     0.117 C 
HETATM    9  N   UNK N   1       4.589  -1.017   0.427  0.00  0.00    -0.190 NA
ENDROOT
BRANCH   1  10
HETATM   10  C   UNK N   1      -1.009  -1.525  -0.417  0.00  0.00     0.132 A 
HETATM   11  N   UNK N   1      -0.644  -0.317  -0.788  0.00  0.00    -0.325 N 
HETATM   12  C   UNK N   1      -1.653   0.458  -0.488  0.00  0.00     0.132 A 
ATOM     13  HN  UNK N   1       0.239  -0.043  -1.219  1.00  0.00     0.169 HD
HETATM   14  N   UNK N   1      -2.686  -0.256   0.017  0.00  0.00    -0.283 N 
HETATM   15  N   UNK N   1      -2.272  -1.527   0.065  0.00  0.00    -0.283 N 
HETATM   16  H   UNK N   1      -3.565   0.091   0.294  0.00  0.00     0.188 HD
ATOM     17  HN  UNK N   1      -2.801  -2.333   0.398  1.00  0.00     0.188 HD
BRANCH  12  18
HETATM   18  C   UNK N   1      -1.348   1.872  -0.341  0.00  0.00     0.012 A 
HETATM   19  C   UNK N   1      -2.285   2.876  -0.159  0.00  0.00     0.032 A 
HETATM   20  C   UNK N   1      -1.822   4.184   0.043  0.00  0.00     0.088 A 
HETATM   21  N   UNK N   1      -0.485   4.452   0.110  0.00  0.00    -0.375 N 
HETATM   22  C   UNK N   1       0.443   3.475  -0.030  0.00  0.00     0.088 A 
ATOM     23  HN  UNK N   1      -0.176   5.411   0.270  1.00  0.00     0.164 HD
HETATM   24  C   UNK N   1       0.026   2.183  -0.269  0.00  0.00     0.032 A 
ENDBRANCH  12  18
ENDBRANCH   1  10
TORSDOF 2
