MODEL 1
REMARK VINA RESULT:      -7.2      0.000      0.000
REMARK  2 active torsions:
REMARK  status: ('A' for Active; 'I' for Inactive)
REMARK    1  A    between atoms: C_7  and  C_8 
REMARK    2  A    between atoms: C_14  and  C_15 
ROOT
HETATM    1  C   UNK N   1      31.413  16.772   8.117  0.00  0.00     0.013 A 
HETATM    2  C   UNK N   1      32.434  17.706   8.297  0.00  0.00     0.056 A 
HETATM    3  C   UNK N   1      31.742  15.470   7.758  0.00  0.00     0.032 A 
HETATM    4  C   UNK N   1      33.103  15.180   7.525  0.00  0.00     0.090 A 
HETATM    5  N   UNK N   1      34.071  16.135   7.715  0.00  0.00    -0.357 N 
ATOM      6  HN  UNK N   1      35.050  15.900   7.552  1.00  0.00     0.166 HD
HETATM    7  C   UNK N   1      33.741  17.392   8.114  0.00  0.00     0.114 A 
HETATM    8  C   UNK N   1      34.706  18.422   8.388  0.00  0.00     0.117 C 
HETATM    9  N   UNK N   1      35.429  19.296   8.624  0.00  0.00    -0.190 NA
ENDROOT
BRANCH   1  10
HETATM   10  C   UNK N   1      30.105  17.311   8.455  0.00  0.00     0.132 A 
HETATM   11  N   UNK N   1      29.339  17.610   7.428  0.00  0.00    -0.325 N 
HETATM   12  C   UNK N   1      28.479  18.485   7.880  0.00  0.00     0.132 A 
ATOM     13  HN  UNK N   1      29.401  17.238   6.481  1.00  0.00     0.169 HD
HETATM   14  N   UNK N   1      28.652  18.702   9.205  0.00  0.00    -0.283 N 
HETATM   15  N   UNK N   1      29.696  17.952   9.572  0.00  0.00    -0.283 N 
HETATM   16  H   UNK N   1      28.117  19.295   9.782  0.00  0.00     0.188 HD
ATOM     17  HN  UNK N   1      30.102  17.878  10.506  1.00  0.00     0.188 HD
BRANCH  12  18
HETATM   18  C   UNK N   1      27.844  19.328   6.881  0.00  0.00     0.012 A 
HETATM   19  C   UNK N   1      27.137  20.490   7.148  0.00  0.00     0.032 A 
HETATM   20  C   UNK N   1      26.649  21.232   6.063  0.00  0.00     0.088 A 
HETATM   21  N   UNK N   1      26.908  20.848   4.779  0.00  0.00    -0.375 N 
HETATM   22  C   UNK N   1      27.628  19.735   4.501  0.00  0.00     0.088 A 
ATOM     23  HN  UNK N   1      26.551  21.414   4.008  1.00  0.00     0.164 HD
HETATM   24  C   UNK N   1      28.091  18.959   5.542  0.00  0.00     0.032 A 
ENDBRANCH  12  18
ENDBRANCH   1  10
TORSDOF 2
ENDMDL
MODEL 2
REMARK VINA RESULT:      -6.9      8.110     11.243
REMARK  2 active torsions:
REMARK  status: ('A' for Active; 'I' for Inactive)
REMARK    1  A    between atoms: C_7  and  C_8 
REMARK    2  A    between atoms: C_14  and  C_15 
ROOT
HETATM    1  C   UNK N   1      35.847  13.051  12.298  0.00  0.00     0.013 A 
HETATM    2  C   UNK N   1      35.497  14.321  11.834  0.00  0.00     0.056 A 
HETATM    3  C   UNK N   1      37.047  12.486  11.883  0.00  0.00     0.032 A 
HETATM    4  C   UNK N   1      37.823  13.207  10.950  0.00  0.00     0.090 A 
HETATM    5  N   UNK N   1      37.434  14.454  10.523  0.00  0.00    -0.357 N 
ATOM      6  HN  UNK N   1      38.015  14.962   9.857  1.00  0.00     0.166 HD
HETATM    7  C   UNK N   1      36.282  15.017  10.974  0.00  0.00     0.114 A 
HETATM    8  C   UNK N   1      35.846  16.339  10.614  0.00  0.00     0.117 C 
HETATM    9  N   UNK N   1      35.436  17.394  10.366  0.00  0.00    -0.190 NA
ENDROOT
BRANCH   1  10
HETATM   10  C   UNK N   1      34.900  12.540  13.275  0.00  0.00     0.132 A 
HETATM   11  N   UNK N   1      35.024  13.031  14.489  0.00  0.00    -0.325 N 
HETATM   12  C   UNK N   1      34.470  12.149  15.279  0.00  0.00     0.132 A 
ATOM     13  HN  UNK N   1      35.459  13.914  14.757  1.00  0.00     0.169 HD
HETATM   14  N   UNK N   1      33.937  11.125  14.572  0.00  0.00    -0.283 N 
HETATM   15  N   UNK N   1      34.216  11.374  13.288  0.00  0.00    -0.283 N 
HETATM   16  H   UNK N   1      33.445  10.352  14.932  0.00  0.00     0.188 HD
ATOM     17  HN  UNK N   1      33.964  10.801  12.483  1.00  0.00     0.188 HD
BRANCH  12  18
HETATM   18  C   UNK N   1      34.882  12.195  16.672  0.00  0.00     0.012 A 
HETATM   19  C   UNK N   1      34.908  13.334  17.460  0.00  0.00     0.032 A 
HETATM   20  C   UNK N   1      35.260  13.196  18.811  0.00  0.00     0.088 A 
HETATM   21  N   UNK N   1      35.518  11.967  19.346  0.00  0.00    -0.375 N 
HETATM   22  C   UNK N   1      35.461  10.840  18.597  0.00  0.00     0.088 A 
ATOM     23  HN  UNK N   1      35.760  11.894  20.334  1.00  0.00     0.164 HD
HETATM   24  C   UNK N   1      35.157  10.941  17.256  0.00  0.00     0.032 A 
ENDBRANCH  12  18
ENDBRANCH   1  10
TORSDOF 2
ENDMDL
MODEL 3
REMARK VINA RESULT:      -6.8     11.493     14.859
REMARK  2 active torsions:
REMARK  status: ('A' for Active; 'I' for Inactive)
REMARK    1  A    between atoms: C_7  and  C_8 
REMARK    2  A    between atoms: C_14  and  C_15 
ROOT
HETATM    1  C   UNK N   1      28.018  23.421  -5.796  0.00  0.00     0.013 A 
HETATM    2  C   UNK N   1      28.590  23.544  -4.530  0.00  0.00     0.056 A 
HETATM    3  C   UNK N   1      28.455  22.408  -6.641  0.00  0.00     0.032 A 
HETATM    4  C   UNK N   1      29.514  21.592  -6.191  0.00  0.00     0.090 A 
HETATM    5  N   UNK N   1      30.046  21.754  -4.935  0.00  0.00    -0.357 N 
ATOM      6  HN  UNK N   1      30.803  21.146  -4.625  1.00  0.00     0.166 HD
HETATM    7  C   UNK N   1      29.575  22.717  -4.099  0.00  0.00     0.114 A 
HETATM    8  C   UNK N   1      30.045  22.904  -2.753  0.00  0.00     0.117 C 
HETATM    9  N   UNK N   1      30.375  23.109  -1.662  0.00  0.00    -0.190 NA
ENDROOT
BRANCH   1  10
HETATM   10  C   UNK N   1      26.924  24.357  -6.002  0.00  0.00     0.132 A 
HETATM   11  N   UNK N   1      27.272  25.624  -6.064  0.00  0.00    -0.325 N 
HETATM   12  C   UNK N   1      26.193  26.296  -5.762  0.00  0.00     0.132 A 
ATOM     13  HN  UNK N   1      28.191  26.002  -6.298  1.00  0.00     0.169 HD
HETATM   14  N   UNK N   1      25.139  25.469  -5.567  0.00  0.00    -0.283 N 
HETATM   15  N   UNK N   1      25.609  24.226  -5.718  0.00  0.00    -0.283 N 
HETATM   16  H   UNK N   1      24.214  25.731  -5.356  0.00  0.00     0.188 HD
ATOM     17  HN  UNK N   1      25.082  23.356  -5.636  1.00  0.00     0.188 HD
BRANCH  12  18
HETATM   18  C   UNK N   1      26.400  27.656  -5.289  0.00  0.00     0.012 A 
HETATM   19  C   UNK N   1      25.824  28.203  -4.155  0.00  0.00     0.032 A 
HETATM   20  C   UNK N   1      26.186  29.508  -3.792  0.00  0.00     0.088 A 
HETATM   21  N   UNK N   1      27.120  30.200  -4.508  0.00  0.00    -0.375 N 
HETATM   22  C   UNK N   1      27.719  29.665  -5.599  0.00  0.00     0.088 A 
ATOM     23  HN  UNK N   1      27.374  31.144  -4.215  1.00  0.00     0.164 HD
HETATM   24  C   UNK N   1      27.359  28.399  -6.008  0.00  0.00     0.032 A 
ENDBRANCH  12  18
ENDBRANCH   1  10
TORSDOF 2
ENDMDL
MODEL 4
REMARK VINA RESULT:      -6.7     11.494     14.259
REMARK  2 active torsions:
REMARK  status: ('A' for Active; 'I' for Inactive)
REMARK    1  A    between atoms: C_7  and  C_8 
REMARK    2  A    between atoms: C_14  and  C_15 
ROOT
HETATM    1  C   UNK N   1      28.799  22.369  -6.109  0.00  0.00     0.013 A 
HETATM    2  C   UNK N   1      29.289  22.704  -4.846  0.00  0.00     0.056 A 
HETATM    3  C   UNK N   1      29.357  21.292  -6.788  0.00  0.00     0.032 A 
HETATM    4  C   UNK N   1      30.448  20.631  -6.183  0.00  0.00     0.090 A 
HETATM    5  N   UNK N   1      30.894  21.000  -4.938  0.00  0.00    -0.357 N 
ATOM      6  HN  UNK N   1      31.676  20.501  -4.514  1.00  0.00     0.166 HD
HETATM    7  C   UNK N   1      30.307  22.023  -4.263  0.00  0.00     0.114 A 
HETATM    8  C   UNK N   1      30.684  22.423  -2.934  0.00  0.00     0.117 C 
HETATM    9  N   UNK N   1      30.937  22.797  -1.867  0.00  0.00    -0.190 NA
ENDROOT
BRANCH   1  10
HETATM   10  C   UNK N   1      27.652  23.177  -6.490  0.00  0.00     0.132 A 
HETATM   11  N   UNK N   1      27.691  24.431  -6.093  0.00  0.00    -0.325 N 
HETATM   12  C   UNK N   1      26.447  24.832  -6.084  0.00  0.00     0.132 A 
ATOM     13  HN  UNK N   1      28.518  24.975  -5.844  1.00  0.00     0.169 HD
HETATM   14  N   UNK N   1      25.617  23.861  -6.532  0.00  0.00    -0.283 N 
HETATM   15  N   UNK N   1      26.389  22.800  -6.789  0.00  0.00    -0.283 N 
HETATM   16  H   UNK N   1      24.640  23.924  -6.644  0.00  0.00     0.188 HD
ATOM     17  HN  UNK N   1      26.086  21.891  -7.139  1.00  0.00     0.188 HD
BRANCH  12  18
HETATM   18  C   UNK N   1      26.155  25.984  -5.247  0.00  0.00     0.012 A 
HETATM   19  C   UNK N   1      25.378  27.067  -5.622  0.00  0.00     0.032 A 
HETATM   20  C   UNK N   1      25.128  28.064  -4.669  0.00  0.00     0.088 A 
HETATM   21  N   UNK N   1      25.595  27.946  -3.391  0.00  0.00    -0.375 N 
HETATM   22  C   UNK N   1      26.326  26.875  -2.999  0.00  0.00     0.088 A 
ATOM     23  HN  UNK N   1      25.389  28.680  -2.715  1.00  0.00     0.164 HD
HETATM   24  C   UNK N   1      26.625  25.893  -3.920  0.00  0.00     0.032 A 
ENDBRANCH  12  18
ENDBRANCH   1  10
TORSDOF 2
ENDMDL
MODEL 5
REMARK VINA RESULT:      -6.7      5.940      9.677
REMARK  2 active torsions:
REMARK  status: ('A' for Active; 'I' for Inactive)
REMARK    1  A    between atoms: C_7  and  C_8 
REMARK    2  A    between atoms: C_14  and  C_15 
ROOT
HETATM    1  C   UNK N   1      34.653  15.097  10.724  0.00  0.00     0.013 A 
HETATM    2  C   UNK N   1      34.996  16.350  10.213  0.00  0.00     0.056 A 
HETATM    3  C   UNK N   1      33.563  14.422  10.186  0.00  0.00     0.032 A 
HETATM    4  C   UNK N   1      32.815  15.079   9.186  0.00  0.00     0.090 A 
HETATM    5  N   UNK N   1      33.194  16.313   8.717  0.00  0.00    -0.357 N 
ATOM      6  HN  UNK N   1      32.645  16.765   7.986  1.00  0.00     0.166 HD
HETATM    7  C   UNK N   1      34.290  16.942   9.217  0.00  0.00     0.114 A 
HETATM    8  C   UNK N   1      34.776  18.205   8.732  0.00  0.00     0.117 C 
HETATM    9  N   UNK N   1      35.221  19.219   8.391  0.00  0.00    -0.190 NA
ENDROOT
BRANCH   1  10
HETATM   10  C   UNK N   1      35.602  14.627  11.720  0.00  0.00     0.132 A 
HETATM   11  N   UNK N   1      35.373  13.420  12.189  0.00  0.00    -0.325 N 
HETATM   12  C   UNK N   1      35.979  13.376  13.346  0.00  0.00     0.132 A 
ATOM     13  HN  UNK N   1      34.837  12.675  11.743  1.00  0.00     0.169 HD
HETATM   14  N   UNK N   1      36.645  14.528  13.594  0.00  0.00    -0.283 N 
HETATM   15  N   UNK N   1      36.401  15.331  12.552  0.00  0.00    -0.283 N 
HETATM   16  H   UNK N   1      37.198  14.734  14.383  0.00  0.00     0.188 HD
ATOM     17  HN  UNK N   1      36.747  16.280  12.415  1.00  0.00     0.188 HD
BRANCH  12  18
HETATM   18  C   UNK N   1      35.501  12.367  14.277  0.00  0.00     0.012 A 
HETATM   19  C   UNK N   1      35.957  12.198  15.575  0.00  0.00     0.032 A 
HETATM   20  C   UNK N   1      35.338  11.224  16.371  0.00  0.00     0.088 A 
HETATM   21  N   UNK N   1      34.282  10.499  15.899  0.00  0.00    -0.375 N 
HETATM   22  C   UNK N   1      33.802  10.679  14.645  0.00  0.00     0.088 A 
ATOM     23  HN  UNK N   1      33.843   9.805  16.505  1.00  0.00     0.164 HD
HETATM   24  C   UNK N   1      34.410  11.600  13.819  0.00  0.00     0.032 A 
ENDBRANCH  12  18
ENDBRANCH   1  10
TORSDOF 2
ENDMDL
MODEL 6
REMARK VINA RESULT:      -6.6      4.892      7.047
REMARK  2 active torsions:
REMARK  status: ('A' for Active; 'I' for Inactive)
REMARK    1  A    between atoms: C_7  and  C_8 
REMARK    2  A    between atoms: C_14  and  C_15 
ROOT
HETATM    1  C   UNK N   1      36.053  14.664  11.278  0.00  0.00     0.013 A 
HETATM    2  C   UNK N   1      35.893  14.521  12.657  0.00  0.00     0.056 A 
HETATM    3  C   UNK N   1      36.903  13.797  10.601  0.00  0.00     0.032 A 
HETATM    4  C   UNK N   1      37.618  12.852  11.367  0.00  0.00     0.090 A 
HETATM    5  N   UNK N   1      37.426  12.751  12.723  0.00  0.00    -0.357 N 
ATOM      6  HN  UNK N   1      37.945  12.053  13.255  1.00  0.00     0.166 HD
HETATM    7  C   UNK N   1      36.555  13.573  13.366  0.00  0.00     0.114 A 
HETATM    8  C   UNK N   1      36.263  13.484  14.771  0.00  0.00     0.117 C 
HETATM    9  N   UNK N   1      35.982  13.468  15.895  0.00  0.00    -0.190 NA
ENDROOT
BRANCH   1  10
HETATM   10  C   UNK N   1      35.178  15.685  10.723  0.00  0.00     0.132 A 
HETATM   11  N   UNK N   1      34.592  15.367   9.589  0.00  0.00    -0.325 N 
HETATM   12  C   UNK N   1      34.277  16.506   9.030  0.00  0.00     0.132 A 
ATOM     13  HN  UNK N   1      34.420  14.431   9.223  1.00  0.00     0.169 HD
HETATM   14  N   UNK N   1      34.602  17.550   9.828  0.00  0.00    -0.283 N 
HETATM   15  N   UNK N   1      35.183  17.023  10.912  0.00  0.00    -0.283 N 
HETATM   16  H   UNK N   1      34.445  18.505   9.646  0.00  0.00     0.188 HD
ATOM     17  HN  UNK N   1      35.554  17.529  11.716  1.00  0.00     0.188 HD
BRANCH  12  18
HETATM   18  C   UNK N   1      34.066  16.473   7.592  0.00  0.00     0.012 A 
HETATM   19  C   UNK N   1      33.482  17.484   6.847  0.00  0.00     0.032 A 
HETATM   20  C   UNK N   1      33.421  17.329   5.455  0.00  0.00     0.088 A 
HETATM   21  N   UNK N   1      33.968  16.237   4.846  0.00  0.00    -0.375 N 
HETATM   22  C   UNK N   1      34.574  15.257   5.558  0.00  0.00     0.088 A 
ATOM     23  HN  UNK N   1      33.920  16.155   3.830  1.00  0.00     0.164 HD
HETATM   24  C   UNK N   1      34.619  15.355   6.932  0.00  0.00     0.032 A 
ENDBRANCH  12  18
ENDBRANCH   1  10
TORSDOF 2
ENDMDL
MODEL 7
REMARK VINA RESULT:      -6.4      1.549      2.134
REMARK  2 active torsions:
REMARK  status: ('A' for Active; 'I' for Inactive)
REMARK    1  A    between atoms: C_7  and  C_8 
REMARK    2  A    between atoms: C_14  and  C_15 
ROOT
HETATM    1  C   UNK N   1      31.880  17.448   7.896  0.00  0.00     0.013 A 
HETATM    2  C   UNK N   1      31.970  17.198   6.526  0.00  0.00     0.056 A 
HETATM    3  C   UNK N   1      33.045  17.501   8.652  0.00  0.00     0.032 A 
HETATM    4  C   UNK N   1      34.264  17.229   7.996  0.00  0.00     0.090 A 
HETATM    5  N   UNK N   1      34.300  16.988   6.644  0.00  0.00    -0.357 N 
ATOM      6  HN  UNK N   1      35.193  16.805   6.188  1.00  0.00     0.166 HD
HETATM    7  C   UNK N   1      33.158  16.987   5.907  0.00  0.00     0.114 A 
HETATM    8  C   UNK N   1      33.129  16.801   4.481  0.00  0.00     0.117 C 
HETATM    9  N   UNK N   1      33.034  16.657   3.336  0.00  0.00    -0.190 NA
ENDROOT
BRANCH   1  10
HETATM   10  C   UNK N   1      30.517  17.731   8.318  0.00  0.00     0.132 A 
HETATM   11  N   UNK N   1      29.656  17.924   7.343  0.00  0.00    -0.325 N 
HETATM   12  C   UNK N   1      28.680  18.614   7.874  0.00  0.00     0.132 A 
ATOM     13  HN  UNK N   1      29.732  17.604   6.378  1.00  0.00     0.169 HD
HETATM   14  N   UNK N   1      28.883  18.811   9.198  0.00  0.00    -0.283 N 
HETATM   15  N   UNK N   1      30.062  18.247   9.482  0.00  0.00    -0.283 N 
HETATM   16  H   UNK N   1      28.283  19.276   9.825  0.00  0.00     0.188 HD
ATOM     17  HN  UNK N   1      30.524  18.213  10.391  1.00  0.00     0.188 HD
BRANCH  12  18
HETATM   18  C   UNK N   1      27.852  19.365   6.944  0.00  0.00     0.012 A 
HETATM   19  C   UNK N   1      27.146  20.516   7.255  0.00  0.00     0.032 A 
HETATM   20  C   UNK N   1      26.455  21.166   6.223  0.00  0.00     0.088 A 
HETATM   21  N   UNK N   1      26.517  20.707   4.939  0.00  0.00    -0.375 N 
HETATM   22  C   UNK N   1      27.233  19.604   4.613  0.00  0.00     0.088 A 
ATOM     23  HN  UNK N   1      26.014  21.206   4.205  1.00  0.00     0.164 HD
HETATM   24  C   UNK N   1      27.894  18.916   5.608  0.00  0.00     0.032 A 
ENDBRANCH  12  18
ENDBRANCH   1  10
TORSDOF 2
ENDMDL
MODEL 8
REMARK VINA RESULT:      -6.4      6.453      9.065
REMARK  2 active torsions:
REMARK  status: ('A' for Active; 'I' for Inactive)
REMARK    1  A    between atoms: C_7  and  C_8 
REMARK    2  A    between atoms: C_14  and  C_15 
ROOT
HETATM    1  C   UNK N   1      35.595  12.951  13.704  0.00  0.00     0.013 A 
HETATM    2  C   UNK N   1      35.725  13.457  14.999  0.00  0.00     0.056 A 
HETATM    3  C   UNK N   1      34.722  11.894  13.475  0.00  0.00     0.032 A 
HETATM    4  C   UNK N   1      34.057  11.340  14.590  0.00  0.00     0.090 A 
HETATM    5  N   UNK N   1      34.219  11.874  15.845  0.00  0.00    -0.357 N 
ATOM      6  HN  UNK N   1      33.720  11.465  16.635  1.00  0.00     0.166 HD
HETATM    7  C   UNK N   1      35.039  12.939  16.048  0.00  0.00     0.114 A 
HETATM    8  C   UNK N   1      35.209  13.583  17.322  0.00  0.00     0.117 C 
HETATM    9  N   UNK N   1      35.392  14.148  18.317  0.00  0.00    -0.190 NA
ENDROOT
BRANCH   1  10
HETATM   10  C   UNK N   1      36.357  13.719  12.732  0.00  0.00     0.132 A 
HETATM   11  N   UNK N   1      35.690  14.678  12.127  0.00  0.00    -0.325 N 
HETATM   12  C   UNK N   1      36.339  14.903  11.015  0.00  0.00     0.132 A 
ATOM     13  HN  UNK N   1      34.846  15.147  12.456  1.00  0.00     0.169 HD
HETATM   14  N   UNK N   1      37.451  14.136  10.932  0.00  0.00    -0.283 N 
HETATM   15  N   UNK N   1      37.461  13.375  12.032  0.00  0.00    -0.283 N 
HETATM   16  H   UNK N   1      38.118  14.137  10.208  0.00  0.00     0.188 HD
ATOM     17  HN  UNK N   1      38.159  12.677  12.290  1.00  0.00     0.188 HD
BRANCH  12  18
HETATM   18  C   UNK N   1      35.581  15.547   9.955  0.00  0.00     0.012 A 
HETATM   19  C   UNK N   1      35.043  16.822  10.019  0.00  0.00     0.032 A 
HETATM   20  C   UNK N   1      34.402  17.329   8.880  0.00  0.00     0.088 A 
HETATM   21  N   UNK N   1      34.355  16.606   7.723  0.00  0.00    -0.375 N 
HETATM   22  C   UNK N   1      34.907  15.372   7.633  0.00  0.00     0.088 A 
ATOM     23  HN  UNK N   1      33.892  17.003   6.905  1.00  0.00     0.164 HD
HETATM   24  C   UNK N   1      35.512  14.825   8.745  0.00  0.00     0.032 A 
ENDBRANCH  12  18
ENDBRANCH   1  10
TORSDOF 2
ENDMDL
MODEL 9
REMARK VINA RESULT:      -6.3      2.256      3.966
REMARK  2 active torsions:
REMARK  status: ('A' for Active; 'I' for Inactive)
REMARK    1  A    between atoms: C_7  and  C_8 
REMARK    2  A    between atoms: C_14  and  C_15 
ROOT
HETATM    1  C   UNK N   1      29.122  17.990   7.110  0.00  0.00     0.013 A 
HETATM    2  C   UNK N   1      30.306  17.275   7.296  0.00  0.00     0.056 A 
HETATM    3  C   UNK N   1      28.428  18.452   8.222  0.00  0.00     0.032 A 
HETATM    4  C   UNK N   1      28.930  18.109   9.495  0.00  0.00     0.090 A 
HETATM    5  N   UNK N   1      30.100  17.401   9.626  0.00  0.00    -0.357 N 
ATOM      6  HN  UNK N   1      30.451  17.174  10.556  1.00  0.00     0.166 HD
HETATM    7  C   UNK N   1      30.796  16.998   8.530  0.00  0.00     0.114 A 
HETATM    8  C   UNK N   1      32.055  16.307   8.594  0.00  0.00     0.117 C 
HETATM    9  N   UNK N   1      33.070  15.748   8.573  0.00  0.00    -0.190 NA
ENDROOT
BRANCH   1  10
HETATM   10  C   UNK N   1      28.843  18.242   5.705  0.00  0.00     0.132 A 
HETATM   11  N   UNK N   1      27.878  19.104   5.469  0.00  0.00    -0.325 N 
HETATM   12  C   UNK N   1      27.462  18.837   4.259  0.00  0.00     0.132 A 
ATOM     13  HN  UNK N   1      27.530  19.829   6.097  1.00  0.00     0.169 HD
HETATM   14  N   UNK N   1      28.195  17.848   3.696  0.00  0.00    -0.283 N 
HETATM   15  N   UNK N   1      29.079  17.465   4.624  0.00  0.00    -0.283 N 
HETATM   16  H   UNK N   1      28.096  17.484   2.786  0.00  0.00     0.188 HD
ATOM     17  HN  UNK N   1      29.786  16.735   4.534  1.00  0.00     0.188 HD
BRANCH  12  18
HETATM   18  C   UNK N   1      26.121  19.293   3.932  0.00  0.00     0.012 A 
HETATM   19  C   UNK N   1      25.821  20.362   3.104  0.00  0.00     0.032 A 
HETATM   20  C   UNK N   1      24.472  20.628   2.828  0.00  0.00     0.088 A 
HETATM   21  N   UNK N   1      23.485  19.824   3.320  0.00  0.00    -0.375 N 
HETATM   22  C   UNK N   1      23.764  18.753   4.102  0.00  0.00     0.088 A 
ATOM     23  HN  UNK N   1      22.512  20.033   3.093  1.00  0.00     0.164 HD
HETATM   24  C   UNK N   1      25.076  18.484   4.426  0.00  0.00     0.032 A 
ENDBRANCH  12  18
ENDBRANCH   1  10
TORSDOF 2
ENDMDL
