MODEL 1
REMARK VINA RESULT:      -7.0      0.000      0.000
REMARK  3 active torsions:
REMARK  status: ('A' for Active; 'I' for Inactive)
REMARK    1  A    between atoms: C_1  and  N_13 
REMARK       I    between atoms: C_8  and  N_6 
REMARK    2  A    between atoms: C_9  and  C_8 
REMARK    3  A    between atoms: N_13  and  C_15 
ROOT
HETATM    1  C   UNK N   1      35.337  16.143  11.149  0.00  0.00     0.226 C 
HETATM    2  C   UNK N   1      35.857  15.318  12.240  0.00  0.00     0.068 C 
HETATM    3  N   UNK N   1      36.306  14.702  13.112  0.00  0.00    -0.197 NA
ENDROOT
BRANCH   1   4
HETATM    4  C   UNK N   1      34.110  15.616  10.441  0.00  0.00     0.232 C 
HETATM    5  O   UNK N   1      33.439  14.743  10.973  0.00  0.00    -0.272 OA
HETATM    6  N   UNK N   1      33.824  16.028   9.169  0.00  0.00    -0.349 N 
HETATM    7  C   UNK N   1      32.866  15.261   8.363  0.00  0.00     0.151 C 
HETATM    8  C   UNK N   1      34.595  17.112   8.596  0.00  0.00     0.126 C 
HETATM    9  C   UNK N   1      32.473  15.823   6.963  0.00  0.00     0.107 C 
HETATM   10  C   UNK N   1      33.437  16.960   6.487  0.00  0.00     0.007 C 
HETATM   11  C   UNK N   1      33.761  17.910   7.613  0.00  0.00     0.026 C 
HETATM   12  C   UNK N   1      33.018  17.744   5.255  0.00  0.00     0.012 C 
BRANCH   9  13
HETATM   13  N   UNK N   1      31.018  16.066   6.798  0.00  0.00    -0.364 N 
HETATM   14  C   UNK N   1      30.271  15.089   6.035  0.00  0.00     0.152 C 
BRANCH  13  15
HETATM   15  C   UNK N   1      30.272  16.949   7.672  0.00  0.00     0.118 A 
HETATM   16  N   UNK N   1      30.443  16.915   9.030  0.00  0.00    -0.338 N 
HETATM   17  C   UNK N   1      29.707  17.701   9.877  0.00  0.00     0.183 A 
ATOM     18  HN  UNK N   1      31.142  16.284   9.424  1.00  0.00     0.168 HD
HETATM   19  N   UNK N   1      28.755  18.544   9.385  0.00  0.00    -0.338 N 
HETATM   20  C   UNK N   1      28.570  18.595   8.047  0.00  0.00     0.120 A 
ATOM     21  HN  UNK N   1      28.196  19.124  10.013  1.00  0.00     0.168 HD
HETATM   22  C   UNK N   1      29.294  17.840   7.182  0.00  0.00     0.053 A 
HETATM   23  N   UNK N   1      27.662  19.349   7.412  0.00  0.00    -0.351 N 
HETATM   24  C   UNK N   1      28.823  18.123   5.914  0.00  0.00     0.036 A 
HETATM   25  C   UNK N   1      27.811  19.067   6.095  0.00  0.00     0.091 A 
HETATM   26  H   UNK N   1      27.021  19.977   7.817  0.00  0.00     0.166 HD
ENDBRANCH  13  15
ENDBRANCH   9  13
ENDBRANCH   1   4
TORSDOF 3
ENDMDL
MODEL 2
REMARK VINA RESULT:      -6.9      9.326     12.468
REMARK  3 active torsions:
REMARK  status: ('A' for Active; 'I' for Inactive)
REMARK    1  A    between atoms: C_1  and  N_13 
REMARK       I    between atoms: C_8  and  N_6 
REMARK    2  A    between atoms: C_9  and  C_8 
REMARK    3  A    between atoms: N_13  and  C_15 
ROOT
HETATM    1  C   UNK N   1      20.266  19.586   2.201  0.00  0.00     0.226 C 
HETATM    2  C   UNK N   1      20.785  20.302   1.034  0.00  0.00     0.068 C 
HETATM    3  N   UNK N   1      21.145  20.875   0.096  0.00  0.00    -0.197 NA
ENDROOT
BRANCH   1   4
HETATM    4  C   UNK N   1      21.294  19.097   3.196  0.00  0.00     0.232 C 
HETATM    5  O   UNK N   1      22.091  19.892   3.673  0.00  0.00    -0.272 OA
HETATM    6  N   UNK N   1      21.404  17.761   3.467  0.00  0.00    -0.349 N 
HETATM    7  C   UNK N   1      22.612  17.261   4.133  0.00  0.00     0.151 C 
HETATM    8  C   UNK N   1      20.402  16.857   2.941  0.00  0.00     0.126 C 
HETATM    9  C   UNK N   1      22.655  15.754   4.533  0.00  0.00     0.107 C 
HETATM   10  C   UNK N   1      21.523  14.924   3.844  0.00  0.00     0.007 C 
HETATM   11  C   UNK N   1      20.211  15.667   3.860  0.00  0.00     0.026 C 
HETATM   12  C   UNK N   1      21.317  13.502   4.338  0.00  0.00     0.012 C 
BRANCH   9  13
HETATM   13  N   UNK N   1      22.867  15.522   5.984  0.00  0.00    -0.364 N 
HETATM   14  C   UNK N   1      24.237  15.459   6.446  0.00  0.00     0.152 C 
BRANCH  13  15
HETATM   15  C   UNK N   1      21.836  15.771   6.971  0.00  0.00     0.118 A 
HETATM   16  N   UNK N   1      21.202  16.982   7.046  0.00  0.00    -0.338 N 
HETATM   17  C   UNK N   1      20.265  17.257   8.008  0.00  0.00     0.183 A 
ATOM     18  HN  UNK N   1      21.434  17.704   6.362  1.00  0.00     0.168 HD
HETATM   19  N   UNK N   1      19.942  16.320   8.945  0.00  0.00    -0.338 N 
HETATM   20  C   UNK N   1      20.555  15.117   8.889  0.00  0.00     0.120 A 
ATOM     21  HN  UNK N   1      19.253  16.523   9.670  1.00  0.00     0.168 HD
HETATM   22  C   UNK N   1      21.475  14.810   7.940  0.00  0.00     0.053 A 
HETATM   23  N   UNK N   1      20.368  14.104   9.747  0.00  0.00    -0.351 N 
HETATM   24  C   UNK N   1      21.909  13.526   8.203  0.00  0.00     0.036 A 
HETATM   25  C   UNK N   1      21.197  13.117   9.331  0.00  0.00     0.091 A 
HETATM   26  H   UNK N   1      19.756  14.083  10.518  0.00  0.00     0.166 HD
ENDBRANCH  13  15
ENDBRANCH   9  13
ENDBRANCH   1   4
TORSDOF 3
ENDMDL
MODEL 3
REMARK VINA RESULT:      -6.8      9.858     11.645
REMARK  3 active torsions:
REMARK  status: ('A' for Active; 'I' for Inactive)
REMARK    1  A    between atoms: C_1  and  N_13 
REMARK       I    between atoms: C_8  and  N_6 
REMARK    2  A    between atoms: C_9  and  C_8 
REMARK    3  A    between atoms: N_13  and  C_15 
ROOT
HETATM    1  C   UNK N   1      21.877  13.067   9.276  0.00  0.00     0.226 C 
HETATM    2  C   UNK N   1      21.255  12.581  10.509  0.00  0.00     0.068 C 
HETATM    3  N   UNK N   1      20.807  12.169  11.493  0.00  0.00    -0.197 NA
ENDROOT
BRANCH   1   4
HETATM    4  C   UNK N   1      21.072  14.062   8.470  0.00  0.00     0.232 C 
HETATM    5  O   UNK N   1      19.901  14.260   8.759  0.00  0.00    -0.272 OA
HETATM    6  N   UNK N   1      21.618  14.644   7.360  0.00  0.00    -0.349 N 
HETATM    7  C   UNK N   1      20.738  15.310   6.393  0.00  0.00     0.151 C 
HETATM    8  C   UNK N   1      23.026  14.444   7.087  0.00  0.00     0.126 C 
HETATM    9  C   UNK N   1      21.402  16.065   5.200  0.00  0.00     0.107 C 
HETATM   10  C   UNK N   1      22.913  15.699   5.032  0.00  0.00     0.007 C 
HETATM   11  C   UNK N   1      23.614  15.641   6.367  0.00  0.00     0.026 C 
HETATM   12  C   UNK N   1      23.720  16.544   4.062  0.00  0.00     0.012 C 
BRANCH   9  13
HETATM   13  N   UNK N   1      21.049  17.505   5.128  0.00  0.00    -0.364 N 
HETATM   14  C   UNK N   1      21.309  18.304   6.307  0.00  0.00     0.152 C 
BRANCH  13  15
HETATM   15  C   UNK N   1      20.872  18.202   3.870  0.00  0.00     0.118 A 
HETATM   16  N   UNK N   1      20.981  19.564   3.792  0.00  0.00    -0.338 N 
HETATM   17  C   UNK N   1      20.761  20.247   2.624  0.00  0.00     0.183 A 
ATOM     18  HN  UNK N   1      21.236  20.088   4.630  1.00  0.00     0.168 HD
HETATM   19  N   UNK N   1      20.406  19.579   1.490  0.00  0.00    -0.338 N 
HETATM   20  C   UNK N   1      20.294  18.233   1.544  0.00  0.00     0.120 A 
ATOM     21  HN  UNK N   1      20.231  20.084   0.620  1.00  0.00     0.168 HD
HETATM   22  C   UNK N   1      20.520  17.528   2.681  0.00  0.00     0.053 A 
HETATM   23  N   UNK N   1      19.931  17.438   0.528  0.00  0.00    -0.351 N 
HETATM   24  C   UNK N   1      20.287  16.200   2.382  0.00  0.00     0.036 A 
HETATM   25  C   UNK N   1      19.925  16.181   1.034  0.00  0.00     0.091 A 
HETATM   26  H   UNK N   1      19.713  17.710  -0.392  0.00  0.00     0.166 HD
ENDBRANCH  13  15
ENDBRANCH   9  13
ENDBRANCH   1   4
TORSDOF 3
ENDMDL
MODEL 4
REMARK VINA RESULT:      -6.6     10.556     13.200
REMARK  3 active torsions:
REMARK  status: ('A' for Active; 'I' for Inactive)
REMARK    1  A    between atoms: C_1  and  N_13 
REMARK       I    between atoms: C_8  and  N_6 
REMARK    2  A    between atoms: C_9  and  C_8 
REMARK    3  A    between atoms: N_13  and  C_15 
ROOT
HETATM    1  C   UNK N   1      20.696  20.424   2.615  0.00  0.00     0.226 C 
HETATM    2  C   UNK N   1      20.922  20.654   1.187  0.00  0.00     0.068 C 
HETATM    3  N   UNK N   1      21.120  20.883   0.070  0.00  0.00    -0.197 NA
ENDROOT
BRANCH   1   4
HETATM    4  C   UNK N   1      20.130  19.073   2.992  0.00  0.00     0.232 C 
HETATM    5  O   UNK N   1      18.985  18.791   2.669  0.00  0.00    -0.272 OA
HETATM    6  N   UNK N   1      20.853  18.226   3.786  0.00  0.00    -0.349 N 
HETATM    7  C   UNK N   1      20.174  17.100   4.439  0.00  0.00     0.151 C 
HETATM    8  C   UNK N   1      22.229  18.558   4.091  0.00  0.00     0.126 C 
HETATM    9  C   UNK N   1      21.047  16.086   5.241  0.00  0.00     0.107 C 
HETATM   10  C   UNK N   1      22.489  16.627   5.510  0.00  0.00     0.007 C 
HETATM   11  C   UNK N   1      23.058  17.304   4.288  0.00  0.00     0.026 C 
HETATM   12  C   UNK N   1      23.499  15.640   6.070  0.00  0.00     0.012 C 
BRANCH   9  13
HETATM   13  N   UNK N   1      20.935  14.686   4.762  0.00  0.00    -0.364 N 
HETATM   14  C   UNK N   1      20.641  13.673   5.754  0.00  0.00     0.152 C 
BRANCH  13  15
HETATM   15  C   UNK N   1      20.693  14.354   3.372  0.00  0.00     0.118 A 
HETATM   16  N   UNK N   1      19.425  14.128   2.907  0.00  0.00    -0.338 N 
HETATM   17  C   UNK N   1      19.180  13.759   1.611  0.00  0.00     0.183 A 
ATOM     18  HN  UNK N   1      18.638  14.240   3.547  1.00  0.00     0.168 HD
HETATM   19  N   UNK N   1      20.210  13.587   0.734  0.00  0.00    -0.338 N 
HETATM   20  C   UNK N   1      21.470  13.806   1.172  0.00  0.00     0.120 A 
ATOM     21  HN  UNK N   1      20.034  13.301  -0.230  1.00  0.00     0.168 HD
HETATM   22  C   UNK N   1      21.744  14.188   2.445  0.00  0.00     0.053 A 
HETATM   23  N   UNK N   1      22.587  13.658   0.445  0.00  0.00    -0.351 N 
HETATM   24  C   UNK N   1      23.117  14.288   2.547  0.00  0.00     0.036 A 
HETATM   25  C   UNK N   1      23.609  13.954   1.283  0.00  0.00     0.091 A 
HETATM   26  H   UNK N   1      22.650  13.388  -0.499  0.00  0.00     0.166 HD
ENDBRANCH  13  15
ENDBRANCH   9  13
ENDBRANCH   1   4
TORSDOF 3
ENDMDL
MODEL 5
REMARK VINA RESULT:      -6.4      6.334      8.867
REMARK  3 active torsions:
REMARK  status: ('A' for Active; 'I' for Inactive)
REMARK    1  A    between atoms: C_1  and  N_13 
REMARK       I    between atoms: C_8  and  N_6 
REMARK    2  A    between atoms: C_9  and  C_8 
REMARK    3  A    between atoms: N_13  and  C_15 
ROOT
HETATM    1  C   UNK N   1      35.374  11.887  17.358  0.00  0.00     0.226 C 
HETATM    2  C   UNK N   1      35.207  12.955  18.344  0.00  0.00     0.068 C 
HETATM    3  N   UNK N   1      35.099  13.769  19.160  0.00  0.00    -0.197 NA
ENDROOT
BRANCH   1   4
HETATM    4  C   UNK N   1      34.885  12.187  15.960  0.00  0.00     0.232 C 
HETATM    5  O   UNK N   1      34.369  13.270  15.725  0.00  0.00    -0.272 OA
HETATM    6  N   UNK N   1      34.914  11.213  15.000  0.00  0.00    -0.349 N 
HETATM    7  C   UNK N   1      34.121  11.385  13.777  0.00  0.00     0.151 C 
HETATM    8  C   UNK N   1      35.595   9.968  15.289  0.00  0.00     0.126 C 
HETATM    9  C   UNK N   1      34.268  10.314  12.654  0.00  0.00     0.107 C 
HETATM   10  C   UNK N   1      34.994   9.022  13.155  0.00  0.00     0.007 C 
HETATM   11  C   UNK N   1      36.176   9.362  14.027  0.00  0.00     0.026 C 
HETATM   12  C   UNK N   1      35.405   8.012  12.098  0.00  0.00     0.012 C 
BRANCH   9  13
HETATM   13  N   UNK N   1      34.711  10.867  11.349  0.00  0.00    -0.364 N 
HETATM   14  C   UNK N   1      33.739  10.878  10.276  0.00  0.00     0.152 C 
BRANCH  13  15
HETATM   15  C   UNK N   1      35.860  11.740  11.223  0.00  0.00     0.118 A 
HETATM   16  N   UNK N   1      37.126  11.233  11.101  0.00  0.00    -0.338 N 
HETATM   17  C   UNK N   1      38.231  12.041  11.037  0.00  0.00     0.183 A 
ATOM     18  HN  UNK N   1      37.251  10.221  11.055  1.00  0.00     0.168 HD
HETATM   19  N   UNK N   1      38.102  13.397  11.110  0.00  0.00    -0.338 N 
HETATM   20  C   UNK N   1      36.860  13.919  11.229  0.00  0.00     0.120 A 
ATOM     21  HN  UNK N   1      38.922  14.002  11.074  1.00  0.00     0.168 HD
HETATM   22  C   UNK N   1      35.746  13.145  11.279  0.00  0.00     0.053 A 
HETATM   23  N   UNK N   1      36.568  15.222  11.338  0.00  0.00    -0.351 N 
HETATM   24  C   UNK N   1      34.672  14.000  11.432  0.00  0.00     0.036 A 
HETATM   25  C   UNK N   1      35.220  15.283  11.461  0.00  0.00     0.091 A 
HETATM   26  H   UNK N   1      37.200  15.976  11.330  0.00  0.00     0.166 HD
ENDBRANCH  13  15
ENDBRANCH   9  13
ENDBRANCH   1   4
TORSDOF 3
ENDMDL
MODEL 6
REMARK VINA RESULT:      -6.4     15.135     18.801
REMARK  3 active torsions:
REMARK  status: ('A' for Active; 'I' for Inactive)
REMARK    1  A    between atoms: C_1  and  N_13 
REMARK       I    between atoms: C_8  and  N_6 
REMARK    2  A    between atoms: C_9  and  C_8 
REMARK    3  A    between atoms: N_13  and  C_15 
ROOT
HETATM    1  C   UNK N   1      26.291  24.980  -9.790  0.00  0.00     0.226 C 
HETATM    2  C   UNK N   1      25.154  25.159 -10.694  0.00  0.00     0.068 C 
HETATM    3  N   UNK N   1      24.285  25.285 -11.448  0.00  0.00    -0.197 NA
ENDROOT
BRANCH   1   4
HETATM    4  C   UNK N   1      26.024  25.234  -8.323  0.00  0.00     0.232 C 
HETATM    5  O   UNK N   1      25.248  24.507  -7.721  0.00  0.00    -0.272 OA
HETATM    6  N   UNK N   1      26.556  26.335  -7.712  0.00  0.00    -0.349 N 
HETATM    7  C   UNK N   1      26.013  26.771  -6.420  0.00  0.00     0.151 C 
HETATM    8  C   UNK N   1      27.526  27.134  -8.432  0.00  0.00     0.126 C 
HETATM    9  C   UNK N   1      26.718  27.958  -5.693  0.00  0.00     0.107 C 
HETATM   10  C   UNK N   1      27.702  28.730  -6.634  0.00  0.00     0.007 C 
HETATM   11  C   UNK N   1      28.512  27.779  -7.478  0.00  0.00     0.026 C 
HETATM   12  C   UNK N   1      28.619  29.748  -5.979  0.00  0.00     0.012 C 
BRANCH   9  13
HETATM   13  N   UNK N   1      27.215  27.623  -4.335  0.00  0.00    -0.364 N 
HETATM   14  C   UNK N   1      26.779  28.474  -3.248  0.00  0.00     0.152 C 
BRANCH  13  15
HETATM   15  C   UNK N   1      27.733  26.313  -3.996  0.00  0.00     0.118 A 
HETATM   16  N   UNK N   1      26.906  25.315  -3.554  0.00  0.00    -0.338 N 
HETATM   17  C   UNK N   1      27.384  24.088  -3.175  0.00  0.00     0.183 A 
ATOM     18  HN  UNK N   1      25.902  25.490  -3.507  1.00  0.00     0.168 HD
HETATM   19  N   UNK N   1      28.721  23.825  -3.213  0.00  0.00    -0.338 N 
HETATM   20  C   UNK N   1      29.556  24.795  -3.647  0.00  0.00     0.120 A 
ATOM     21  HN  UNK N   1      29.083  22.916  -2.921  1.00  0.00     0.168 HD
HETATM   22  C   UNK N   1      29.111  26.015  -4.044  0.00  0.00     0.053 A 
HETATM   23  N   UNK N   1      30.891  24.704  -3.720  0.00  0.00    -0.351 N 
HETATM   24  C   UNK N   1      30.226  26.754  -4.390  0.00  0.00     0.036 A 
HETATM   25  C   UNK N   1      31.314  25.906  -4.178  0.00  0.00     0.091 A 
HETATM   26  H   UNK N   1      31.447  23.926  -3.487  0.00  0.00     0.166 HD
ENDBRANCH  13  15
ENDBRANCH   9  13
ENDBRANCH   1   4
TORSDOF 3
ENDMDL
MODEL 7
REMARK VINA RESULT:      -6.4      7.181     10.635
REMARK  3 active torsions:
REMARK  status: ('A' for Active; 'I' for Inactive)
REMARK    1  A    between atoms: C_1  and  N_13 
REMARK       I    between atoms: C_8  and  N_6 
REMARK    2  A    between atoms: C_9  and  C_8 
REMARK    3  A    between atoms: N_13  and  C_15 
ROOT
HETATM    1  C   UNK N   1      27.021  18.665   3.775  0.00  0.00     0.226 C 
HETATM    2  C   UNK N   1      28.095  18.365   4.723  0.00  0.00     0.068 C 
HETATM    3  N   UNK N   1      28.978  18.130   5.433  0.00  0.00    -0.197 NA
ENDROOT
BRANCH   1   4
HETATM    4  C   UNK N   1      25.629  18.772   4.356  0.00  0.00     0.232 C 
HETATM    5  O   UNK N   1      25.280  19.817   4.887  0.00  0.00    -0.272 OA
HETATM    6  N   UNK N   1      24.815  17.674   4.388  0.00  0.00    -0.349 N 
HETATM    7  C   UNK N   1      23.634  17.681   5.260  0.00  0.00     0.151 C 
HETATM    8  C   UNK N   1      25.230  16.476   3.688  0.00  0.00     0.126 C 
HETATM    9  C   UNK N   1      22.664  16.463   5.187  0.00  0.00     0.107 C 
HETATM   10  C   UNK N   1      23.292  15.248   4.428  0.00  0.00     0.007 C 
HETATM   11  C   UNK N   1      24.029  15.696   3.191  0.00  0.00     0.026 C 
HETATM   12  C   UNK N   1      22.361  14.097   4.085  0.00  0.00     0.012 C 
BRANCH   9  13
HETATM   13  N   UNK N   1      21.269  16.825   4.831  0.00  0.00    -0.364 N 
HETATM   14  C   UNK N   1      20.243  16.529   5.809  0.00  0.00     0.152 C 
BRANCH  13  15
HETATM   15  C   UNK N   1      20.954  17.794   3.801  0.00  0.00     0.118 A 
HETATM   16  N   UNK N   1      20.903  19.134   4.078  0.00  0.00    -0.338 N 
HETATM   17  C   UNK N   1      20.552  20.061   3.132  0.00  0.00     0.183 A 
ATOM     18  HN  UNK N   1      21.135  19.452   5.020  1.00  0.00     0.168 HD
HETATM   19  N   UNK N   1      20.222  19.668   1.868  0.00  0.00    -0.338 N 
HETATM   20  C   UNK N   1      20.267  18.350   1.572  0.00  0.00     0.120 A 
ATOM     21  HN  UNK N   1      19.949  20.353   1.163  1.00  0.00     0.168 HD
HETATM   22  C   UNK N   1      20.626  17.410   2.483  0.00  0.00     0.053 A 
HETATM   23  N   UNK N   1      19.950  17.803   0.390  0.00  0.00    -0.351 N 
HETATM   24  C   UNK N   1      20.532  16.185   1.853  0.00  0.00     0.036 A 
HETATM   25  C   UNK N   1      20.112  16.468   0.552  0.00  0.00     0.091 A 
HETATM   26  H   UNK N   1      19.660  18.273  -0.424  0.00  0.00     0.166 HD
ENDBRANCH  13  15
ENDBRANCH   9  13
ENDBRANCH   1   4
TORSDOF 3
ENDMDL
MODEL 8
REMARK VINA RESULT:      -6.3     14.229     16.857
REMARK  3 active torsions:
REMARK  status: ('A' for Active; 'I' for Inactive)
REMARK    1  A    between atoms: C_1  and  N_13 
REMARK       I    between atoms: C_8  and  N_6 
REMARK    2  A    between atoms: C_9  and  C_8 
REMARK    3  A    between atoms: N_13  and  C_15 
ROOT
HETATM    1  C   UNK N   1      28.125  30.359  -1.509  0.00  0.00     0.226 C 
HETATM    2  C   UNK N   1      28.515  30.126  -0.118  0.00  0.00     0.068 C 
HETATM    3  N   UNK N   1      28.793  29.982   0.996  0.00  0.00    -0.197 NA
ENDROOT
BRANCH   1   4
HETATM    4  C   UNK N   1      28.669  29.383  -2.527  0.00  0.00     0.232 C 
HETATM    5  O   UNK N   1      29.873  29.179  -2.578  0.00  0.00    -0.272 OA
HETATM    6  N   UNK N   1      27.833  28.826  -3.456  0.00  0.00    -0.349 N 
HETATM    7  C   UNK N   1      28.407  28.182  -4.643  0.00  0.00     0.151 C 
HETATM    8  C   UNK N   1      26.406  29.032  -3.324  0.00  0.00     0.126 C 
HETATM    9  C   UNK N   1      27.435  27.455  -5.622  0.00  0.00     0.107 C 
HETATM   10  C   UNK N   1      25.938  27.824  -5.357  0.00  0.00     0.007 C 
HETATM   11  C   UNK N   1      25.634  27.852  -3.880  0.00  0.00     0.026 C 
HETATM   12  C   UNK N   1      24.889  27.001  -6.084  0.00  0.00     0.012 C 
BRANCH   9  13
HETATM   13  N   UNK N   1      27.745  26.016  -5.820  0.00  0.00    -0.364 N 
HETATM   14  C   UNK N   1      28.167  25.611  -7.144  0.00  0.00     0.152 C 
BRANCH  13  15
HETATM   15  C   UNK N   1      28.044  25.125  -4.718  0.00  0.00     0.118 A 
HETATM   16  N   UNK N   1      27.053  24.638  -3.908  0.00  0.00    -0.338 N 
HETATM   17  C   UNK N   1      27.322  23.840  -2.827  0.00  0.00     0.183 A 
ATOM     18  HN  UNK N   1      26.083  24.876  -4.118  1.00  0.00     0.168 HD
HETATM   19  N   UNK N   1      28.607  23.514  -2.511  0.00  0.00    -0.338 N 
HETATM   20  C   UNK N   1      29.602  23.983  -3.297  0.00  0.00     0.120 A 
ATOM     21  HN  UNK N   1      28.813  22.929  -1.700  1.00  0.00     0.168 HD
HETATM   22  C   UNK N   1      29.367  24.763  -4.383  0.00  0.00     0.053 A 
HETATM   23  N   UNK N   1      30.912  23.775  -3.107  0.00  0.00    -0.351 N 
HETATM   24  C   UNK N   1      30.598  25.078  -4.924  0.00  0.00     0.036 A 
HETATM   25  C   UNK N   1      31.536  24.445  -4.106  0.00  0.00     0.091 A 
HETATM   26  H   UNK N   1      31.333  23.247  -2.391  0.00  0.00     0.166 HD
ENDBRANCH  13  15
ENDBRANCH   9  13
ENDBRANCH   1   4
TORSDOF 3
ENDMDL
MODEL 9
REMARK VINA RESULT:      -6.3      1.769      2.275
REMARK  3 active torsions:
REMARK  status: ('A' for Active; 'I' for Inactive)
REMARK    1  A    between atoms: C_1  and  N_13 
REMARK       I    between atoms: C_8  and  N_6 
REMARK    2  A    between atoms: C_9  and  C_8 
REMARK    3  A    between atoms: N_13  and  C_15 
ROOT
HETATM    1  C   UNK N   1      37.299  14.272   9.745  0.00  0.00     0.226 C 
HETATM    2  C   UNK N   1      37.438  13.350  10.874  0.00  0.00     0.068 C 
HETATM    3  N   UNK N   1      37.590  12.602  11.743  0.00  0.00    -0.197 NA
ENDROOT
BRANCH   1   4
HETATM    4  C   UNK N   1      36.158  15.260   9.826  0.00  0.00     0.232 C 
HETATM    5  O   UNK N   1      36.202  16.161  10.652  0.00  0.00    -0.272 OA
HETATM    6  N   UNK N   1      35.038  15.076   9.064  0.00  0.00    -0.349 N 
HETATM    7  C   UNK N   1      33.811  15.807   9.402  0.00  0.00     0.151 C 
HETATM    8  C   UNK N   1      35.046  14.044   8.047  0.00  0.00     0.126 C 
HETATM    9  C   UNK N   1      32.587  15.665   8.445  0.00  0.00     0.107 C 
HETATM   10  C   UNK N   1      32.754  14.477   7.441  0.00  0.00     0.007 C 
HETATM   11  C   UNK N   1      34.154  14.424   6.882  0.00  0.00     0.026 C 
HETATM   12  C   UNK N   1      31.744  14.389   6.310  0.00  0.00     0.012 C 
BRANCH   9  13
HETATM   13  N   UNK N   1      32.109  16.954   7.885  0.00  0.00    -0.364 N 
HETATM   14  C   UNK N   1      32.712  17.395   6.645  0.00  0.00     0.152 C 
BRANCH  13  15
HETATM   15  C   UNK N   1      30.842  17.545   8.263  0.00  0.00     0.118 A 
HETATM   16  N   UNK N   1      30.674  18.147   9.481  0.00  0.00    -0.338 N 
HETATM   17  C   UNK N   1      29.468  18.661   9.880  0.00  0.00     0.183 A 
ATOM     18  HN  UNK N   1      31.473  18.215  10.112  1.00  0.00     0.168 HD
HETATM   19  N   UNK N   1      28.377  18.574   9.068  0.00  0.00    -0.338 N 
HETATM   20  C   UNK N   1      28.520  17.985   7.859  0.00  0.00     0.120 A 
ATOM     21  HN  UNK N   1      27.474  18.946   9.364  1.00  0.00     0.168 HD
HETATM   22  C   UNK N   1      29.704  17.480   7.430  0.00  0.00     0.053 A 
HETATM   23  N   UNK N   1      27.544  17.800   6.960  0.00  0.00    -0.351 N 
HETATM   24  C   UNK N   1      29.478  16.935   6.182  0.00  0.00     0.036 A 
HETATM   25  C   UNK N   1      28.124  17.154   5.920  0.00  0.00     0.091 A 
HETATM   26  H   UNK N   1      26.602  18.075   7.039  0.00  0.00     0.166 HD
ENDBRANCH  13  15
ENDBRANCH   9  13
ENDBRANCH   1   4
TORSDOF 3
ENDMDL
