MODEL 1
REMARK VINA RESULT:      -8.0      0.000      0.000
REMARK  5 active torsions:
REMARK  status: ('A' for Active; 'I' for Inactive)
REMARK    1  A    between atoms: C_2  and  C_3 
REMARK       I    between atoms: C_3  and  N_5 
REMARK    2  A    between atoms: N_5  and  S_6 
REMARK    3  A    between atoms: S_6  and  C_9 
REMARK    4  A    between atoms: C_12  and  C_15 
REMARK    5  A    between atoms: C_17  and  C_21 
ROOT
HETATM    1  C   UNK N   1      20.211  16.542   6.601  0.00  0.00     0.080 A 
HETATM    2  C   UNK N   1      21.250  17.297   6.056  0.00  0.00     0.026 A 
HETATM    3  C   UNK N   1      21.292  17.548   4.685  0.00  0.00     0.014 A 
HETATM    4  C   UNK N   1      20.296  17.054   3.826  0.00  0.00    -0.021 A 
HETATM    5  C   UNK N   1      19.266  16.288   4.387  0.00  0.00     0.014 A 
HETATM    6  C   UNK N   1      19.216  16.035   5.765  0.00  0.00     0.026 A 
ENDROOT
BRANCH   4   7
HETATM    7  C   UNK N   1      20.315  17.432   2.370  0.00  0.00     0.035 A 
HETATM    8  C   UNK N   1      20.363  18.744   1.895  0.00  0.00     0.086 A 
HETATM    9  O   UNK N   1      20.313  18.723   0.587  0.00  0.00    -0.241 OA
HETATM   10  C   UNK N   1      20.422  20.012   2.676  0.00  0.00     0.079 C 
HETATM   11  N   UNK N   1      20.242  17.509   0.138  0.00  0.00    -0.259 N 
HETATM   12  C   UNK N   1      20.246  16.661   1.191  0.00  0.00     0.078 A 
ATOM     13  HN  UNK N   1      20.193  17.240  -0.845  1.00  0.00     0.195 HD
BRANCH  12  14
HETATM   14  C   UNK N   1      20.209  15.190   0.957  0.00  0.00    -0.007 A 
HETATM   15  C   UNK N   1      18.973  14.586   0.673  0.00  0.00     0.014 A 
HETATM   16  C   UNK N   1      18.888  13.214   0.420  0.00  0.00     0.001 A 
HETATM   17  C   UNK N   1      20.042  12.430   0.438  0.00  0.00     0.000 A 
HETATM   18  C   UNK N   1      21.278  13.019   0.707  0.00  0.00     0.001 A 
HETATM   19  C   UNK N   1      21.357  14.391   0.961  0.00  0.00     0.014 A 
ENDBRANCH  12  14
ENDBRANCH   4   7
BRANCH   1  20
HETATM   20  S   UNK N   1      20.092  16.390   8.385  0.00  0.00     0.265 S 
HETATM   21  O   UNK N   1      18.643  16.101   8.809  0.00  0.00    -0.200 OA
HETATM   22  O   UNK N   1      20.311  17.750   9.063  0.00  0.00    -0.200 OA
BRANCH  20  23
HETATM   23  N   UNK N   1      21.057  15.284   9.354  0.00  0.00    -0.250 N 
HETATM   24  C   UNK N   1      20.995  13.938   9.234  0.00  0.00     0.230 C 
HETATM   25  O   UNK N   1      20.314  13.419   8.363  0.00  0.00    -0.273 OA
HETATM   26  H   UNK N   1      21.674  15.665  10.019  0.00  0.00     0.181 HD
BRANCH  24  27
HETATM   27  C   UNK N   1      21.727  13.086  10.221  0.00  0.00     0.099 C 
HETATM   28  C   UNK N   1      20.770  12.312  11.103  0.00  0.00     0.014 C 
ENDBRANCH  24  27
ENDBRANCH  20  23
ENDBRANCH   1  20
TORSDOF 5
ENDMDL
MODEL 2
REMARK VINA RESULT:      -7.9      5.157      7.770
REMARK  5 active torsions:
REMARK  status: ('A' for Active; 'I' for Inactive)
REMARK    1  A    between atoms: C_2  and  C_3 
REMARK       I    between atoms: C_3  and  N_5 
REMARK    2  A    between atoms: N_5  and  S_6 
REMARK    3  A    between atoms: S_6  and  C_9 
REMARK    4  A    between atoms: C_12  and  C_15 
REMARK    5  A    between atoms: C_17  and  C_21 
ROOT
HETATM    1  C   UNK N   1      22.518  19.808   3.225  0.00  0.00     0.080 A 
HETATM    2  C   UNK N   1      23.621  20.564   2.828  0.00  0.00     0.026 A 
HETATM    3  C   UNK N   1      24.871  20.339   3.405  0.00  0.00     0.014 A 
HETATM    4  C   UNK N   1      25.049  19.354   4.390  0.00  0.00    -0.021 A 
HETATM    5  C   UNK N   1      23.929  18.611   4.785  0.00  0.00     0.014 A 
HETATM    6  C   UNK N   1      22.671  18.828   4.206  0.00  0.00     0.026 A 
ENDROOT
BRANCH   4   7
HETATM    7  C   UNK N   1      26.430  19.067   4.915  0.00  0.00     0.035 A 
HETATM    8  C   UNK N   1      27.067  19.810   5.911  0.00  0.00     0.086 A 
HETATM    9  O   UNK N   1      28.270  19.331   6.092  0.00  0.00    -0.241 OA
HETATM   10  C   UNK N   1      26.550  20.989   6.663  0.00  0.00     0.079 C 
HETATM   11  N   UNK N   1      28.499  18.322   5.309  0.00  0.00    -0.259 N 
HETATM   12  C   UNK N   1      27.397  18.104   4.559  0.00  0.00     0.078 A 
ATOM     13  HN  UNK N   1      29.366  17.785   5.268  1.00  0.00     0.195 HD
BRANCH  12  14
HETATM   14  C   UNK N   1      27.372  16.973   3.591  0.00  0.00    -0.007 A 
HETATM   15  C   UNK N   1      28.587  16.348   3.257  0.00  0.00     0.014 A 
HETATM   16  C   UNK N   1      28.615  15.265   2.374  0.00  0.00     0.001 A 
HETATM   17  C   UNK N   1      27.428  14.785   1.821  0.00  0.00     0.000 A 
HETATM   18  C   UNK N   1      26.214  15.388   2.153  0.00  0.00     0.001 A 
HETATM   19  C   UNK N   1      26.191  16.473   3.035  0.00  0.00     0.014 A 
ENDBRANCH  12  14
ENDBRANCH   4   7
BRANCH   1  20
HETATM   20  S   UNK N   1      20.970  19.999   2.337  0.00  0.00     0.265 S 
HETATM   21  O   UNK N   1      20.926  21.350   1.607  0.00  0.00    -0.200 OA
HETATM   22  O   UNK N   1      19.800  20.177   3.316  0.00  0.00    -0.200 OA
BRANCH  20  23
HETATM   23  N   UNK N   1      20.353  18.848   1.159  0.00  0.00    -0.250 N 
HETATM   24  C   UNK N   1      20.116  17.547   1.441  0.00  0.00     0.230 C 
HETATM   25  O   UNK N   1      20.239  17.121   2.579  0.00  0.00    -0.273 OA
HETATM   26  H   UNK N   1      20.171  19.168   0.246  0.00  0.00     0.181 HD
BRANCH  24  27
HETATM   27  C   UNK N   1      19.757  16.616   0.327  0.00  0.00     0.099 C 
HETATM   28  C   UNK N   1      19.741  15.175   0.791  0.00  0.00     0.014 C 
ENDBRANCH  24  27
ENDBRANCH  20  23
ENDBRANCH   1  20
TORSDOF 5
ENDMDL
MODEL 3
REMARK VINA RESULT:      -7.8      3.491      5.252
REMARK  5 active torsions:
REMARK  status: ('A' for Active; 'I' for Inactive)
REMARK    1  A    between atoms: C_2  and  C_3 
REMARK       I    between atoms: C_3  and  N_5 
REMARK    2  A    between atoms: N_5  and  S_6 
REMARK    3  A    between atoms: S_6  and  C_9 
REMARK    4  A    between atoms: C_12  and  C_15 
REMARK    5  A    between atoms: C_17  and  C_21 
ROOT
HETATM    1  C   UNK N   1      21.512  16.087   6.857  0.00  0.00     0.080 A 
HETATM    2  C   UNK N   1      21.056  17.401   6.969  0.00  0.00     0.026 A 
HETATM    3  C   UNK N   1      21.491  18.375   6.070  0.00  0.00     0.014 A 
HETATM    4  C   UNK N   1      22.390  18.060   5.037  0.00  0.00    -0.021 A 
HETATM    5  C   UNK N   1      22.846  16.738   4.945  0.00  0.00     0.014 A 
HETATM    6  C   UNK N   1      22.410  15.754   5.842  0.00  0.00     0.026 A 
ENDROOT
BRANCH   4   7
HETATM    7  C   UNK N   1      22.755  19.109   4.023  0.00  0.00     0.035 A 
HETATM    8  C   UNK N   1      21.845  19.734   3.168  0.00  0.00     0.086 A 
HETATM    9  O   UNK N   1      22.495  20.551   2.381  0.00  0.00    -0.241 OA
HETATM   10  C   UNK N   1      20.371  19.532   3.076  0.00  0.00     0.079 C 
HETATM   11  N   UNK N   1      23.767  20.539   2.635  0.00  0.00    -0.259 N 
HETATM   12  C   UNK N   1      23.993  19.671   3.646  0.00  0.00     0.078 A 
ATOM     13  HN  UNK N   1      24.476  21.092   2.153  1.00  0.00     0.195 HD
BRANCH  12  14
HETATM   14  C   UNK N   1      25.376  19.486   4.168  0.00  0.00    -0.007 A 
HETATM   15  C   UNK N   1      26.073  18.315   3.824  0.00  0.00     0.014 A 
HETATM   16  C   UNK N   1      27.382  18.106   4.267  0.00  0.00     0.001 A 
HETATM   17  C   UNK N   1      28.016  19.071   5.050  0.00  0.00     0.000 A 
HETATM   18  C   UNK N   1      27.340  20.243   5.388  0.00  0.00     0.001 A 
HETATM   19  C   UNK N   1      26.029  20.447   4.946  0.00  0.00     0.014 A 
ENDBRANCH  12  14
ENDBRANCH   4   7
BRANCH   1  20
HETATM   20  S   UNK N   1      20.796  14.827   7.915  0.00  0.00     0.265 S 
HETATM   21  O   UNK N   1      20.320  13.626   7.082  0.00  0.00    -0.200 OA
HETATM   22  O   UNK N   1      19.459  15.303   8.500  0.00  0.00    -0.200 OA
BRANCH  20  23
HETATM   23  N   UNK N   1      21.617  14.104   9.291  0.00  0.00    -0.250 N 
HETATM   24  C   UNK N   1      22.783  13.426   9.194  0.00  0.00     0.230 C 
HETATM   25  O   UNK N   1      23.381  13.361   8.130  0.00  0.00    -0.273 OA
HETATM   26  H   UNK N   1      21.205  14.196  10.181  0.00  0.00     0.181 HD
BRANCH  24  27
HETATM   27  C   UNK N   1      23.308  12.704  10.394  0.00  0.00     0.099 C 
HETATM   28  C   UNK N   1      22.185  12.135  11.234  0.00  0.00     0.014 C 
ENDBRANCH  24  27
ENDBRANCH  20  23
ENDBRANCH   1  20
TORSDOF 5
ENDMDL
MODEL 4
REMARK VINA RESULT:      -7.8      3.392      5.184
REMARK  5 active torsions:
REMARK  status: ('A' for Active; 'I' for Inactive)
REMARK    1  A    between atoms: C_2  and  C_3 
REMARK       I    between atoms: C_3  and  N_5 
REMARK    2  A    between atoms: N_5  and  S_6 
REMARK    3  A    between atoms: S_6  and  C_9 
REMARK    4  A    between atoms: C_12  and  C_15 
REMARK    5  A    between atoms: C_17  and  C_21 
ROOT
HETATM    1  C   UNK N   1      21.515  15.983   6.659  0.00  0.00     0.080 A 
HETATM    2  C   UNK N   1      21.160  17.311   6.901  0.00  0.00     0.026 A 
HETATM    3  C   UNK N   1      21.575  18.319   6.031  0.00  0.00     0.014 A 
HETATM    4  C   UNK N   1      22.353  18.026   4.898  0.00  0.00    -0.021 A 
HETATM    5  C   UNK N   1      22.710  16.689   4.676  0.00  0.00     0.014 A 
HETATM    6  C   UNK N   1      22.293  15.671   5.543  0.00  0.00     0.026 A 
ENDROOT
BRANCH   4   7
HETATM    7  C   UNK N   1      22.694  19.121   3.926  0.00  0.00     0.035 A 
HETATM    8  C   UNK N   1      21.761  19.793   3.133  0.00  0.00     0.086 A 
HETATM    9  O   UNK N   1      22.392  20.645   2.366  0.00  0.00    -0.241 OA
HETATM   10  C   UNK N   1      20.283  19.605   3.079  0.00  0.00     0.079 C 
HETATM   11  N   UNK N   1      23.671  20.612   2.578  0.00  0.00    -0.259 N 
HETATM   12  C   UNK N   1      23.923  19.693   3.537  0.00  0.00     0.078 A 
ATOM     13  HN  UNK N   1      24.368  21.183   2.100  1.00  0.00     0.195 HD
BRANCH  12  14
HETATM   14  C   UNK N   1      25.320  19.475   4.004  0.00  0.00    -0.007 A 
HETATM   15  C   UNK N   1      25.953  20.497   4.733  0.00  0.00     0.014 A 
HETATM   16  C   UNK N   1      27.254  20.331   5.216  0.00  0.00     0.001 A 
HETATM   17  C   UNK N   1      27.936  19.136   4.986  0.00  0.00     0.000 A 
HETATM   18  C   UNK N   1      27.315  18.109   4.275  0.00  0.00     0.001 A 
HETATM   19  C   UNK N   1      26.015  18.280   3.791  0.00  0.00     0.014 A 
ENDBRANCH  12  14
ENDBRANCH   4   7
BRANCH   1  20
HETATM   20  S   UNK N   1      20.817  14.695   7.694  0.00  0.00     0.265 S 
HETATM   21  O   UNK N   1      20.107  13.635   6.838  0.00  0.00    -0.200 OA
HETATM   22  O   UNK N   1      19.629  15.233   8.505  0.00  0.00    -0.200 OA
BRANCH  20  23
HETATM   23  N   UNK N   1      21.732  13.762   8.871  0.00  0.00    -0.250 N 
HETATM   24  C   UNK N   1      21.170  13.146   9.935  0.00  0.00     0.230 C 
HETATM   25  O   UNK N   1      19.957  13.135  10.083  0.00  0.00    -0.273 OA
HETATM   26  H   UNK N   1      22.706  13.684   8.749  0.00  0.00     0.181 HD
BRANCH  24  27
HETATM   27  C   UNK N   1      22.056  12.525  10.968  0.00  0.00     0.099 C 
HETATM   28  C   UNK N   1      22.950  11.462  10.366  0.00  0.00     0.014 C 
ENDBRANCH  24  27
ENDBRANCH  20  23
ENDBRANCH   1  20
TORSDOF 5
ENDMDL
MODEL 5
REMARK VINA RESULT:      -7.7     12.679     14.063
REMARK  5 active torsions:
REMARK  status: ('A' for Active; 'I' for Inactive)
REMARK    1  A    between atoms: C_2  and  C_3 
REMARK       I    between atoms: C_3  and  N_5 
REMARK    2  A    between atoms: N_5  and  S_6 
REMARK    3  A    between atoms: S_6  and  C_9 
REMARK    4  A    between atoms: C_12  and  C_15 
REMARK    5  A    between atoms: C_17  and  C_21 
ROOT
HETATM    1  C   UNK N   1      34.630  15.682  10.035  0.00  0.00     0.080 A 
HETATM    2  C   UNK N   1      33.496  14.880   9.903  0.00  0.00     0.026 A 
HETATM    3  C   UNK N   1      32.378  15.352   9.215  0.00  0.00     0.014 A 
HETATM    4  C   UNK N   1      32.367  16.634   8.641  0.00  0.00    -0.021 A 
HETATM    5  C   UNK N   1      33.509  17.431   8.792  0.00  0.00     0.014 A 
HETATM    6  C   UNK N   1      34.638  16.962   9.478  0.00  0.00     0.026 A 
ENDROOT
BRANCH   4   7
HETATM    7  C   UNK N   1      31.186  17.070   7.818  0.00  0.00     0.035 A 
HETATM    8  C   UNK N   1      29.999  17.582   8.346  0.00  0.00     0.086 A 
HETATM    9  O   UNK N   1      29.163  17.810   7.366  0.00  0.00    -0.241 OA
HETATM   10  C   UNK N   1      29.648  17.823   9.775  0.00  0.00     0.079 C 
HETATM   11  N   UNK N   1      29.685  17.502   6.220  0.00  0.00    -0.259 N 
HETATM   12  C   UNK N   1      30.939  17.044   6.429  0.00  0.00     0.078 A 
ATOM     13  HN  UNK N   1      29.225  17.592   5.313  1.00  0.00     0.195 HD
BRANCH  12  14
HETATM   14  C   UNK N   1      31.786  16.650   5.269  0.00  0.00    -0.007 A 
HETATM   15  C   UNK N   1      32.455  15.414   5.315  0.00  0.00     0.014 A 
HETATM   16  C   UNK N   1      33.241  14.986   4.242  0.00  0.00     0.001 A 
HETATM   17  C   UNK N   1      33.360  15.783   3.104  0.00  0.00     0.000 A 
HETATM   18  C   UNK N   1      32.692  17.006   3.040  0.00  0.00     0.001 A 
HETATM   19  C   UNK N   1      31.909  17.432   4.117  0.00  0.00     0.014 A 
ENDBRANCH  12  14
ENDBRANCH   4   7
BRANCH   1  20
HETATM   20  S   UNK N   1      36.110  14.980  10.768  0.00  0.00     0.265 S 
HETATM   21  O   UNK N   1      37.343  15.830  10.423  0.00  0.00    -0.200 OA
HETATM   22  O   UNK N   1      36.485  13.660  10.077  0.00  0.00    -0.200 OA
BRANCH  20  23
HETATM   23  N   UNK N   1      36.295  14.619  12.479  0.00  0.00    -0.250 N 
HETATM   24  C   UNK N   1      35.494  13.763  13.152  0.00  0.00     0.230 C 
HETATM   25  O   UNK N   1      34.639  13.116  12.567  0.00  0.00    -0.273 OA
HETATM   26  H   UNK N   1      37.020  15.066  12.973  0.00  0.00     0.181 HD
BRANCH  24  27
HETATM   27  C   UNK N   1      35.627  13.659  14.638  0.00  0.00     0.099 C 
HETATM   28  C   UNK N   1      36.868  14.368  15.136  0.00  0.00     0.014 C 
ENDBRANCH  24  27
ENDBRANCH  20  23
ENDBRANCH   1  20
TORSDOF 5
ENDMDL
MODEL 6
REMARK VINA RESULT:      -7.5     13.930     17.336
REMARK  5 active torsions:
REMARK  status: ('A' for Active; 'I' for Inactive)
REMARK    1  A    between atoms: C_2  and  C_3 
REMARK       I    between atoms: C_3  and  N_5 
REMARK    2  A    between atoms: N_5  and  S_6 
REMARK    3  A    between atoms: S_6  and  C_9 
REMARK    4  A    between atoms: C_12  and  C_15 
REMARK    5  A    between atoms: C_17  and  C_21 
ROOT
HETATM    1  C   UNK N   1      33.512  15.948   9.088  0.00  0.00     0.080 A 
HETATM    2  C   UNK N   1      34.559  16.594   9.747  0.00  0.00     0.026 A 
HETATM    3  C   UNK N   1      35.585  15.852  10.332  0.00  0.00     0.014 A 
HETATM    4  C   UNK N   1      35.591  14.448  10.272  0.00  0.00    -0.021 A 
HETATM    5  C   UNK N   1      34.527  13.815   9.617  0.00  0.00     0.014 A 
HETATM    6  C   UNK N   1      33.495  14.554   9.023  0.00  0.00     0.026 A 
ENDROOT
BRANCH   4   7
HETATM    7  C   UNK N   1      36.765  13.685  10.822  0.00  0.00     0.035 A 
HETATM    8  C   UNK N   1      37.952  13.451  10.124  0.00  0.00     0.086 A 
HETATM    9  O   UNK N   1      38.740  12.716  10.865  0.00  0.00    -0.241 OA
HETATM   10  C   UNK N   1      38.323  13.894   8.750  0.00  0.00     0.079 C 
HETATM   11  N   UNK N   1      38.192  12.438  12.007  0.00  0.00    -0.259 N 
HETATM   12  C   UNK N   1      36.970  13.015  12.046  0.00  0.00     0.078 A 
ATOM     13  HN  UNK N   1      38.612  11.880  12.750  1.00  0.00     0.195 HD
BRANCH  12  14
HETATM   14  C   UNK N   1      36.128  12.885  13.268  0.00  0.00    -0.007 A 
HETATM   15  C   UNK N   1      35.066  11.965  13.258  0.00  0.00     0.014 A 
HETATM   16  C   UNK N   1      34.263  11.787  14.388  0.00  0.00     0.001 A 
HETATM   17  C   UNK N   1      34.520  12.519  15.547  0.00  0.00     0.000 A 
HETATM   18  C   UNK N   1      35.579  13.426  15.575  0.00  0.00     0.001 A 
HETATM   19  C   UNK N   1      36.377  13.603  14.442  0.00  0.00     0.014 A 
ENDBRANCH  12  14
ENDBRANCH   4   7
BRANCH   1  20
HETATM   20  S   UNK N   1      32.308  16.934   8.195  0.00  0.00     0.265 S 
HETATM   21  O   UNK N   1      32.391  18.408   8.621  0.00  0.00    -0.200 OA
HETATM   22  O   UNK N   1      30.881  16.596   8.652  0.00  0.00    -0.200 OA
BRANCH  20  23
HETATM   23  N   UNK N   1      32.178  16.994   6.443  0.00  0.00    -0.250 N 
HETATM   24  C   UNK N   1      33.182  17.402   5.633  0.00  0.00     0.230 C 
HETATM   25  O   UNK N   1      34.283  17.670   6.089  0.00  0.00    -0.273 OA
HETATM   26  H   UNK N   1      31.329  16.717   6.028  0.00  0.00     0.181 HD
BRANCH  24  27
HETATM   27  C   UNK N   1      32.912  17.580   4.173  0.00  0.00     0.099 C 
HETATM   28  C   UNK N   1      31.578  16.985   3.778  0.00  0.00     0.014 C 
ENDBRANCH  24  27
ENDBRANCH  20  23
ENDBRANCH   1  20
TORSDOF 5
ENDMDL
MODEL 7
REMARK VINA RESULT:      -7.5     14.659     18.582
REMARK  5 active torsions:
REMARK  status: ('A' for Active; 'I' for Inactive)
REMARK    1  A    between atoms: C_2  and  C_3 
REMARK       I    between atoms: C_3  and  N_5 
REMARK    2  A    between atoms: N_5  and  S_6 
REMARK    3  A    between atoms: S_6  and  C_9 
REMARK    4  A    between atoms: C_12  and  C_15 
REMARK    5  A    between atoms: C_17  and  C_21 
ROOT
HETATM    1  C   UNK N   1      35.219  15.630  10.313  0.00  0.00     0.080 A 
HETATM    2  C   UNK N   1      36.545  15.206  10.210  0.00  0.00     0.026 A 
HETATM    3  C   UNK N   1      37.043  14.240  11.084  0.00  0.00     0.014 A 
HETATM    4  C   UNK N   1      36.230  13.674  12.081  0.00  0.00    -0.021 A 
HETATM    5  C   UNK N   1      34.906  14.119  12.178  0.00  0.00     0.014 A 
HETATM    6  C   UNK N   1      34.397  15.086  11.300  0.00  0.00     0.026 A 
ENDROOT
BRANCH   4   7
HETATM    7  C   UNK N   1      36.769  12.561  12.936  0.00  0.00     0.035 A 
HETATM    8  C   UNK N   1      37.267  11.353  12.442  0.00  0.00     0.086 A 
HETATM    9  O   UNK N   1      37.604  10.590  13.449  0.00  0.00    -0.241 OA
HETATM   10  C   UNK N   1      37.392  10.913  11.023  0.00  0.00     0.079 C 
HETATM   11  N   UNK N   1      37.383  11.180  14.583  0.00  0.00    -0.259 N 
HETATM   12  C   UNK N   1      36.873  12.407  14.335  0.00  0.00     0.078 A 
ATOM     13  HN  UNK N   1      37.565  10.784  15.505  1.00  0.00     0.195 HD
BRANCH  12  14
HETATM   14  C   UNK N   1      36.558  13.321  15.468  0.00  0.00    -0.007 A 
HETATM   15  C   UNK N   1      35.622  12.902  16.429  0.00  0.00     0.014 A 
HETATM   16  C   UNK N   1      35.311  13.711  17.526  0.00  0.00     0.001 A 
HETATM   17  C   UNK N   1      35.941  14.945  17.681  0.00  0.00     0.000 A 
HETATM   18  C   UNK N   1      36.882  15.368  16.741  0.00  0.00     0.001 A 
HETATM   19  C   UNK N   1      37.187  14.557  15.645  0.00  0.00     0.014 A 
ENDBRANCH  12  14
ENDBRANCH   4   7
BRANCH   1  20
HETATM   20  S   UNK N   1      34.562  16.738   9.064  0.00  0.00     0.265 S 
HETATM   21  O   UNK N   1      34.935  16.249   7.655  0.00  0.00    -0.200 OA
HETATM   22  O   UNK N   1      35.299  18.086   9.090  0.00  0.00    -0.200 OA
BRANCH  20  23
HETATM   23  N   UNK N   1      32.869  17.193   8.932  0.00  0.00    -0.250 N 
HETATM   24  C   UNK N   1      31.874  16.308   8.697  0.00  0.00     0.230 C 
HETATM   25  O   UNK N   1      32.102  15.109   8.652  0.00  0.00    -0.273 OA
HETATM   26  H   UNK N   1      32.633  18.144   9.035  0.00  0.00     0.181 HD
BRANCH  24  27
HETATM   27  C   UNK N   1      30.494  16.819   8.431  0.00  0.00     0.099 C 
HETATM   28  C   UNK N   1      30.325  17.238   6.987  0.00  0.00     0.014 C 
ENDBRANCH  24  27
ENDBRANCH  20  23
ENDBRANCH   1  20
TORSDOF 5
ENDMDL
MODEL 8
REMARK VINA RESULT:      -7.3      4.555      6.572
REMARK  5 active torsions:
REMARK  status: ('A' for Active; 'I' for Inactive)
REMARK    1  A    between atoms: C_2  and  C_3 
REMARK       I    between atoms: C_3  and  N_5 
REMARK    2  A    between atoms: N_5  and  S_6 
REMARK    3  A    between atoms: S_6  and  C_9 
REMARK    4  A    between atoms: C_12  and  C_15 
REMARK    5  A    between atoms: C_17  and  C_21 
ROOT
HETATM    1  C   UNK N   1      22.303  15.827   6.776  0.00  0.00     0.080 A 
HETATM    2  C   UNK N   1      23.376  14.939   6.861  0.00  0.00     0.026 A 
HETATM    3  C   UNK N   1      24.476  15.083   6.015  0.00  0.00     0.014 A 
HETATM    4  C   UNK N   1      24.531  16.118   5.066  0.00  0.00    -0.021 A 
HETATM    5  C   UNK N   1      23.441  16.994   4.987  0.00  0.00     0.014 A 
HETATM    6  C   UNK N   1      22.334  16.858   5.837  0.00  0.00     0.026 A 
ENDROOT
BRANCH   4   7
HETATM    7  C   UNK N   1      25.776  16.307   4.244  0.00  0.00     0.035 A 
HETATM    8  C   UNK N   1      26.208  15.426   3.250  0.00  0.00     0.086 A 
HETATM    9  O   UNK N   1      27.346  15.856   2.769  0.00  0.00    -0.241 OA
HETATM   10  C   UNK N   1      25.561  14.168   2.781  0.00  0.00     0.079 C 
HETATM   11  N   UNK N   1      27.718  16.955   3.348  0.00  0.00    -0.259 N 
HETATM   12  C   UNK N   1      26.786  17.291   4.267  0.00  0.00     0.078 A 
ATOM     13  HN  UNK N   1      28.570  17.477   3.144  1.00  0.00     0.195 HD
BRANCH  12  14
HETATM   14  C   UNK N   1      26.945  18.542   5.060  0.00  0.00    -0.007 A 
HETATM   15  C   UNK N   1      27.632  18.478   6.285  0.00  0.00     0.014 A 
HETATM   16  C   UNK N   1      27.832  19.628   7.055  0.00  0.00     0.001 A 
HETATM   17  C   UNK N   1      27.357  20.859   6.603  0.00  0.00     0.000 A 
HETATM   18  C   UNK N   1      26.684  20.939   5.383  0.00  0.00     0.001 A 
HETATM   19  C   UNK N   1      26.484  19.786   4.619  0.00  0.00     0.014 A 
ENDBRANCH  12  14
ENDBRANCH   4   7
BRANCH   1  20
HETATM   20  S   UNK N   1      20.990  15.721   7.995  0.00  0.00     0.265 S 
HETATM   21  O   UNK N   1      19.663  15.322   7.331  0.00  0.00    -0.200 OA
HETATM   22  O   UNK N   1      20.625  17.117   8.523  0.00  0.00    -0.200 OA
BRANCH  20  23
HETATM   23  N   UNK N   1      21.063  14.735   9.449  0.00  0.00    -0.250 N 
HETATM   24  C   UNK N   1      21.032  13.383   9.436  0.00  0.00     0.230 C 
HETATM   25  O   UNK N   1      21.042  12.768   8.380  0.00  0.00    -0.273 OA
HETATM   26  H   UNK N   1      21.129  15.191  10.319  0.00  0.00     0.181 HD
BRANCH  24  27
HETATM   27  C   UNK N   1      20.924  12.645  10.732  0.00  0.00     0.099 C 
HETATM   28  C   UNK N   1      22.276  12.153  11.205  0.00  0.00     0.014 C 
ENDBRANCH  24  27
ENDBRANCH  20  23
ENDBRANCH   1  20
TORSDOF 5
ENDMDL
MODEL 9
REMARK VINA RESULT:      -7.3     10.206     11.597
REMARK  5 active torsions:
REMARK  status: ('A' for Active; 'I' for Inactive)
REMARK    1  A    between atoms: C_2  and  C_3 
REMARK       I    between atoms: C_3  and  N_5 
REMARK    2  A    between atoms: N_5  and  S_6 
REMARK    3  A    between atoms: S_6  and  C_9 
REMARK    4  A    between atoms: C_12  and  C_15 
REMARK    5  A    between atoms: C_17  and  C_21 
ROOT
HETATM    1  C   UNK N   1      32.605  16.925   6.209  0.00  0.00     0.080 A 
HETATM    2  C   UNK N   1      31.469  16.412   6.835  0.00  0.00     0.026 A 
HETATM    3  C   UNK N   1      30.250  16.375   6.158  0.00  0.00     0.014 A 
HETATM    4  C   UNK N   1      30.137  16.848   4.840  0.00  0.00    -0.021 A 
HETATM    5  C   UNK N   1      31.285  17.371   4.230  0.00  0.00     0.014 A 
HETATM    6  C   UNK N   1      32.514  17.406   4.903  0.00  0.00     0.026 A 
ENDROOT
BRANCH   4   7
HETATM    7  C   UNK N   1      28.834  16.697   4.104  0.00  0.00     0.035 A 
HETATM    8  C   UNK N   1      28.521  15.628   3.262  0.00  0.00     0.086 A 
HETATM    9  O   UNK N   1      27.337  15.830   2.743  0.00  0.00    -0.241 OA
HETATM   10  C   UNK N   1      29.353  14.438   2.925  0.00  0.00     0.079 C 
HETATM   11  N   UNK N   1      26.819  16.941   3.168  0.00  0.00    -0.259 N 
HETATM   12  C   UNK N   1      27.693  17.522   4.019  0.00  0.00     0.078 A 
ATOM     13  HN  UNK N   1      25.906  17.311   2.904  1.00  0.00     0.195 HD
BRANCH  12  14
HETATM   14  C   UNK N   1      27.334  18.804   4.688  0.00  0.00    -0.007 A 
HETATM   15  C   UNK N   1      27.649  18.963   6.048  0.00  0.00     0.014 A 
HETATM   16  C   UNK N   1      27.357  20.157   6.715  0.00  0.00     0.001 A 
HETATM   17  C   UNK N   1      26.755  21.210   6.027  0.00  0.00     0.000 A 
HETATM   18  C   UNK N   1      26.449  21.070   4.673  0.00  0.00     0.001 A 
HETATM   19  C   UNK N   1      26.740  19.874   4.011  0.00  0.00     0.014 A 
ENDBRANCH  12  14
ENDBRANCH   4   7
BRANCH   1  20
HETATM   20  S   UNK N   1      34.189  16.792   7.042  0.00  0.00     0.265 S 
HETATM   21  O   UNK N   1      34.784  18.185   7.302  0.00  0.00    -0.200 OA
HETATM   22  O   UNK N   1      35.253  16.211   6.098  0.00  0.00    -0.200 OA
BRANCH  20  23
HETATM   23  N   UNK N   1      34.450  15.920   8.546  0.00  0.00    -0.250 N 
HETATM   24  C   UNK N   1      34.182  14.604   8.702  0.00  0.00     0.230 C 
HETATM   25  O   UNK N   1      33.821  13.923   7.754  0.00  0.00    -0.273 OA
HETATM   26  H   UNK N   1      34.809  16.417   9.317  0.00  0.00     0.181 HD
BRANCH  24  27
HETATM   27  C   UNK N   1      34.275  13.999  10.066  0.00  0.00     0.099 C 
HETATM   28  C   UNK N   1      34.561  15.048  11.120  0.00  0.00     0.014 C 
ENDBRANCH  24  27
ENDBRANCH  20  23
ENDBRANCH   1  20
TORSDOF 5
ENDMDL
