MODEL 1
REMARK VINA RESULT:      -8.1      0.000      0.000
REMARK  5 active torsions:
REMARK  status: ('A' for Active; 'I' for Inactive)
REMARK    1  A    between atoms: N_2  and  C_12 
REMARK    2  A    between atoms: C_7  and  N_14 
REMARK    3  A    between atoms: C_18  and  C_20 
REMARK    4  A    between atoms: C_20  and  N_21 
REMARK       I    between atoms: N_21  and  C_22 
REMARK    5  A    between atoms: C_22  and  C_25 
ROOT
HETATM    1  N   UNK N   1      34.957  15.445   9.879  0.00  0.00    -0.291 N 
HETATM    2  C   UNK N   1      36.000  14.701   9.475  0.00  0.00     0.368 C 
HETATM    3  C   UNK N   1      34.846  15.338  11.312  0.00  0.00     0.168 C 
HETATM    4  O   UNK N   1      36.520  13.993  10.491  0.00  0.00    -0.295 OA
HETATM    5  C   UNK N   1      35.574  14.008  11.507  0.00  0.00     0.170 C 
HETATM    6  O   UNK N   1      36.318  14.531   8.309  0.00  0.00    -0.238 OA
ENDROOT
BRANCH   1   7
HETATM    7  C   UNK N   1      33.858  15.884   9.081  0.00  0.00     0.039 A 
HETATM    8  C   UNK N   1      33.772  17.249   8.803  0.00  0.00     0.032 A 
HETATM    9  C   UNK N   1      32.601  17.807   8.329  0.00  0.00     0.032 A 
HETATM   10  C   UNK N   1      31.460  17.027   8.116  0.00  0.00     0.037 A 
HETATM   11  C   UNK N   1      31.559  15.632   8.317  0.00  0.00     0.032 A 
HETATM   12  C   UNK N   1      32.747  15.064   8.811  0.00  0.00     0.032 A 
BRANCH  10  13
HETATM   13  N   UNK N   1      30.206  17.641   7.760  0.00  0.00    -0.314 N 
HETATM   14  C   UNK N   1      29.731  17.510   6.383  0.00  0.00     0.158 C 
HETATM   15  C   UNK N   1      28.331  18.111   6.180  0.00  0.00     0.188 C 
HETATM   16  O   UNK N   1      28.217  19.306   6.905  0.00  0.00    -0.380 OA
HETATM   17  C   UNK N   1      28.121  18.914   8.246  0.00  0.00     0.271 C 
HETATM   18  C   UNK N   1      29.426  18.317   8.680  0.00  0.00     0.248 C 
HETATM   19  O   UNK N   1      29.752  18.418   9.853  0.00  0.00    -0.271 OA
ENDBRANCH  10  13
ENDBRANCH   1   7
BRANCH   5  20
HETATM   20  C   UNK N   1      35.982  13.573  12.906  0.00  0.00     0.157 C 
BRANCH  20  21
HETATM   21  N   UNK N   1      36.627  14.575  13.712  0.00  0.00    -0.354 N 
HETATM   22  C   UNK N   1      36.853  14.423  15.047  0.00  0.00     0.258 C 
HETATM   23  O   UNK N   1      37.602  15.208  15.604  0.00  0.00    -0.267 OA
HETATM   24  H   UNK N   1      36.920  15.410  13.279  0.00  0.00     0.162 HD
BRANCH  22  25
HETATM   25  C   UNK N   1      36.230  13.339  15.864  0.00  0.00     0.074 A 
HETATM   26  S   UNK N   1      36.492  11.713  15.644  0.00  0.00    -0.072 SA
HETATM   27  C   UNK N   1      35.586  11.123  16.895  0.00  0.00     0.075 A 
HETATM   28  C   UNK N   1      35.029  12.214  17.564  0.00  0.00     0.033 A 
HETATM   29 Cl   UNK N   1      35.373   9.432  17.301  0.00  0.00    -0.076 Cl
HETATM   30  C   UNK N   1      35.391  13.467  16.983  0.00  0.00     0.027 A 
ENDBRANCH  22  25
ENDBRANCH  20  21
ENDBRANCH   5  20
TORSDOF 5
ENDMDL
MODEL 2
REMARK VINA RESULT:      -8.0      4.316     10.077
REMARK  5 active torsions:
REMARK  status: ('A' for Active; 'I' for Inactive)
REMARK    1  A    between atoms: N_2  and  C_12 
REMARK    2  A    between atoms: C_7  and  N_14 
REMARK    3  A    between atoms: C_18  and  C_20 
REMARK    4  A    between atoms: C_20  and  N_21 
REMARK       I    between atoms: N_21  and  C_22 
REMARK    5  A    between atoms: C_22  and  C_25 
ROOT
HETATM    1  N   UNK N   1      35.696  13.237  11.763  0.00  0.00    -0.291 N 
HETATM    2  C   UNK N   1      36.675  13.563  10.902  0.00  0.00     0.368 C 
HETATM    3  C   UNK N   1      34.529  14.023  11.448  0.00  0.00     0.168 C 
HETATM    4  O   UNK N   1      36.318  14.596  10.122  0.00  0.00    -0.295 OA
HETATM    5  C   UNK N   1      35.214  15.183  10.725  0.00  0.00     0.170 C 
HETATM    6  O   UNK N   1      37.811  13.119  10.947  0.00  0.00    -0.238 OA
ENDROOT
BRANCH   1   7
HETATM    7  C   UNK N   1      35.848  12.615  13.038  0.00  0.00     0.039 A 
HETATM    8  C   UNK N   1      34.712  12.045  13.613  0.00  0.00     0.032 A 
HETATM    9  C   UNK N   1      34.681  11.716  14.955  0.00  0.00     0.032 A 
HETATM   10  C   UNK N   1      35.783  11.947  15.784  0.00  0.00     0.037 A 
HETATM   11  C   UNK N   1      36.966  12.449  15.196  0.00  0.00     0.032 A 
HETATM   12  C   UNK N   1      36.995  12.795  13.833  0.00  0.00     0.032 A 
BRANCH  10  13
HETATM   13  N   UNK N   1      35.691  11.735  17.205  0.00  0.00    -0.314 N 
HETATM   14  C   UNK N   1      36.094  10.437  17.745  0.00  0.00     0.158 C 
HETATM   15  C   UNK N   1      36.053  10.396  19.281  0.00  0.00     0.188 C 
HETATM   16  O   UNK N   1      34.924  11.086  19.746  0.00  0.00    -0.380 OA
HETATM   17  C   UNK N   1      35.215  12.442  19.546  0.00  0.00     0.271 C 
HETATM   18  C   UNK N   1      35.268  12.724  18.075  0.00  0.00     0.248 C 
HETATM   19  O   UNK N   1      34.962  13.840  17.684  0.00  0.00    -0.271 OA
ENDBRANCH  10  13
ENDBRANCH   1   7
BRANCH   5  20
HETATM   20  C   UNK N   1      34.376  16.173   9.932  0.00  0.00     0.157 C 
BRANCH  20  21
HETATM   21  N   UNK N   1      35.042  17.384   9.534  0.00  0.00    -0.354 N 
HETATM   22  C   UNK N   1      34.609  18.168   8.507  0.00  0.00     0.258 C 
HETATM   23  O   UNK N   1      35.088  19.283   8.384  0.00  0.00    -0.267 OA
HETATM   24  H   UNK N   1      35.848  17.661  10.028  0.00  0.00     0.162 HD
BRANCH  22  25
HETATM   25  C   UNK N   1      33.574  17.731   7.524  0.00  0.00     0.074 A 
HETATM   26  S   UNK N   1      31.955  17.564   7.859  0.00  0.00    -0.072 SA
HETATM   27  C   UNK N   1      31.411  17.143   6.356  0.00  0.00     0.075 A 
HETATM   28  C   UNK N   1      32.512  17.124   5.499  0.00  0.00     0.033 A 
HETATM   29 Cl   UNK N   1      29.750  16.790   5.926  0.00  0.00    -0.076 Cl
HETATM   30  C   UNK N   1      33.736  17.455   6.157  0.00  0.00     0.027 A 
ENDBRANCH  22  25
ENDBRANCH  20  21
ENDBRANCH   5  20
TORSDOF 5
ENDMDL
MODEL 3
REMARK VINA RESULT:      -8.0      3.118      3.910
REMARK  5 active torsions:
REMARK  status: ('A' for Active; 'I' for Inactive)
REMARK    1  A    between atoms: N_2  and  C_12 
REMARK    2  A    between atoms: C_7  and  N_14 
REMARK    3  A    between atoms: C_18  and  C_20 
REMARK    4  A    between atoms: C_20  and  N_21 
REMARK       I    between atoms: N_21  and  C_22 
REMARK    5  A    between atoms: C_22  and  C_25 
ROOT
HETATM    1  N   UNK N   1      33.757  17.194   8.748  0.00  0.00    -0.291 N 
HETATM    2  C   UNK N   1      34.749  18.074   8.966  0.00  0.00     0.368 C 
HETATM    3  C   UNK N   1      33.848  16.149   9.736  0.00  0.00     0.168 C 
HETATM    4  O   UNK N   1      35.583  17.646   9.927  0.00  0.00    -0.295 OA
HETATM    5  C   UNK N   1      35.327  16.292  10.096  0.00  0.00     0.170 C 
HETATM    6  O   UNK N   1      34.984  19.040   8.257  0.00  0.00    -0.238 OA
ENDROOT
BRANCH   1   7
HETATM    7  C   UNK N   1      33.030  17.005   7.535  0.00  0.00     0.039 A 
HETATM    8  C   UNK N   1      31.652  17.223   7.573  0.00  0.00     0.032 A 
HETATM    9  C   UNK N   1      30.830  16.763   6.563  0.00  0.00     0.032 A 
HETATM   10  C   UNK N   1      31.347  16.059   5.471  0.00  0.00     0.037 A 
HETATM   11  C   UNK N   1      32.749  15.902   5.381  0.00  0.00     0.032 A 
HETATM   12  C   UNK N   1      33.586  16.360   6.415  0.00  0.00     0.032 A 
BRANCH  10  13
HETATM   13  N   UNK N   1      30.468  15.460   4.499  0.00  0.00    -0.314 N 
HETATM   14  C   UNK N   1      29.955  16.295   3.414  0.00  0.00     0.158 C 
HETATM   15  C   UNK N   1      29.129  15.497   2.392  0.00  0.00     0.188 C 
HETATM   16  O   UNK N   1      28.332  14.554   3.058  0.00  0.00    -0.380 OA
HETATM   17  C   UNK N   1      29.220  13.558   3.485  0.00  0.00     0.271 C 
HETATM   18  C   UNK N   1      30.123  14.121   4.540  0.00  0.00     0.248 C 
HETATM   19  O   UNK N   1      30.558  13.368   5.397  0.00  0.00    -0.271 OA
ENDBRANCH  10  13
ENDBRANCH   1   7
BRANCH   5  20
HETATM   20  C   UNK N   1      35.873  15.583  11.327  0.00  0.00     0.157 C 
BRANCH  20  21
HETATM   21  N   UNK N   1      36.939  14.647  11.091  0.00  0.00    -0.354 N 
HETATM   22  C   UNK N   1      37.042  13.458  11.748  0.00  0.00     0.258 C 
HETATM   23  O   UNK N   1      37.834  12.629  11.331  0.00  0.00    -0.267 OA
HETATM   24  H   UNK N   1      37.625  14.875  10.423  0.00  0.00     0.162 HD
BRANCH  22  25
HETATM   25  C   UNK N   1      36.231  13.115  12.954  0.00  0.00     0.074 A 
HETATM   26  S   UNK N   1      36.446  13.778  14.463  0.00  0.00    -0.072 SA
HETATM   27  C   UNK N   1      35.206  13.033  15.264  0.00  0.00     0.075 A 
HETATM   28  C   UNK N   1      34.545  12.213  14.347  0.00  0.00     0.033 A 
HETATM   29 Cl   UNK N   1      34.801  13.243  16.955  0.00  0.00    -0.076 Cl
HETATM   30  C   UNK N   1      35.123  12.257  13.042  0.00  0.00     0.027 A 
ENDBRANCH  22  25
ENDBRANCH  20  21
ENDBRANCH   5  20
TORSDOF 5
ENDMDL
MODEL 4
REMARK VINA RESULT:      -7.9      2.505      3.007
REMARK  5 active torsions:
REMARK  status: ('A' for Active; 'I' for Inactive)
REMARK    1  A    between atoms: N_2  and  C_12 
REMARK    2  A    between atoms: C_7  and  N_14 
REMARK    3  A    between atoms: C_18  and  C_20 
REMARK    4  A    between atoms: C_20  and  N_21 
REMARK       I    between atoms: N_21  and  C_22 
REMARK    5  A    between atoms: C_22  and  C_25 
ROOT
HETATM    1  N   UNK N   1      34.182  15.692  10.325  0.00  0.00    -0.291 N 
HETATM    2  C   UNK N   1      35.175  16.569  10.545  0.00  0.00     0.368 C 
HETATM    3  C   UNK N   1      34.283  14.632  11.297  0.00  0.00     0.168 C 
HETATM    4  O   UNK N   1      36.019  16.127  11.492  0.00  0.00    -0.295 OA
HETATM    5  C   UNK N   1      35.766  14.771  11.644  0.00  0.00     0.170 C 
HETATM    6  O   UNK N   1      35.403  17.545   9.849  0.00  0.00    -0.238 OA
ENDROOT
BRANCH   1   7
HETATM    7  C   UNK N   1      33.442  15.520   9.117  0.00  0.00     0.039 A 
HETATM    8  C   UNK N   1      34.066  14.832   8.075  0.00  0.00     0.032 A 
HETATM    9  C   UNK N   1      33.575  14.896   6.785  0.00  0.00     0.032 A 
HETATM   10  C   UNK N   1      32.442  15.655   6.477  0.00  0.00     0.037 A 
HETATM   11  C   UNK N   1      31.756  16.290   7.536  0.00  0.00     0.032 A 
HETATM   12  C   UNK N   1      32.261  16.236   8.848  0.00  0.00     0.032 A 
BRANCH  10  13
HETATM   13  N   UNK N   1      32.025  15.830   5.109  0.00  0.00    -0.314 N 
HETATM   14  C   UNK N   1      32.614  16.920   4.333  0.00  0.00     0.158 C 
HETATM   15  C   UNK N   1      32.164  16.912   2.863  0.00  0.00     0.188 C 
HETATM   16  O   UNK N   1      30.803  16.583   2.785  0.00  0.00    -0.380 OA
HETATM   17  C   UNK N   1      30.740  15.212   3.066  0.00  0.00     0.271 C 
HETATM   18  C   UNK N   1      31.116  14.985   4.499  0.00  0.00     0.248 C 
HETATM   19  O   UNK N   1      30.627  14.031   5.086  0.00  0.00    -0.271 OA
ENDBRANCH  10  13
ENDBRANCH   1   7
BRANCH   5  20
HETATM   20  C   UNK N   1      36.323  14.045  12.859  0.00  0.00     0.157 C 
BRANCH  20  21
HETATM   21  N   UNK N   1      36.843  14.881  13.907  0.00  0.00    -0.354 N 
HETATM   22  C   UNK N   1      36.969  14.463  15.198  0.00  0.00     0.258 C 
HETATM   23  O   UNK N   1      37.625  15.144  15.969  0.00  0.00    -0.267 OA
HETATM   24  H   UNK N   1      37.123  15.798  13.681  0.00  0.00     0.162 HD
BRANCH  22  25
HETATM   25  C   UNK N   1      36.344  13.210  15.717  0.00  0.00     0.074 A 
HETATM   26  S   UNK N   1      36.774  11.673  15.256  0.00  0.00    -0.072 SA
HETATM   27  C   UNK N   1      35.771  10.805  16.244  0.00  0.00     0.075 A 
HETATM   28  C   UNK N   1      35.039  11.717  17.007  0.00  0.00     0.033 A 
HETATM   29 Cl   UNK N   1      35.657   9.059  16.315  0.00  0.00    -0.076 Cl
HETATM   30  C   UNK N   1      35.361  13.076  16.710  0.00  0.00     0.027 A 
ENDBRANCH  22  25
ENDBRANCH  20  21
ENDBRANCH   5  20
TORSDOF 5
ENDMDL
MODEL 5
REMARK VINA RESULT:      -7.9      4.991     10.283
REMARK  5 active torsions:
REMARK  status: ('A' for Active; 'I' for Inactive)
REMARK    1  A    between atoms: N_2  and  C_12 
REMARK    2  A    between atoms: C_7  and  N_14 
REMARK    3  A    between atoms: C_18  and  C_20 
REMARK    4  A    between atoms: C_20  and  N_21 
REMARK       I    between atoms: N_21  and  C_22 
REMARK    5  A    between atoms: C_22  and  C_25 
ROOT
HETATM    1  N   UNK N   1      34.237  16.729   8.711  0.00  0.00    -0.291 N 
HETATM    2  C   UNK N   1      34.344  18.049   8.480  0.00  0.00     0.368 C 
HETATM    3  C   UNK N   1      32.911  16.306   8.337  0.00  0.00     0.168 C 
HETATM    4  O   UNK N   1      33.166  18.580   8.113  0.00  0.00    -0.295 OA
HETATM    5  C   UNK N   1      32.192  17.650   8.450  0.00  0.00     0.170 C 
HETATM    6  O   UNK N   1      35.324  18.722   8.755  0.00  0.00    -0.238 OA
ENDROOT
BRANCH   1   7
HETATM    7  C   UNK N   1      35.047  15.944   9.584  0.00  0.00     0.039 A 
HETATM    8  C   UNK N   1      35.337  14.638   9.189  0.00  0.00     0.032 A 
HETATM    9  C   UNK N   1      35.825  13.712  10.090  0.00  0.00     0.032 A 
HETATM   10  C   UNK N   1      36.041  14.048  11.430  0.00  0.00     0.037 A 
HETATM   11  C   UNK N   1      35.829  15.389  11.824  0.00  0.00     0.032 A 
HETATM   12  C   UNK N   1      35.320  16.329  10.910  0.00  0.00     0.032 A 
BRANCH  10  13
HETATM   13  N   UNK N   1      36.413  13.041  12.390  0.00  0.00    -0.314 N 
HETATM   14  C   UNK N   1      37.612  12.243  12.137  0.00  0.00     0.158 C 
HETATM   15  C   UNK N   1      37.948  11.294  13.298  0.00  0.00     0.188 C 
HETATM   16  O   UNK N   1      36.769  10.737  13.813  0.00  0.00    -0.380 OA
HETATM   17  C   UNK N   1      36.150  11.776  14.519  0.00  0.00     0.271 C 
HETATM   18  C   UNK N   1      35.696  12.827  13.553  0.00  0.00     0.248 C 
HETATM   19  O   UNK N   1      34.712  13.494  13.837  0.00  0.00    -0.271 OA
ENDBRANCH  10  13
ENDBRANCH   1   7
BRANCH   5  20
HETATM   20  C   UNK N   1      30.792  17.803   7.878  0.00  0.00     0.157 C 
BRANCH  20  21
HETATM   21  N   UNK N   1      29.709  17.518   8.780  0.00  0.00    -0.354 N 
HETATM   22  C   UNK N   1      28.410  17.823   8.503  0.00  0.00     0.258 C 
HETATM   23  O   UNK N   1      27.537  17.345   9.208  0.00  0.00    -0.267 OA
HETATM   24  H   UNK N   1      29.915  17.080   9.638  0.00  0.00     0.162 HD
BRANCH  22  25
HETATM   25  C   UNK N   1      28.001  18.713   7.376  0.00  0.00     0.074 A 
HETATM   26  S   UNK N   1      27.650  18.196   5.837  0.00  0.00    -0.072 SA
HETATM   27  C   UNK N   1      27.214  19.641   5.160  0.00  0.00     0.075 A 
HETATM   28  C   UNK N   1      27.322  20.619   6.150  0.00  0.00     0.033 A 
HETATM   29 Cl   UNK N   1      26.708  19.888   3.501  0.00  0.00    -0.076 Cl
HETATM   30  C   UNK N   1      27.767  20.097   7.403  0.00  0.00     0.027 A 
ENDBRANCH  22  25
ENDBRANCH  20  21
ENDBRANCH   5  20
TORSDOF 5
ENDMDL
MODEL 6
REMARK VINA RESULT:      -7.6      7.328     13.216
REMARK  5 active torsions:
REMARK  status: ('A' for Active; 'I' for Inactive)
REMARK    1  A    between atoms: N_2  and  C_12 
REMARK    2  A    between atoms: C_7  and  N_14 
REMARK    3  A    between atoms: C_18  and  C_20 
REMARK    4  A    between atoms: C_20  and  N_21 
REMARK       I    between atoms: N_21  and  C_22 
REMARK    5  A    between atoms: C_22  and  C_25 
ROOT
HETATM    1  N   UNK N   1      27.814  18.000   4.914  0.00  0.00    -0.291 N 
HETATM    2  C   UNK N   1      27.323  19.087   4.294  0.00  0.00     0.368 C 
HETATM    3  C   UNK N   1      26.751  17.037   5.059  0.00  0.00     0.168 C 
HETATM    4  O   UNK N   1      25.993  19.000   4.130  0.00  0.00    -0.295 OA
HETATM    5  C   UNK N   1      25.557  17.989   4.976  0.00  0.00     0.170 C 
HETATM    6  O   UNK N   1      27.958  20.108   4.083  0.00  0.00    -0.238 OA
ENDROOT
BRANCH   1   7
HETATM    7  C   UNK N   1      28.991  17.930   5.717  0.00  0.00     0.039 A 
HETATM    8  C   UNK N   1      30.160  17.478   5.103  0.00  0.00     0.032 A 
HETATM    9  C   UNK N   1      31.247  17.071   5.853  0.00  0.00     0.032 A 
HETATM   10  C   UNK N   1      31.213  17.093   7.250  0.00  0.00     0.037 A 
HETATM   11  C   UNK N   1      30.066  17.625   7.882  0.00  0.00     0.032 A 
HETATM   12  C   UNK N   1      28.954  18.027   7.120  0.00  0.00     0.032 A 
BRANCH  10  13
HETATM   13  N   UNK N   1      32.295  16.534   8.020  0.00  0.00    -0.314 N 
HETATM   14  C   UNK N   1      32.242  15.115   8.370  0.00  0.00     0.158 C 
HETATM   15  C   UNK N   1      33.514  14.635   9.088  0.00  0.00     0.188 C 
HETATM   16  O   UNK N   1      33.951  15.616   9.989  0.00  0.00    -0.380 OA
HETATM   17  C   UNK N   1      34.491  16.633   9.192  0.00  0.00     0.271 C 
HETATM   18  C   UNK N   1      33.390  17.283   8.409  0.00  0.00     0.248 C 
HETATM   19  O   UNK N   1      33.508  18.460   8.106  0.00  0.00    -0.271 OA
ENDBRANCH  10  13
ENDBRANCH   1   7
BRANCH   5  20
HETATM   20  C   UNK N   1      24.157  17.423   4.793  0.00  0.00     0.157 C 
BRANCH  20  21
HETATM   21  N   UNK N   1      23.190  17.806   5.786  0.00  0.00    -0.354 N 
HETATM   22  C   UNK N   1      21.872  18.003   5.503  0.00  0.00     0.258 C 
HETATM   23  O   UNK N   1      21.085  18.098   6.431  0.00  0.00    -0.267 OA
HETATM   24  H   UNK N   1      23.494  17.931   6.715  0.00  0.00     0.162 HD
BRANCH  22  25
HETATM   25  C   UNK N   1      21.340  18.106   4.112  0.00  0.00     0.074 A 
HETATM   26  S   UNK N   1      20.860  16.817   3.180  0.00  0.00    -0.072 SA
HETATM   27  C   UNK N   1      20.331  17.633   1.843  0.00  0.00     0.075 A 
HETATM   28  C   UNK N   1      20.507  18.997   2.084  0.00  0.00     0.033 A 
HETATM   29 Cl   UNK N   1      19.669  16.909   0.392  0.00  0.00    -0.076 Cl
HETATM   30  C   UNK N   1      21.078  19.266   3.365  0.00  0.00     0.027 A 
ENDBRANCH  22  25
ENDBRANCH  20  21
ENDBRANCH   5  20
TORSDOF 5
ENDMDL
MODEL 7
REMARK VINA RESULT:      -7.5      2.816      4.475
REMARK  5 active torsions:
REMARK  status: ('A' for Active; 'I' for Inactive)
REMARK    1  A    between atoms: N_2  and  C_12 
REMARK    2  A    between atoms: C_7  and  N_14 
REMARK    3  A    between atoms: C_18  and  C_20 
REMARK    4  A    between atoms: C_20  and  N_21 
REMARK       I    between atoms: N_21  and  C_22 
REMARK    5  A    between atoms: C_22  and  C_25 
ROOT
HETATM    1  N   UNK N   1      31.815  16.104   7.272  0.00  0.00    -0.291 N 
HETATM    2  C   UNK N   1      31.892  14.768   7.159  0.00  0.00     0.368 C 
HETATM    3  C   UNK N   1      32.602  16.514   8.408  0.00  0.00     0.168 C 
HETATM    4  O   UNK N   1      32.549  14.225   8.197  0.00  0.00    -0.295 OA
HETATM    5  C   UNK N   1      32.597  15.197   9.186  0.00  0.00     0.170 C 
HETATM    6  O   UNK N   1      31.281  14.107   6.334  0.00  0.00    -0.238 OA
ENDROOT
BRANCH   1   7
HETATM    7  C   UNK N   1      30.808  16.954   6.724  0.00  0.00     0.039 A 
HETATM    8  C   UNK N   1      29.734  17.291   7.548  0.00  0.00     0.032 A 
HETATM    9  C   UNK N   1      28.573  17.825   7.023  0.00  0.00     0.032 A 
HETATM   10  C   UNK N   1      28.431  18.041   5.649  0.00  0.00     0.037 A 
HETATM   11  C   UNK N   1      29.540  17.780   4.814  0.00  0.00     0.032 A 
HETATM   12  C   UNK N   1      30.719  17.225   5.346  0.00  0.00     0.032 A 
BRANCH  10  13
HETATM   13  N   UNK N   1      27.168  18.462   5.098  0.00  0.00    -0.314 N 
HETATM   14  C   UNK N   1      26.165  17.443   4.792  0.00  0.00     0.158 C 
HETATM   15  C   UNK N   1      24.831  18.047   4.323  0.00  0.00     0.188 C 
HETATM   16  O   UNK N   1      25.075  19.141   3.479  0.00  0.00    -0.380 OA
HETATM   17  C   UNK N   1      25.521  20.164   4.325  0.00  0.00     0.271 C 
HETATM   18  C   UNK N   1      26.863  19.794   4.882  0.00  0.00     0.248 C 
HETATM   19  O   UNK N   1      27.645  20.689   5.162  0.00  0.00    -0.271 OA
ENDBRANCH  10  13
ENDBRANCH   1   7
BRANCH   5  20
HETATM   20  C   UNK N   1      33.547  15.015  10.359  0.00  0.00     0.157 C 
BRANCH  20  21
HETATM   21  N   UNK N   1      34.598  15.991  10.474  0.00  0.00    -0.354 N 
HETATM   22  C   UNK N   1      35.823  15.705  10.998  0.00  0.00     0.258 C 
HETATM   23  O   UNK N   1      36.722  16.515  10.849  0.00  0.00    -0.267 OA
HETATM   24  H   UNK N   1      34.424  16.907  10.158  0.00  0.00     0.162 HD
BRANCH  22  25
HETATM   25  C   UNK N   1      36.121  14.447  11.746  0.00  0.00     0.074 A 
HETATM   26  S   UNK N   1      36.881  13.117  11.102  0.00  0.00    -0.072 SA
HETATM   27  C   UNK N   1      36.949  12.166  12.453  0.00  0.00     0.075 A 
HETATM   28  C   UNK N   1      36.366  12.880  13.501  0.00  0.00     0.033 A 
HETATM   29 Cl   UNK N   1      37.633  10.556  12.543  0.00  0.00    -0.076 Cl
HETATM   30  C   UNK N   1      35.897  14.169  13.103  0.00  0.00     0.027 A 
ENDBRANCH  22  25
ENDBRANCH  20  21
ENDBRANCH   5  20
TORSDOF 5
ENDMDL
MODEL 8
REMARK VINA RESULT:      -7.5     17.514     20.367
REMARK  5 active torsions:
REMARK  status: ('A' for Active; 'I' for Inactive)
REMARK    1  A    between atoms: N_2  and  C_12 
REMARK    2  A    between atoms: C_7  and  N_14 
REMARK    3  A    between atoms: C_18  and  C_20 
REMARK    4  A    between atoms: C_20  and  N_21 
REMARK       I    between atoms: N_21  and  C_22 
REMARK    5  A    between atoms: C_22  and  C_25 
ROOT
HETATM    1  N   UNK N   1      30.497  23.287  -3.906  0.00  0.00    -0.291 N 
HETATM    2  C   UNK N   1      30.355  23.241  -2.570  0.00  0.00     0.368 C 
HETATM    3  C   UNK N   1      29.381  24.010  -4.461  0.00  0.00     0.168 C 
HETATM    4  O   UNK N   1      29.173  23.750  -2.185  0.00  0.00    -0.295 OA
HETATM    5  C   UNK N   1      28.379  23.808  -3.323  0.00  0.00     0.170 C 
HETATM    6  O   UNK N   1      31.103  22.642  -1.815  0.00  0.00    -0.238 OA
ENDROOT
BRANCH   1   7
HETATM    7  C   UNK N   1      31.292  22.419  -4.712  0.00  0.00     0.039 A 
HETATM    8  C   UNK N   1      30.786  21.147  -4.978  0.00  0.00     0.032 A 
HETATM    9  C   UNK N   1      31.602  20.142  -5.461  0.00  0.00     0.032 A 
HETATM   10  C   UNK N   1      32.962  20.362  -5.696  0.00  0.00     0.037 A 
HETATM   11  C   UNK N   1      33.469  21.667  -5.508  0.00  0.00     0.032 A 
HETATM   12  C   UNK N   1      32.643  22.688  -5.004  0.00  0.00     0.032 A 
BRANCH  10  13
HETATM   13  N   UNK N   1      33.831  19.272  -6.061  0.00  0.00    -0.314 N 
HETATM   14  C   UNK N   1      33.934  18.905  -7.473  0.00  0.00     0.158 C 
HETATM   15  C   UNK N   1      34.981  17.808  -7.725  0.00  0.00     0.188 C 
HETATM   16  O   UNK N   1      34.925  16.852  -6.700  0.00  0.00    -0.380 OA
HETATM   17  C   UNK N   1      35.491  17.478  -5.583  0.00  0.00     0.271 C 
HETATM   18  C   UNK N   1      34.592  18.589  -5.131  0.00  0.00     0.248 C 
HETATM   19  O   UNK N   1      34.580  18.883  -3.945  0.00  0.00    -0.271 OA
ENDBRANCH  10  13
ENDBRANCH   1   7
BRANCH   5  20
HETATM   20  C   UNK N   1      27.101  24.632  -3.293  0.00  0.00     0.157 C 
BRANCH  20  21
HETATM   21  N   UNK N   1      26.151  24.355  -4.337  0.00  0.00    -0.354 N 
HETATM   22  C   UNK N   1      25.829  25.256  -5.307  0.00  0.00     0.258 C 
HETATM   23  O   UNK N   1      25.198  24.868  -6.276  0.00  0.00    -0.267 OA
HETATM   24  H   UNK N   1      25.714  23.472  -4.353  0.00  0.00     0.162 HD
BRANCH  22  25
HETATM   25  C   UNK N   1      26.211  26.698  -5.244  0.00  0.00     0.074 A 
HETATM   26  S   UNK N   1      25.642  27.785  -4.122  0.00  0.00    -0.072 SA
HETATM   27  C   UNK N   1      26.506  29.119  -4.578  0.00  0.00     0.075 A 
HETATM   28  C   UNK N   1      27.310  28.752  -5.659  0.00  0.00     0.033 A 
HETATM   29 Cl   UNK N   1      26.424  30.701  -3.831  0.00  0.00    -0.076 Cl
HETATM   30  C   UNK N   1      27.144  27.385  -6.038  0.00  0.00     0.027 A 
ENDBRANCH  22  25
ENDBRANCH  20  21
ENDBRANCH   5  20
TORSDOF 5
ENDMDL
MODEL 9
REMARK VINA RESULT:      -7.5      2.628      3.173
REMARK  5 active torsions:
REMARK  status: ('A' for Active; 'I' for Inactive)
REMARK    1  A    between atoms: N_2  and  C_12 
REMARK    2  A    between atoms: C_7  and  N_14 
REMARK    3  A    between atoms: C_18  and  C_20 
REMARK    4  A    between atoms: C_20  and  N_21 
REMARK       I    between atoms: N_21  and  C_22 
REMARK    5  A    between atoms: C_22  and  C_25 
ROOT
HETATM    1  N   UNK N   1      34.335  16.459   9.821  0.00  0.00    -0.291 N 
HETATM    2  C   UNK N   1      35.433  17.153  10.165  0.00  0.00     0.368 C 
HETATM    3  C   UNK N   1      34.419  15.147  10.413  0.00  0.00     0.168 C 
HETATM    4  O   UNK N   1      36.315  16.382  10.822  0.00  0.00    -0.295 OA
HETATM    5  C   UNK N   1      35.935  15.066  10.595  0.00  0.00     0.170 C 
HETATM    6  O   UNK N   1      35.693  18.277   9.767  0.00  0.00    -0.238 OA
ENDROOT
BRANCH   1   7
HETATM    7  C   UNK N   1      33.466  16.720   8.720  0.00  0.00     0.039 A 
HETATM    8  C   UNK N   1      32.190  16.156   8.761  0.00  0.00     0.032 A 
HETATM    9  C   UNK N   1      31.408  16.078   7.625  0.00  0.00     0.032 A 
HETATM   10  C   UNK N   1      31.868  16.557   6.395  0.00  0.00     0.037 A 
HETATM   11  C   UNK N   1      33.124  17.203   6.357  0.00  0.00     0.032 A 
HETATM   12  C   UNK N   1      33.926  17.272   7.510  0.00  0.00     0.032 A 
BRANCH  10  13
HETATM   13  N   UNK N   1      31.105  16.342   5.191  0.00  0.00    -0.314 N 
HETATM   14  C   UNK N   1      31.547  15.304   4.261  0.00  0.00     0.158 C 
HETATM   15  C   UNK N   1      30.575  15.109   3.086  0.00  0.00     0.188 C 
HETATM   16  O   UNK N   1      30.098  16.355   2.652  0.00  0.00    -0.380 OA
HETATM   17  C   UNK N   1      29.200  16.769   3.644  0.00  0.00     0.271 C 
HETATM   18  C   UNK N   1      29.957  17.058   4.905  0.00  0.00     0.248 C 
HETATM   19  O   UNK N   1      29.518  17.905   5.668  0.00  0.00    -0.271 OA
ENDBRANCH  10  13
ENDBRANCH   1   7
BRANCH   5  20
HETATM   20  C   UNK N   1      36.529  13.964  11.458  0.00  0.00     0.157 C 
BRANCH  20  21
HETATM   21  N   UNK N   1      36.729  14.290  12.845  0.00  0.00    -0.354 N 
HETATM   22  C   UNK N   1      36.512  13.402  13.855  0.00  0.00     0.258 C 
HETATM   23  O   UNK N   1      36.921  13.679  14.971  0.00  0.00    -0.267 OA
HETATM   24  H   UNK N   1      37.038  15.196  13.074  0.00  0.00     0.162 HD
BRANCH  22  25
HETATM   25  C   UNK N   1      35.799  12.104  13.666  0.00  0.00     0.074 A 
HETATM   26  S   UNK N   1      36.522  10.681  13.204  0.00  0.00    -0.072 SA
HETATM   27  C   UNK N   1      35.209   9.679  13.267  0.00  0.00     0.075 A 
HETATM   28  C   UNK N   1      34.114  10.443  13.675  0.00  0.00     0.033 A 
HETATM   29 Cl   UNK N   1      35.203   7.968  12.890  0.00  0.00    -0.076 Cl
HETATM   30  C   UNK N   1      34.445  11.814  13.900  0.00  0.00     0.027 A 
ENDBRANCH  22  25
ENDBRANCH  20  21
ENDBRANCH   5  20
TORSDOF 5
ENDMDL
