MODEL 1
REMARK VINA RESULT:      -6.5      0.000      0.000
REMARK  2 active torsions:
REMARK  status: ('A' for Active; 'I' for Inactive)
REMARK    1  A    between atoms: C_10  and  C_12 
REMARK    2  A    between atoms: C_10  and  C_14 
ROOT
HETATM    1  C   UNK N   1      31.939  17.038   3.649  0.00  0.00     0.001 A 
HETATM    2  C   UNK N   1      33.224  17.309   4.123  0.00  0.00     0.001 A 
HETATM    3  C   UNK N   1      30.185  17.346   8.151  0.00  0.00     0.001 A 
HETATM    4  C   UNK N   1      30.859  16.980   4.536  0.00  0.00     0.012 A 
HETATM    5  C   UNK N   1      29.981  17.134   6.786  0.00  0.00     0.012 A 
HETATM    6  C   UNK N   1      31.468  17.618   8.638  0.00  0.00     0.008 A 
HETATM    7  C   UNK N   1      33.435  17.522   5.486  0.00  0.00     0.013 A 
HETATM    8  C   UNK N   1      31.061  17.192   5.903  0.00  0.00    -0.025 A 
HETATM    9  C   UNK N   1      32.568  17.681   7.766  0.00  0.00    -0.040 A 
HETATM   10  C   UNK N   1      32.361  17.467   6.389  0.00  0.00    -0.019 A 
ENDROOT
BRANCH   9  11
HETATM   11  C   UNK N   1      33.970  17.971   8.249  0.00  0.00     0.115 C 
BRANCH  11  12
HETATM   12  C   UNK N   1      34.676  17.002   9.152  0.00  0.00     0.077 A 
HETATM   13  N   UNK N   1      34.992  17.318  10.338  0.00  0.00    -0.378 N 
HETATM   14  C   UNK N   1      35.660  16.226  11.008  0.00  0.00     0.140 A 
ATOM     15  HN  UNK N   1      34.800  18.224  10.764  1.00  0.00     0.160 HD
HETATM   16  C   UNK N   1      35.699  15.102   9.943  0.00  0.00     0.140 A 
HETATM   17  N   UNK N   1      35.049  15.706   8.811  0.00  0.00    -0.378 N 
HETATM   18  H   UNK N   1      34.894  15.274   7.940  0.00  0.00     0.160 HD
ENDBRANCH  11  12
ENDBRANCH   9  11
TORSDOF 2
ENDMDL
MODEL 2
REMARK VINA RESULT:      -6.4      0.629      2.691
REMARK  2 active torsions:
REMARK  status: ('A' for Active; 'I' for Inactive)
REMARK    1  A    between atoms: C_10  and  C_12 
REMARK    2  A    between atoms: C_10  and  C_14 
ROOT
HETATM    1  C   UNK N   1      29.105  17.389   7.623  0.00  0.00     0.001 A 
HETATM    2  C   UNK N   1      29.916  17.759   8.698  0.00  0.00     0.001 A 
HETATM    3  C   UNK N   1      33.006  16.996   4.783  0.00  0.00     0.001 A 
HETATM    4  C   UNK N   1      29.674  17.106   6.377  0.00  0.00     0.012 A 
HETATM    5  C   UNK N   1      31.623  16.909   4.957  0.00  0.00     0.012 A 
HETATM    6  C   UNK N   1      33.828  17.365   5.852  0.00  0.00     0.008 A 
HETATM    7  C   UNK N   1      31.299  17.847   8.532  0.00  0.00     0.013 A 
HETATM    8  C   UNK N   1      31.058  17.192   6.202  0.00  0.00    -0.025 A 
HETATM    9  C   UNK N   1      33.280  17.654   7.113  0.00  0.00    -0.040 A 
HETATM   10  C   UNK N   1      31.884  17.566   7.287  0.00  0.00    -0.019 A 
ENDROOT
BRANCH   9  11
HETATM   11  C   UNK N   1      34.132  18.057   8.295  0.00  0.00     0.115 C 
BRANCH  11  12
HETATM   12  C   UNK N   1      34.715  17.011   9.200  0.00  0.00     0.077 A 
HETATM   13  N   UNK N   1      34.981  17.265  10.413  0.00  0.00    -0.378 N 
HETATM   14  C   UNK N   1      35.531  16.107  11.078  0.00  0.00     0.140 A 
ATOM     15  HN  UNK N   1      34.826  18.167  10.860  1.00  0.00     0.160 HD
HETATM   16  C   UNK N   1      35.558  15.019   9.976  0.00  0.00     0.140 A 
HETATM   17  N   UNK N   1      35.019  15.704   8.833  0.00  0.00    -0.378 N 
HETATM   18  H   UNK N   1      34.887  15.313   7.938  0.00  0.00     0.160 HD
ENDBRANCH  11  12
ENDBRANCH   9  11
TORSDOF 2
ENDMDL
MODEL 3
REMARK VINA RESULT:      -6.3      6.685     11.024
REMARK  2 active torsions:
REMARK  status: ('A' for Active; 'I' for Inactive)
REMARK    1  A    between atoms: C_10  and  C_12 
REMARK    2  A    between atoms: C_10  and  C_14 
ROOT
HETATM    1  C   UNK N   1      35.238  12.366  19.572  0.00  0.00     0.001 A 
HETATM    2  C   UNK N   1      35.260  13.531  18.803  0.00  0.00     0.001 A 
HETATM    3  C   UNK N   1      35.255   9.678  15.545  0.00  0.00     0.001 A 
HETATM    4  C   UNK N   1      35.232  11.112  18.951  0.00  0.00     0.012 A 
HETATM    5  C   UNK N   1      35.240   9.768  16.939  0.00  0.00     0.012 A 
HETATM    6  C   UNK N   1      35.277  10.838  14.765  0.00  0.00     0.008 A 
HETATM    7  C   UNK N   1      35.275  13.448  17.410  0.00  0.00     0.013 A 
HETATM    8  C   UNK N   1      35.247  11.020  17.556  0.00  0.00    -0.025 A 
HETATM    9  C   UNK N   1      35.284  12.108  15.366  0.00  0.00    -0.040 A 
HETATM   10  C   UNK N   1      35.269  12.197  16.772  0.00  0.00    -0.019 A 
ENDROOT
BRANCH   9  11
HETATM   11  C   UNK N   1      35.308  13.387  14.561  0.00  0.00     0.115 C 
BRANCH  11  12
HETATM   12  C   UNK N   1      35.689  13.361  13.109  0.00  0.00     0.077 A 
HETATM   13  N   UNK N   1      36.876  13.601  12.736  0.00  0.00    -0.378 N 
HETATM   14  C   UNK N   1      36.997  13.517  11.299  0.00  0.00     0.140 A 
ATOM     15  HN  UNK N   1      37.644  13.824  13.368  1.00  0.00     0.160 HD
HETATM   16  C   UNK N   1      35.568  13.157  10.823  0.00  0.00     0.140 A 
HETATM   17  N   UNK N   1      34.827  13.084  12.053  0.00  0.00    -0.378 N 
HETATM   18  H   UNK N   1      33.868  12.874  12.134  0.00  0.00     0.160 HD
ENDBRANCH  11  12
ENDBRANCH   9  11
TORSDOF 2
ENDMDL
MODEL 4
REMARK VINA RESULT:      -6.1      6.592     10.900
REMARK  2 active torsions:
REMARK  status: ('A' for Active; 'I' for Inactive)
REMARK    1  A    between atoms: C_10  and  C_12 
REMARK    2  A    between atoms: C_10  and  C_14 
ROOT
HETATM    1  C   UNK N   1      35.080   9.308  17.721  0.00  0.00     0.001 A 
HETATM    2  C   UNK N   1      35.613   9.290  16.431  0.00  0.00     0.001 A 
HETATM    3  C   UNK N   1      35.467  14.132  17.841  0.00  0.00     0.001 A 
HETATM    4  C   UNK N   1      34.910  10.521  18.396  0.00  0.00     0.012 A 
HETATM    5  C   UNK N   1      35.103  12.932  18.457  0.00  0.00     0.012 A 
HETATM    6  C   UNK N   1      36.003  14.126  16.549  0.00  0.00     0.008 A 
HETATM    7  C   UNK N   1      35.979  10.484  15.810  0.00  0.00     0.013 A 
HETATM    8  C   UNK N   1      35.274  11.723  17.781  0.00  0.00    -0.025 A 
HETATM    9  C   UNK N   1      36.183  12.920  15.853  0.00  0.00    -0.040 A 
HETATM   10  C   UNK N   1      35.815  11.711  16.474  0.00  0.00    -0.019 A 
ENDROOT
BRANCH   9  11
HETATM   11  C   UNK N   1      36.758  12.869  14.455  0.00  0.00     0.115 C 
BRANCH  11  12
HETATM   12  C   UNK N   1      36.150  13.689  13.355  0.00  0.00     0.077 A 
HETATM   13  N   UNK N   1      35.211  13.233  12.637  0.00  0.00    -0.378 N 
HETATM   14  C   UNK N   1      34.793  14.202  11.650  0.00  0.00     0.140 A 
ATOM     15  HN  UNK N   1      34.803  12.305  12.742  1.00  0.00     0.160 HD
HETATM   16  C   UNK N   1      35.711  15.422  11.911  0.00  0.00     0.140 A 
HETATM   17  N   UNK N   1      36.527  14.983  13.010  0.00  0.00    -0.378 N 
HETATM   18  H   UNK N   1      37.235  15.511  13.447  0.00  0.00     0.160 HD
ENDBRANCH  11  12
ENDBRANCH   9  11
TORSDOF 2
ENDMDL
MODEL 5
REMARK VINA RESULT:      -6.1     10.921     13.261
REMARK  2 active torsions:
REMARK  status: ('A' for Active; 'I' for Inactive)
REMARK    1  A    between atoms: C_10  and  C_12 
REMARK    2  A    between atoms: C_10  and  C_14 
ROOT
HETATM    1  C   UNK N   1      35.116  10.242  14.998  0.00  0.00     0.001 A 
HETATM    2  C   UNK N   1      35.184   9.312  16.038  0.00  0.00     0.001 A 
HETATM    3  C   UNK N   1      35.193  13.870  18.203  0.00  0.00     0.001 A 
HETATM    4  C   UNK N   1      35.102  11.612  15.279  0.00  0.00     0.012 A 
HETATM    5  C   UNK N   1      35.140  13.426  16.880  0.00  0.00     0.012 A 
HETATM    6  C   UNK N   1      35.261  12.948  19.252  0.00  0.00     0.008 A 
HETATM    7  C   UNK N   1      35.237   9.749  17.362  0.00  0.00     0.013 A 
HETATM    8  C   UNK N   1      35.155  12.058  16.602  0.00  0.00    -0.025 A 
HETATM    9  C   UNK N   1      35.276  11.567  18.995  0.00  0.00    -0.040 A 
HETATM   10  C   UNK N   1      35.223  11.121  17.660  0.00  0.00    -0.019 A 
ENDROOT
BRANCH   9  11
HETATM   11  C   UNK N   1      35.348  10.537  20.099  0.00  0.00     0.115 C 
BRANCH  11  12
HETATM   12  C   UNK N   1      34.123  10.190  20.892  0.00  0.00     0.077 A 
HETATM   13  N   UNK N   1      33.338   9.266  20.520  0.00  0.00    -0.378 N 
HETATM   14  C   UNK N   1      32.235   9.118  21.440  0.00  0.00     0.140 A 
ATOM     15  HN  UNK N   1      33.469   8.702  19.681  1.00  0.00     0.160 HD
HETATM   16  C   UNK N   1      32.502  10.194  22.522  0.00  0.00     0.140 A 
HETATM   17  N   UNK N   1      33.721  10.809  22.071  0.00  0.00    -0.378 N 
HETATM   18  H   UNK N   1      34.193  11.546  22.523  0.00  0.00     0.160 HD
ENDBRANCH  11  12
ENDBRANCH   9  11
TORSDOF 2
ENDMDL
MODEL 6
REMARK VINA RESULT:      -6.0      3.606      5.785
REMARK  2 active torsions:
REMARK  status: ('A' for Active; 'I' for Inactive)
REMARK    1  A    between atoms: C_10  and  C_12 
REMARK    2  A    between atoms: C_10  and  C_14 
ROOT
HETATM    1  C   UNK N   1      33.080  16.999   3.834  0.00  0.00     0.001 A 
HETATM    2  C   UNK N   1      31.730  17.050   3.481  0.00  0.00     0.001 A 
HETATM    3  C   UNK N   1      31.910  17.572   8.497  0.00  0.00     0.001 A 
HETATM    4  C   UNK N   1      33.463  17.117   5.174  0.00  0.00     0.012 A 
HETATM    5  C   UNK N   1      32.879  17.403   7.505  0.00  0.00     0.012 A 
HETATM    6  C   UNK N   1      30.555  17.625   8.155  0.00  0.00     0.008 A 
HETATM    7  C   UNK N   1      30.757  17.219   4.467  0.00  0.00     0.013 A 
HETATM    8  C   UNK N   1      32.494  17.286   6.168  0.00  0.00    -0.025 A 
HETATM    9  C   UNK N   1      30.147  17.509   6.816  0.00  0.00    -0.040 A 
HETATM   10  C   UNK N   1      31.125  17.338   5.817  0.00  0.00    -0.019 A 
ENDROOT
BRANCH   9  11
HETATM   11  C   UNK N   1      28.693  17.560   6.403  0.00  0.00     0.115 C 
BRANCH  11  12
HETATM   12  C   UNK N   1      27.990  18.879   6.269  0.00  0.00     0.077 A 
HETATM   13  N   UNK N   1      27.918  19.476   5.154  0.00  0.00    -0.378 N 
HETATM   14  C   UNK N   1      27.196  20.721   5.275  0.00  0.00     0.140 A 
ATOM     15  HN  UNK N   1      28.316  19.123   4.285  1.00  0.00     0.160 HD
HETATM   16  C   UNK N   1      26.811  20.787   6.774  0.00  0.00     0.140 A 
HETATM   17  N   UNK N   1      27.365  19.570   7.303  0.00  0.00    -0.378 N 
HETATM   18  H   UNK N   1      27.311  19.275   8.241  0.00  0.00     0.160 HD
ENDBRANCH  11  12
ENDBRANCH   9  11
TORSDOF 2
ENDMDL
MODEL 7
REMARK VINA RESULT:      -5.9      1.501      2.245
REMARK  2 active torsions:
REMARK  status: ('A' for Active; 'I' for Inactive)
REMARK    1  A    between atoms: C_10  and  C_12 
REMARK    2  A    between atoms: C_10  and  C_14 
ROOT
HETATM    1  C   UNK N   1      29.004  16.048   5.146  0.00  0.00     0.001 A 
HETATM    2  C   UNK N   1      30.397  16.122   5.077  0.00  0.00     0.001 A 
HETATM    3  C   UNK N   1      29.064  18.407   9.374  0.00  0.00     0.001 A 
HETATM    4  C   UNK N   1      28.323  16.600   6.236  0.00  0.00     0.012 A 
HETATM    5  C   UNK N   1      28.352  17.779   8.349  0.00  0.00     0.012 A 
HETATM    6  C   UNK N   1      30.459  18.487   9.315  0.00  0.00     0.008 A 
HETATM    7  C   UNK N   1      31.114  16.748   6.097  0.00  0.00     0.013 A 
HETATM    8  C   UNK N   1      29.034  17.229   7.262  0.00  0.00    -0.025 A 
HETATM    9  C   UNK N   1      31.164  17.940   8.230  0.00  0.00    -0.040 A 
HETATM   10  C   UNK N   1      30.445  17.307   7.198  0.00  0.00    -0.019 A 
ENDROOT
BRANCH   9  11
HETATM   11  C   UNK N   1      32.671  18.004   8.128  0.00  0.00     0.115 C 
BRANCH  11  12
HETATM   12  C   UNK N   1      33.528  17.156   9.021  0.00  0.00     0.077 A 
HETATM   13  N   UNK N   1      33.144  16.012   9.409  0.00  0.00    -0.378 N 
HETATM   14  C   UNK N   1      34.135  15.390  10.257  0.00  0.00     0.140 A 
ATOM     15  HN  UNK N   1      32.253  15.587   9.156  1.00  0.00     0.160 HD
HETATM   16  C   UNK N   1      35.278  16.432  10.324  0.00  0.00     0.140 A 
HETATM   17  N   UNK N   1      34.784  17.507   9.506  0.00  0.00    -0.378 N 
HETATM   18  H   UNK N   1      35.257  18.351   9.320  0.00  0.00     0.160 HD
ENDBRANCH  11  12
ENDBRANCH   9  11
TORSDOF 2
ENDMDL
MODEL 8
REMARK VINA RESULT:      -5.9     16.946     18.384
REMARK  2 active torsions:
REMARK  status: ('A' for Active; 'I' for Inactive)
REMARK    1  A    between atoms: C_10  and  C_12 
REMARK    2  A    between atoms: C_10  and  C_14 
ROOT
HETATM    1  C   UNK N   1      28.975  30.687  -5.964  0.00  0.00     0.001 A 
HETATM    2  C   UNK N   1      28.949  29.833  -7.068  0.00  0.00     0.001 A 
HETATM    3  C   UNK N   1      25.492  28.083  -3.836  0.00  0.00     0.001 A 
HETATM    4  C   UNK N   1      28.119  30.464  -4.881  0.00  0.00     0.012 A 
HETATM    5  C   UNK N   1      26.378  29.163  -3.816  0.00  0.00     0.012 A 
HETATM    6  C   UNK N   1      25.458  27.221  -4.937  0.00  0.00     0.008 A 
HETATM    7  C   UNK N   1      28.067  28.753  -7.094  0.00  0.00     0.013 A 
HETATM    8  C   UNK N   1      27.232  29.384  -4.899  0.00  0.00    -0.025 A 
HETATM    9  C   UNK N   1      26.308  27.426  -6.036  0.00  0.00    -0.040 A 
HETATM   10  C   UNK N   1      27.201  28.515  -6.015  0.00  0.00    -0.019 A 
ENDROOT
BRANCH   9  11
HETATM   11  C   UNK N   1      26.303  26.519  -7.245  0.00  0.00     0.115 C 
BRANCH  11  12
HETATM   12  C   UNK N   1      26.449  25.034  -7.080  0.00  0.00     0.077 A 
HETATM   13  N   UNK N   1      25.478  24.316  -6.697  0.00  0.00    -0.378 N 
HETATM   14  C   UNK N   1      25.859  22.925  -6.612  0.00  0.00     0.140 A 
ATOM     15  HN  UNK N   1      24.549  24.673  -6.477  1.00  0.00     0.160 HD
HETATM   16  C   UNK N   1      27.347  22.919  -7.044  0.00  0.00     0.140 A 
HETATM   17  N   UNK N   1      27.611  24.306  -7.315  0.00  0.00    -0.378 N 
HETATM   18  H   UNK N   1      28.471  24.678  -7.617  0.00  0.00     0.160 HD
ENDBRANCH  11  12
ENDBRANCH   9  11
TORSDOF 2
ENDMDL
MODEL 9
REMARK VINA RESULT:      -5.8      4.148      6.575
REMARK  2 active torsions:
REMARK  status: ('A' for Active; 'I' for Inactive)
REMARK    1  A    between atoms: C_10  and  C_12 
REMARK    2  A    between atoms: C_10  and  C_14 
ROOT
HETATM    1  C   UNK N   1      32.980  17.350   7.052  0.00  0.00     0.001 A 
HETATM    2  C   UNK N   1      32.226  17.060   5.913  0.00  0.00     0.001 A 
HETATM    3  C   UNK N   1      28.930  18.353   9.508  0.00  0.00     0.001 A 
HETATM    4  C   UNK N   1      32.345  17.745   8.234  0.00  0.00     0.012 A 
HETATM    5  C   UNK N   1      30.322  18.247   9.462  0.00  0.00     0.012 A 
HETATM    6  C   UNK N   1      28.165  18.065   8.373  0.00  0.00     0.008 A 
HETATM    7  C   UNK N   1      30.835  17.164   5.951  0.00  0.00     0.013 A 
HETATM    8  C   UNK N   1      30.952  17.852   8.281  0.00  0.00    -0.025 A 
HETATM    9  C   UNK N   1      28.780  17.667   7.175  0.00  0.00    -0.040 A 
HETATM   10  C   UNK N   1      30.184  17.560   7.131  0.00  0.00    -0.019 A 
ENDROOT
BRANCH   9  11
HETATM   11  C   UNK N   1      27.991  17.346   5.926  0.00  0.00     0.115 C 
BRANCH  11  12
HETATM   12  C   UNK N   1      27.308  18.441   5.159  0.00  0.00     0.077 A 
HETATM   13  N   UNK N   1      26.130  18.810   5.448  0.00  0.00    -0.378 N 
HETATM   14  C   UNK N   1      25.689  19.874   4.576  0.00  0.00     0.140 A 
ATOM     15  HN  UNK N   1      25.568  18.410   6.198  1.00  0.00     0.160 HD
HETATM   16  C   UNK N   1      26.894  20.107   3.631  0.00  0.00     0.140 A 
HETATM   17  N   UNK N   1      27.858  19.145   4.094  0.00  0.00    -0.378 N 
HETATM   18  H   UNK N   1      28.758  19.009   3.718  0.00  0.00     0.160 HD
ENDBRANCH  11  12
ENDBRANCH   9  11
TORSDOF 2
ENDMDL
