MODEL 1
REMARK VINA RESULT:      -3.9      0.000      0.000
REMARK  7 active torsions:
REMARK  status: ('A' for Active; 'I' for Inactive)
REMARK    1  A    between atoms: C_1  and  C_4 
REMARK    2  A    between atoms: C_1  and  O_6 
REMARK    3  A    between atoms: C_2  and  C_4 
REMARK    4  A    between atoms: C_2  and  O_7 
REMARK    5  A    between atoms: C_3  and  C_4 
REMARK    6  A    between atoms: C_3  and  O_8 
REMARK    7  A    between atoms: C_4  and  N_5 
ROOT
HETATM    1  C   UNK N   1      43.868  23.054   3.158  0.00  0.00     0.087 C 
ENDROOT
BRANCH   1   2
HETATM    2  C   UNK N   1      42.538  22.685   2.501  0.00  0.00     0.199 C 
BRANCH   2   3
HETATM    3  O   UNK N   1      41.782  23.818   2.181  0.00  0.00    -0.398 OA
HETATM    4  H   UNK N   1      42.005  24.631   1.702  0.00  0.00     0.209 HD
ENDBRANCH   2   3
ENDBRANCH   1   2
BRANCH   1   5
HETATM    5  C   UNK N   1      44.504  21.838   3.839  0.00  0.00     0.199 C 
BRANCH   5   6
HETATM    6  O   UNK N   1      45.801  22.114   4.284  0.00  0.00    -0.398 OA
HETATM    7  H   UNK N   1      46.208  22.964   4.515  0.00  0.00     0.209 HD
ENDBRANCH   5   6
ENDBRANCH   1   5
BRANCH   1   8
HETATM    8  C   UNK N   1      44.813  23.667   2.125  0.00  0.00     0.199 C 
BRANCH   8   9
HETATM    9  O   UNK N   1      45.870  24.337   2.747  0.00  0.00    -0.398 OA
HETATM   10  H   UNK N   1      45.983  25.300   2.696  0.00  0.00     0.209 HD
ENDBRANCH   8   9
ENDBRANCH   1   8
BRANCH   1  11
HETATM   11  N   UNK N   1      43.589  24.050   4.183  0.00  0.00    -0.417 N 
HETATM   12  H   UNK N   1      42.772  24.193   4.776  0.00  0.00     0.150 HD
HETATM   13  H   UNK N   1      44.342  24.721   4.334  0.00  0.00     0.150 HD
ENDBRANCH   1  11
TORSDOF 7
ENDMDL
MODEL 2
REMARK VINA RESULT:      -3.9      0.053      2.896
REMARK  7 active torsions:
REMARK  status: ('A' for Active; 'I' for Inactive)
REMARK    1  A    between atoms: C_1  and  C_4 
REMARK    2  A    between atoms: C_1  and  O_6 
REMARK    3  A    between atoms: C_2  and  C_4 
REMARK    4  A    between atoms: C_2  and  O_7 
REMARK    5  A    between atoms: C_3  and  C_4 
REMARK    6  A    between atoms: C_3  and  O_8 
REMARK    7  A    between atoms: C_4  and  N_5 
ROOT
HETATM    1  C   UNK N   1      43.869  23.039   3.117  0.00  0.00     0.087 C 
ENDROOT
BRANCH   1   2
HETATM    2  C   UNK N   1      44.809  23.701   2.110  0.00  0.00     0.199 C 
BRANCH   2   3
HETATM    3  O   UNK N   1      45.877  24.348   2.741  0.00  0.00    -0.398 OA
HETATM    4  H   UNK N   1      46.186  24.343   3.660  0.00  0.00     0.209 HD
ENDBRANCH   2   3
ENDBRANCH   1   2
BRANCH   1   5
HETATM    5  C   UNK N   1      42.530  22.677   2.468  0.00  0.00     0.199 C 
BRANCH   5   6
HETATM    6  O   UNK N   1      41.773  23.815   2.172  0.00  0.00    -0.398 OA
HETATM    7  H   UNK N   1      42.053  24.740   2.091  0.00  0.00     0.209 HD
ENDBRANCH   5   6
ENDBRANCH   1   5
BRANCH   1   8
HETATM    8  C   UNK N   1      44.537  21.808   3.731  0.00  0.00     0.199 C 
BRANCH   8   9
HETATM    9  O   UNK N   1      45.774  22.136   4.290  0.00  0.00    -0.398 OA
HETATM   10  H   UNK N   1      45.878  22.821   4.969  0.00  0.00     0.209 HD
ENDBRANCH   8   9
ENDBRANCH   1   8
BRANCH   1  11
HETATM   11  N   UNK N   1      43.610  24.005   4.176  0.00  0.00    -0.417 N 
HETATM   12  H   UNK N   1      43.327  23.877   5.147  0.00  0.00     0.150 HD
HETATM   13  H   UNK N   1      43.734  24.978   3.898  0.00  0.00     0.150 HD
ENDBRANCH   1  11
TORSDOF 7
ENDMDL
MODEL 3
REMARK VINA RESULT:      -3.9      0.047      2.898
REMARK  7 active torsions:
REMARK  status: ('A' for Active; 'I' for Inactive)
REMARK    1  A    between atoms: C_1  and  C_4 
REMARK    2  A    between atoms: C_1  and  O_6 
REMARK    3  A    between atoms: C_2  and  C_4 
REMARK    4  A    between atoms: C_2  and  O_7 
REMARK    5  A    between atoms: C_3  and  C_4 
REMARK    6  A    between atoms: C_3  and  O_8 
REMARK    7  A    between atoms: C_4  and  N_5 
ROOT
HETATM    1  C   UNK N   1      43.877  23.059   3.117  0.00  0.00     0.087 C 
ENDROOT
BRANCH   1   2
HETATM    2  C   UNK N   1      44.529  21.835   3.759  0.00  0.00     0.199 C 
BRANCH   2   3
HETATM    3  O   UNK N   1      45.789  22.131   4.288  0.00  0.00    -0.398 OA
HETATM    4  H   UNK N   1      46.559  21.574   4.481  0.00  0.00     0.209 HD
ENDBRANCH   2   3
ENDBRANCH   1   2
BRANCH   1   5
HETATM    5  C   UNK N   1      44.821  23.723   2.110  0.00  0.00     0.199 C 
BRANCH   5   6
HETATM    6  O   UNK N   1      45.901  24.346   2.745  0.00  0.00    -0.398 OA
HETATM    7  H   UNK N   1      46.075  25.290   2.886  0.00  0.00     0.209 HD
ENDBRANCH   5   6
ENDBRANCH   1   5
BRANCH   1   8
HETATM    8  C   UNK N   1      42.554  22.668   2.460  0.00  0.00     0.199 C 
BRANCH   8   9
HETATM    9  O   UNK N   1      41.776  23.796   2.187  0.00  0.00    -0.398 OA
HETATM   10  H   UNK N   1      41.780  24.585   2.752  0.00  0.00     0.209 HD
ENDBRANCH   8   9
ENDBRANCH   1   8
BRANCH   1  11
HETATM   11  N   UNK N   1      43.604  24.017   4.179  0.00  0.00    -0.417 N 
HETATM   12  H   UNK N   1      43.847  25.003   4.273  0.00  0.00     0.150 HD
HETATM   13  H   UNK N   1      43.078  23.636   4.965  0.00  0.00     0.150 HD
ENDBRANCH   1  11
TORSDOF 7
ENDMDL
MODEL 4
REMARK VINA RESULT:      -3.8     23.998     24.463
REMARK  7 active torsions:
REMARK  status: ('A' for Active; 'I' for Inactive)
REMARK    1  A    between atoms: C_1  and  C_4 
REMARK    2  A    between atoms: C_1  and  O_6 
REMARK    3  A    between atoms: C_2  and  C_4 
REMARK    4  A    between atoms: C_2  and  O_7 
REMARK    5  A    between atoms: C_3  and  C_4 
REMARK    6  A    between atoms: C_3  and  O_8 
REMARK    7  A    between atoms: C_4  and  N_5 
ROOT
HETATM    1  C   UNK N   1      20.085  18.845   2.295  0.00  0.00     0.087 C 
ENDROOT
BRANCH   1   2
HETATM    2  C   UNK N   1      20.271  17.502   1.591  0.00  0.00     0.199 C 
BRANCH   2   3
HETATM    3  O   UNK N   1      19.159  17.162   0.813  0.00  0.00    -0.398 OA
HETATM    4  H   UNK N   1      18.354  16.662   1.017  0.00  0.00     0.209 HD
ENDBRANCH   2   3
ENDBRANCH   1   2
BRANCH   1   5
HETATM    5  C   UNK N   1      20.683  18.817   3.706  0.00  0.00     0.199 C 
BRANCH   5   6
HETATM    6  O   UNK N   1      20.698  20.089   4.287  0.00  0.00    -0.398 OA
HETATM    7  H   UNK N   1      21.325  20.472   4.920  0.00  0.00     0.209 HD
ENDBRANCH   5   6
ENDBRANCH   1   5
BRANCH   1   8
HETATM    8  C   UNK N   1      20.698  19.968   1.458  0.00  0.00     0.199 C 
BRANCH   8   9
HETATM    9  O   UNK N   1      20.628  19.672   0.094  0.00  0.00    -0.398 OA
HETATM   10  H   UNK N   1      19.785  19.571  -0.377  0.00  0.00     0.209 HD
ENDBRANCH   8   9
ENDBRANCH   1   8
BRANCH   1  11
HETATM   11  N   UNK N   1      18.654  19.083   2.417  0.00  0.00    -0.417 N 
HETATM   12  H   UNK N   1      17.878  18.841   1.800  0.00  0.00     0.150 HD
HETATM   13  H   UNK N   1      18.380  19.577   3.266  0.00  0.00     0.150 HD
ENDBRANCH   1  11
TORSDOF 7
ENDMDL
MODEL 5
REMARK VINA RESULT:      -3.8     23.913     24.535
REMARK  7 active torsions:
REMARK  status: ('A' for Active; 'I' for Inactive)
REMARK    1  A    between atoms: C_1  and  C_4 
REMARK    2  A    between atoms: C_1  and  O_6 
REMARK    3  A    between atoms: C_2  and  C_4 
REMARK    4  A    between atoms: C_2  and  O_7 
REMARK    5  A    between atoms: C_3  and  C_4 
REMARK    6  A    between atoms: C_3  and  O_8 
REMARK    7  A    between atoms: C_4  and  N_5 
ROOT
HETATM    1  C   UNK N   1      20.058  18.675   2.223  0.00  0.00     0.087 C 
ENDROOT
BRANCH   1   2
HETATM    2  C   UNK N   1      20.699  19.849   1.484  0.00  0.00     0.199 C 
BRANCH   2   3
HETATM    3  O   UNK N   1      20.566  19.728   0.097  0.00  0.00    -0.398 OA
HETATM    4  H   UNK N   1      19.797  19.805  -0.489  0.00  0.00     0.209 HD
ENDBRANCH   2   3
ENDBRANCH   1   2
BRANCH   1   5
HETATM    5  C   UNK N   1      20.211  17.373   1.431  0.00  0.00     0.199 C 
BRANCH   5   6
HETATM    6  O   UNK N   1      19.121  17.152   0.582  0.00  0.00    -0.398 OA
HETATM    7  H   UNK N   1      19.107  16.933  -0.363  0.00  0.00     0.209 HD
ENDBRANCH   5   6
ENDBRANCH   1   5
BRANCH   1   8
HETATM    8  C   UNK N   1      20.657  18.543   3.623  0.00  0.00     0.199 C 
BRANCH   8   9
HETATM    9  O   UNK N   1      20.994  19.795   4.144  0.00  0.00    -0.398 OA
HETATM   10  H   UNK N   1      20.398  20.560   4.098  0.00  0.00     0.209 HD
ENDBRANCH   8   9
ENDBRANCH   1   8
BRANCH   1  11
HETATM   11  N   UNK N   1      18.636  18.961   2.350  0.00  0.00    -0.417 N 
HETATM   12  H   UNK N   1      18.103  19.400   3.101  0.00  0.00     0.150 HD
HETATM   13  H   UNK N   1      18.075  18.672   1.549  0.00  0.00     0.150 HD
ENDBRANCH   1  11
TORSDOF 7
ENDMDL
MODEL 6
REMARK VINA RESULT:      -3.7     12.217     12.661
REMARK  7 active torsions:
REMARK  status: ('A' for Active; 'I' for Inactive)
REMARK    1  A    between atoms: C_1  and  C_4 
REMARK    2  A    between atoms: C_1  and  O_6 
REMARK    3  A    between atoms: C_2  and  C_4 
REMARK    4  A    between atoms: C_2  and  O_7 
REMARK    5  A    between atoms: C_3  and  C_4 
REMARK    6  A    between atoms: C_3  and  O_8 
REMARK    7  A    between atoms: C_4  and  N_5 
ROOT
HETATM    1  C   UNK N   1      33.954  17.122   8.427  0.00  0.00     0.087 C 
ENDROOT
BRANCH   1   2
HETATM    2  C   UNK N   1      34.108  16.457   7.060  0.00  0.00     0.199 C 
BRANCH   2   3
HETATM    3  O   UNK N   1      34.459  17.379   6.068  0.00  0.00    -0.398 OA
HETATM    4  H   UNK N   1      35.069  17.321   5.316  0.00  0.00     0.209 HD
ENDBRANCH   2   3
ENDBRANCH   1   2
BRANCH   1   5
HETATM    5  C   UNK N   1      35.022  16.625   9.407  0.00  0.00     0.199 C 
BRANCH   5   6
HETATM    6  O   UNK N   1      34.865  17.193  10.675  0.00  0.00    -0.398 OA
HETATM    7  H   UNK N   1      34.839  18.127  10.935  0.00  0.00     0.209 HD
ENDBRANCH   5   6
ENDBRANCH   1   5
BRANCH   1   8
HETATM    8  C   UNK N   1      34.003  18.643   8.282  0.00  0.00     0.199 C 
BRANCH   8   9
HETATM    9  O   UNK N   1      35.300  19.125   8.482  0.00  0.00    -0.398 OA
HETATM   10  H   UNK N   1      36.089  18.645   8.183  0.00  0.00     0.209 HD
ENDBRANCH   8   9
ENDBRANCH   1   8
BRANCH   1  11
HETATM   11  N   UNK N   1      32.649  16.747   8.953  0.00  0.00    -0.417 N 
HETATM   12  H   UNK N   1      31.846  17.313   9.226  0.00  0.00     0.150 HD
HETATM   13  H   UNK N   1      32.515  15.742   9.068  0.00  0.00     0.150 HD
ENDBRANCH   1  11
TORSDOF 7
ENDMDL
MODEL 7
REMARK VINA RESULT:      -3.7     14.077     14.793
REMARK  7 active torsions:
REMARK  status: ('A' for Active; 'I' for Inactive)
REMARK    1  A    between atoms: C_1  and  C_4 
REMARK    2  A    between atoms: C_1  and  O_6 
REMARK    3  A    between atoms: C_2  and  C_4 
REMARK    4  A    between atoms: C_2  and  O_7 
REMARK    5  A    between atoms: C_3  and  C_4 
REMARK    6  A    between atoms: C_3  and  O_8 
REMARK    7  A    between atoms: C_4  and  N_5 
ROOT
HETATM    1  C   UNK N   1      35.654  14.281  11.730  0.00  0.00     0.087 C 
ENDROOT
BRANCH   1   2
HETATM    2  C   UNK N   1      35.754  15.763  11.370  0.00  0.00     0.199 C 
BRANCH   2   3
HETATM    3  O   UNK N   1      37.025  16.100  10.894  0.00  0.00    -0.398 OA
HETATM    4  H   UNK N   1      37.734  15.565  10.504  0.00  0.00     0.209 HD
ENDBRANCH   2   3
ENDBRANCH   1   2
BRANCH   1   5
HETATM    5  C   UNK N   1      36.658  13.448  10.927  0.00  0.00     0.199 C 
BRANCH   5   6
HETATM    6  O   UNK N   1      37.898  13.373  11.569  0.00  0.00    -0.398 OA
HETATM    7  H   UNK N   1      38.111  13.093  12.473  0.00  0.00     0.209 HD
ENDBRANCH   5   6
ENDBRANCH   1   5
BRANCH   1   8
HETATM    8  C   UNK N   1      35.854  14.090  13.234  0.00  0.00     0.199 C 
BRANCH   8   9
HETATM    9  O   UNK N   1      36.792  14.997  13.733  0.00  0.00    -0.398 OA
HETATM   10  H   UNK N   1      36.556  15.712  14.346  0.00  0.00     0.209 HD
ENDBRANCH   8   9
ENDBRANCH   1   8
BRANCH   1  11
HETATM   11  N   UNK N   1      34.313  13.834  11.379  0.00  0.00    -0.417 N 
HETATM   12  H   UNK N   1      33.588  13.381  11.935  0.00  0.00     0.150 HD
HETATM   13  H   UNK N   1      34.054  14.003  10.407  0.00  0.00     0.150 HD
ENDBRANCH   1  11
TORSDOF 7
ENDMDL
MODEL 8
REMARK VINA RESULT:      -3.7     14.087     14.873
REMARK  7 active torsions:
REMARK  status: ('A' for Active; 'I' for Inactive)
REMARK    1  A    between atoms: C_1  and  C_4 
REMARK    2  A    between atoms: C_1  and  O_6 
REMARK    3  A    between atoms: C_2  and  C_4 
REMARK    4  A    between atoms: C_2  and  O_7 
REMARK    5  A    between atoms: C_3  and  C_4 
REMARK    6  A    between atoms: C_3  and  O_8 
REMARK    7  A    between atoms: C_4  and  N_5 
ROOT
HETATM    1  C   UNK N   1      35.666  14.282  11.751  0.00  0.00     0.087 C 
ENDROOT
BRANCH   1   2
HETATM    2  C   UNK N   1      35.913  14.086  13.247  0.00  0.00     0.199 C 
BRANCH   2   3
HETATM    3  O   UNK N   1      36.800  15.039  13.759  0.00  0.00    -0.398 OA
HETATM    4  H   UNK N   1      37.385  15.679  13.324  0.00  0.00     0.209 HD
ENDBRANCH   2   3
ENDBRANCH   1   2
BRANCH   1   5
HETATM    5  C   UNK N   1      35.730  15.764  11.370  0.00  0.00     0.199 C 
BRANCH   5   6
HETATM    6  O   UNK N   1      36.995  16.123  10.896  0.00  0.00    -0.398 OA
HETATM    7  H   UNK N   1      37.586  15.649  10.289  0.00  0.00     0.209 HD
ENDBRANCH   5   6
ENDBRANCH   1   5
BRANCH   1   8
HETATM    8  C   UNK N   1      36.667  13.459  10.940  0.00  0.00     0.199 C 
BRANCH   8   9
HETATM    9  O   UNK N   1      37.893  13.366  11.602  0.00  0.00    -0.398 OA
HETATM   10  H   UNK N   1      38.563  12.701  11.375  0.00  0.00     0.209 HD
ENDBRANCH   8   9
ENDBRANCH   1   8
BRANCH   1  11
HETATM   11  N   UNK N   1      34.323  13.799  11.462  0.00  0.00    -0.417 N 
HETATM   12  H   UNK N   1      33.705  13.179  11.985  0.00  0.00     0.150 HD
HETATM   13  H   UNK N   1      33.933  14.141  10.584  0.00  0.00     0.150 HD
ENDBRANCH   1  11
TORSDOF 7
ENDMDL
MODEL 9
REMARK VINA RESULT:      -3.6     12.249     12.877
REMARK  7 active torsions:
REMARK  status: ('A' for Active; 'I' for Inactive)
REMARK    1  A    between atoms: C_1  and  C_4 
REMARK    2  A    between atoms: C_1  and  O_6 
REMARK    3  A    between atoms: C_2  and  C_4 
REMARK    4  A    between atoms: C_2  and  O_7 
REMARK    5  A    between atoms: C_3  and  C_4 
REMARK    6  A    between atoms: C_3  and  O_8 
REMARK    7  A    between atoms: C_4  and  N_5 
ROOT
HETATM    1  C   UNK N   1      33.999  16.976   8.497  0.00  0.00     0.087 C 
ENDROOT
BRANCH   1   2
HETATM    2  C   UNK N   1      34.016  18.480   8.226  0.00  0.00     0.199 C 
BRANCH   2   3
HETATM    3  O   UNK N   1      35.277  19.038   8.458  0.00  0.00    -0.398 OA
HETATM    4  H   UNK N   1      35.580  19.719   9.079  0.00  0.00     0.209 HD
ENDBRANCH   2   3
ENDBRANCH   1   2
BRANCH   1   5
HETATM    5  C   UNK N   1      34.154  16.178   7.199  0.00  0.00     0.199 C 
BRANCH   5   6
HETATM    6  O   UNK N   1      34.641  16.975   6.157  0.00  0.00    -0.398 OA
HETATM    7  H   UNK N   1      34.265  17.143   5.279  0.00  0.00     0.209 HD
ENDBRANCH   5   6
ENDBRANCH   1   5
BRANCH   1   8
HETATM    8  C   UNK N   1      35.091  16.611   9.503  0.00  0.00     0.199 C 
BRANCH   8   9
HETATM    9  O   UNK N   1      34.873  17.241  10.731  0.00  0.00    -0.398 OA
HETATM   10  H   UNK N   1      34.204  17.934  10.853  0.00  0.00     0.209 HD
ENDBRANCH   8   9
ENDBRANCH   1   8
BRANCH   1  11
HETATM   11  N   UNK N   1      32.704  16.649   9.076  0.00  0.00    -0.417 N 
HETATM   12  H   UNK N   1      32.133  15.806   9.013  0.00  0.00     0.150 HD
HETATM   13  H   UNK N   1      32.297  17.392   9.643  0.00  0.00     0.150 HD
ENDBRANCH   1  11
TORSDOF 7
ENDMDL
