MODEL 1
REMARK VINA RESULT:      -3.9      0.000      0.000
REMARK  3 active torsions:
REMARK  status: ('A' for Active; 'I' for Inactive)
REMARK    1  A    between atoms: C_2  and  C_3 
REMARK    2  A    between atoms: C_2  and  O_4 
REMARK    3  A    between atoms: C_3  and  O_6 
ROOT
HETATM    1  C   UNK N   1      20.339  18.332   1.749  0.00  0.00     0.050 C 
HETATM    2  C   UNK N   1      20.696  19.794   1.566  0.00  0.00     0.211 C 
ENDROOT
BRANCH   2   3
HETATM    3  C   UNK N   1      20.949  20.737   2.703  0.00  0.00     0.169 C 
HETATM    4  O   UNK N   1      20.295  20.646   3.726  0.00  0.00    -0.648 OA
BRANCH   3   5
HETATM    5  O   UNK N   1      21.899  21.688   2.599  0.00  0.00    -0.774 OA
HETATM    6  H   UNK N   1      21.677  22.540   2.277  0.00  0.00     0.167 HD
ENDBRANCH   3   5
ENDBRANCH   2   3
BRANCH   2   7
HETATM    7  O   UNK N   1      20.795  20.288   0.266  0.00  0.00    -0.385 OA
HETATM    8  H   UNK N   1      19.998  20.583  -0.203  0.00  0.00     0.210 HD
ENDBRANCH   2   7
TORSDOF 3
ENDMDL
MODEL 2
REMARK VINA RESULT:      -3.8     14.744     15.388
REMARK  3 active torsions:
REMARK  status: ('A' for Active; 'I' for Inactive)
REMARK    1  A    between atoms: C_2  and  C_3 
REMARK    2  A    between atoms: C_2  and  O_4 
REMARK    3  A    between atoms: C_3  and  O_6 
ROOT
HETATM    1  C   UNK N   1      33.025  16.225   8.694  0.00  0.00     0.050 C 
HETATM    2  C   UNK N   1      34.116  17.215   9.054  0.00  0.00     0.211 C 
ENDROOT
BRANCH   2   3
HETATM    3  C   UNK N   1      34.634  18.261   8.114  0.00  0.00     0.169 C 
HETATM    4  O   UNK N   1      34.413  18.169   6.920  0.00  0.00    -0.648 OA
BRANCH   3   5
HETATM    5  O   UNK N   1      35.344  19.306   8.585  0.00  0.00    -0.774 OA
HETATM    6  H   UNK N   1      36.280  19.288   8.555  0.00  0.00     0.167 HD
ENDBRANCH   3   5
ENDBRANCH   2   3
BRANCH   2   7
HETATM    7  O   UNK N   1      34.668  17.146  10.332  0.00  0.00    -0.385 OA
HETATM    8  H   UNK N   1      35.270  17.842  10.639  0.00  0.00     0.210 HD
ENDBRANCH   2   7
TORSDOF 3
ENDMDL
MODEL 3
REMARK VINA RESULT:      -3.7      1.341      2.806
REMARK  3 active torsions:
REMARK  status: ('A' for Active; 'I' for Inactive)
REMARK    1  A    between atoms: C_2  and  C_3 
REMARK    2  A    between atoms: C_2  and  O_4 
REMARK    3  A    between atoms: C_3  and  O_6 
ROOT
HETATM    1  C   UNK N   1      21.616  19.378   3.346  0.00  0.00     0.050 C 
HETATM    2  C   UNK N   1      21.418  20.459   2.301  0.00  0.00     0.211 C 
ENDROOT
BRANCH   2   3
HETATM    3  C   UNK N   1      20.990  20.185   0.891  0.00  0.00     0.169 C 
HETATM    4  O   UNK N   1      21.184  21.018   0.024  0.00  0.00    -0.648 OA
BRANCH   3   5
HETATM    5  O   UNK N   1      20.389  19.020   0.578  0.00  0.00    -0.774 OA
HETATM    6  H   UNK N   1      20.435  18.689  -0.297  0.00  0.00     0.167 HD
ENDBRANCH   3   5
ENDBRANCH   2   3
BRANCH   2   7
HETATM    7  O   UNK N   1      21.647  21.783   2.676  0.00  0.00    -0.385 OA
HETATM    8  H   UNK N   1      20.957  22.281   3.142  0.00  0.00     0.210 HD
ENDBRANCH   2   7
TORSDOF 3
ENDMDL
MODEL 4
REMARK VINA RESULT:      -3.6     17.275     17.771
REMARK  3 active torsions:
REMARK  status: ('A' for Active; 'I' for Inactive)
REMARK    1  A    between atoms: C_2  and  C_3 
REMARK    2  A    between atoms: C_2  and  O_4 
REMARK    3  A    between atoms: C_3  and  O_6 
ROOT
HETATM    1  C   UNK N   1      35.354  13.922  12.327  0.00  0.00     0.050 C 
HETATM    2  C   UNK N   1      34.808  15.056  11.480  0.00  0.00     0.211 C 
ENDROOT
BRANCH   2   3
HETATM    3  C   UNK N   1      35.646  16.186  10.963  0.00  0.00     0.169 C 
HETATM    4  O   UNK N   1      35.117  17.226  10.614  0.00  0.00    -0.648 OA
BRANCH   3   5
HETATM    5  O   UNK N   1      36.985  16.057  10.883  0.00  0.00    -0.774 OA
HETATM    6  H   UNK N   1      37.396  15.939  10.049  0.00  0.00     0.167 HD
ENDBRANCH   3   5
ENDBRANCH   2   3
BRANCH   2   7
HETATM    7  O   UNK N   1      33.450  15.044  11.165  0.00  0.00    -0.385 OA
HETATM    8  H   UNK N   1      33.010  14.208  10.946  0.00  0.00     0.210 HD
ENDBRANCH   2   7
TORSDOF 3
ENDMDL
MODEL 5
REMARK VINA RESULT:      -3.6     14.183     14.753
REMARK  3 active torsions:
REMARK  status: ('A' for Active; 'I' for Inactive)
REMARK    1  A    between atoms: C_2  and  C_3 
REMARK    2  A    between atoms: C_2  and  O_4 
REMARK    3  A    between atoms: C_3  and  O_6 
ROOT
HETATM    1  C   UNK N   1      32.221  17.466   7.515  0.00  0.00     0.050 C 
HETATM    2  C   UNK N   1      33.685  17.838   7.387  0.00  0.00     0.211 C 
ENDROOT
BRANCH   2   3
HETATM    3  C   UNK N   1      34.557  18.199   8.551  0.00  0.00     0.169 C 
HETATM    4  O   UNK N   1      35.289  19.170   8.485  0.00  0.00    -0.648 OA
BRANCH   3   5
HETATM    5  O   UNK N   1      34.534  17.453   9.674  0.00  0.00    -0.774 OA
HETATM    6  H   UNK N   1      34.974  16.627   9.697  0.00  0.00     0.167 HD
ENDBRANCH   3   5
ENDBRANCH   2   3
BRANCH   2   7
HETATM    7  O   UNK N   1      34.252  17.843   6.113  0.00  0.00    -0.385 OA
HETATM    8  H   UNK N   1      34.582  18.672   5.732  0.00  0.00     0.210 HD
ENDBRANCH   2   7
TORSDOF 3
ENDMDL
MODEL 6
REMARK VINA RESULT:      -3.6     12.154     12.962
REMARK  3 active torsions:
REMARK  status: ('A' for Active; 'I' for Inactive)
REMARK    1  A    between atoms: C_2  and  C_3 
REMARK    2  A    between atoms: C_2  and  O_4 
REMARK    3  A    between atoms: C_3  and  O_6 
ROOT
HETATM    1  C   UNK N   1      22.475  12.979  10.101  0.00  0.00     0.050 C 
HETATM    2  C   UNK N   1      22.485  12.253  11.432  0.00  0.00     0.211 C 
ENDROOT
BRANCH   2   3
HETATM    3  C   UNK N   1      23.696  12.140  12.309  0.00  0.00     0.169 C 
HETATM    4  O   UNK N   1      23.565  12.012  13.513  0.00  0.00    -0.648 OA
BRANCH   3   5
HETATM    5  O   UNK N   1      24.930  12.179  11.770  0.00  0.00    -0.774 OA
HETATM    6  H   UNK N   1      25.655  11.803  12.230  0.00  0.00     0.167 HD
ENDBRANCH   3   5
ENDBRANCH   2   3
BRANCH   2   7
HETATM    7  O   UNK N   1      21.300  11.659  11.864  0.00  0.00    -0.385 OA
HETATM    8  H   UNK N   1      20.537  11.609  11.267  0.00  0.00     0.210 HD
ENDBRANCH   2   7
TORSDOF 3
ENDMDL
MODEL 7
REMARK VINA RESULT:      -3.4      1.631      2.330
REMARK  3 active torsions:
REMARK  status: ('A' for Active; 'I' for Inactive)
REMARK    1  A    between atoms: C_2  and  C_3 
REMARK    2  A    between atoms: C_2  and  O_4 
REMARK    3  A    between atoms: C_3  and  O_6 
ROOT
HETATM    1  C   UNK N   1      20.755  18.906   3.748  0.00  0.00     0.050 C 
HETATM    2  C   UNK N   1      20.217  19.184   2.358  0.00  0.00     0.211 C 
ENDROOT
BRANCH   2   3
HETATM    3  C   UNK N   1      20.830  20.171   1.411  0.00  0.00     0.169 C 
HETATM    4  O   UNK N   1      21.520  21.078   1.840  0.00  0.00    -0.648 OA
BRANCH   3   5
HETATM    5  O   UNK N   1      20.620  20.059   0.084  0.00  0.00    -0.774 OA
HETATM    6  H   UNK N   1      20.828  20.774  -0.485  0.00  0.00     0.167 HD
ENDBRANCH   3   5
ENDBRANCH   2   3
BRANCH   2   7
HETATM    7  O   UNK N   1      19.088  18.482   1.939  0.00  0.00    -0.385 OA
HETATM    8  H   UNK N   1      18.462  18.893   1.322  0.00  0.00     0.210 HD
ENDBRANCH   2   7
TORSDOF 3
ENDMDL
MODEL 8
REMARK VINA RESULT:      -3.3     11.443     12.086
REMARK  3 active torsions:
REMARK  status: ('A' for Active; 'I' for Inactive)
REMARK    1  A    between atoms: C_2  and  C_3 
REMARK    2  A    between atoms: C_2  and  O_4 
REMARK    3  A    between atoms: C_3  and  O_6 
ROOT
HETATM    1  C   UNK N   1      30.879  24.047  -3.582  0.00  0.00     0.050 C 
HETATM    2  C   UNK N   1      30.976  22.886  -2.612  0.00  0.00     0.211 C 
ENDROOT
BRANCH   2   3
HETATM    3  C   UNK N   1      31.746  21.631  -2.892  0.00  0.00     0.169 C 
HETATM    4  O   UNK N   1      31.507  20.980  -3.893  0.00  0.00    -0.648 OA
BRANCH   3   5
HETATM    5  O   UNK N   1      32.704  21.217  -2.038  0.00  0.00    -0.774 OA
HETATM    6  H   UNK N   1      33.236  21.845  -1.590  0.00  0.00     0.167 HD
ENDBRANCH   3   5
ENDBRANCH   2   3
BRANCH   2   7
HETATM    7  O   UNK N   1      30.311  22.993  -1.391  0.00  0.00    -0.385 OA
HETATM    8  H   UNK N   1      30.245  23.854  -0.949  0.00  0.00     0.210 HD
ENDBRANCH   2   7
TORSDOF 3
ENDMDL
MODEL 9
REMARK VINA RESULT:      -3.3     11.283     11.809
REMARK  3 active torsions:
REMARK  status: ('A' for Active; 'I' for Inactive)
REMARK    1  A    between atoms: C_2  and  C_3 
REMARK    2  A    between atoms: C_2  and  O_4 
REMARK    3  A    between atoms: C_3  and  O_6 
ROOT
HETATM    1  C   UNK N   1      32.141  21.745  -4.435  0.00  0.00     0.050 C 
HETATM    2  C   UNK N   1      31.753  21.900  -2.977  0.00  0.00     0.211 C 
ENDROOT
BRANCH   2   3
HETATM    3  C   UNK N   1      30.579  22.705  -2.509  0.00  0.00     0.169 C 
HETATM    4  O   UNK N   1      30.489  23.028  -1.338  0.00  0.00    -0.648 OA
BRANCH   3   5
HETATM    5  O   UNK N   1      29.618  23.074  -3.380  0.00  0.00    -0.774 OA
HETATM    6  H   UNK N   1      29.264  22.448  -3.980  0.00  0.00     0.167 HD
ENDBRANCH   3   5
ENDBRANCH   2   3
BRANCH   2   7
HETATM    7  O   UNK N   1      32.536  21.257  -2.018  0.00  0.00    -0.385 OA
HETATM    8  H   UNK N   1      32.862  21.750  -1.249  0.00  0.00     0.210 HD
ENDBRANCH   2   7
TORSDOF 3
ENDMDL
