REMARK  2 active torsions:
REMARK  status: ('A' for Active; 'I' for Inactive)
REMARK    1  A    between atoms: C_10  and  C_12 
REMARK    2  A    between atoms: C_10  and  C_14 
ROOT
HETATM    1  C   UNK N   1      -2.212   0.416  -0.000  0.00  0.00     0.001 A 
HETATM    2  C   UNK N   1      -2.185   1.812  -0.000  0.00  0.00     0.001 A 
HETATM    3  C   UNK N   1       2.628   0.298   0.000  0.00  0.00     0.001 A 
HETATM    4  C   UNK N   1      -1.017  -0.311  -0.000  0.00  0.00     0.012 A 
HETATM    5  C   UNK N   1       1.402  -0.371  -0.000  0.00  0.00     0.012 A 
HETATM    6  C   UNK N   1       2.667   1.696   0.000  0.00  0.00     0.008 A 
HETATM    7  C   UNK N   1      -0.964   2.487   0.000  0.00  0.00     0.013 A 
HETATM    8  C   UNK N   1       0.211   0.357  -0.000  0.00  0.00    -0.025 A 
HETATM    9  C   UNK N   1       1.480   2.447   0.000  0.00  0.00    -0.040 A 
HETATM   10  C   UNK N   1       0.244   1.771   0.000  0.00  0.00    -0.019 A 
ENDROOT
BRANCH   9  11
HETATM   11  C   UNK N   1       1.477   3.959   0.000  0.00  0.00     0.115 C 
BRANCH  11  12
HETATM   12  C   UNK N   1       2.771   4.719   0.000  0.00  0.00     0.077 A 
HETATM   13  N   UNK N   1       2.790   5.986   0.000  0.00  0.00    -0.378 N 
HETATM   14  C   UNK N   1       4.145   6.487  -0.000  0.00  0.00     0.140 A 
ATOM     15  HN  UNK N   1       1.958   6.575   0.000  1.00  0.00     0.160 HD
HETATM   16  C   UNK N   1       5.017   5.207  -0.000  0.00  0.00     0.140 A 
HETATM   17  N   UNK N   1       4.041   4.151  -0.000  0.00  0.00    -0.378 N 
HETATM   18  H   UNK N   1       4.239   3.186  -0.000  0.00  0.00     0.160 HD
ENDBRANCH  11  12
ENDBRANCH   9  11
TORSDOF 2
