REMARK  7 active torsions:
REMARK  status: ('A' for Active; 'I' for Inactive)
REMARK    1  A    between atoms: C_1  and  C_4 
REMARK    2  A    between atoms: C_1  and  O_6 
REMARK    3  A    between atoms: C_2  and  C_4 
REMARK    4  A    between atoms: C_2  and  O_7 
REMARK    5  A    between atoms: C_3  and  C_4 
REMARK    6  A    between atoms: C_3  and  O_8 
REMARK    7  A    between atoms: C_4  and  N_5 
ROOT
HETATM    1  C   UNK N   1       1.325   0.818  -0.243  0.00  0.00     0.087 C 
ENDROOT
BRANCH   1   2
HETATM    2  C   UNK N   1       2.230   1.963   0.211  0.00  0.00     0.199 C 
BRANCH   2   3
HETATM    3  O   UNK N   1       3.277   1.511   1.021  0.00  0.00    -0.398 OA
HETATM    4  H   UNK N   1       3.369   0.726   1.583  0.00  0.00     0.209 HD
ENDBRANCH   2   3
ENDBRANCH   1   2
BRANCH   1   5
HETATM    5  C   UNK N   1       2.097  -0.190  -1.100  0.00  0.00     0.199 C 
BRANCH   5   6
HETATM    6  O   UNK N   1       3.099  -0.833  -0.366  0.00  0.00    -0.398 OA
HETATM    7  H   UNK N   1       3.060  -1.657   0.144  0.00  0.00     0.209 HD
ENDBRANCH   5   6
ENDBRANCH   1   5
BRANCH   1   8
HETATM    8  C   UNK N   1       0.687   0.139   0.969  0.00  0.00     0.199 C 
BRANCH   8   9
HETATM    9  O   UNK N   1      -0.240  -0.828   0.572  0.00  0.00    -0.398 OA
HETATM   10  H   UNK N   1      -1.144  -0.606   0.296  0.00  0.00     0.209 HD
ENDBRANCH   8   9
ENDBRANCH   1   8
BRANCH   1  11
HETATM   11  N   UNK N   1       0.269   1.393  -1.064  0.00  0.00    -0.417 N 
HETATM   12  H   UNK N   1       0.248   2.235  -1.639  0.00  0.00     0.150 HD
HETATM   13  H   UNK N   1      -0.601   0.861  -1.064  0.00  0.00     0.150 HD
ENDBRANCH   1  11
TORSDOF 7
