MODEL 1
REMARK VINA RESULT:      -2.9      0.000      0.000
REMARK  5 active torsions:
REMARK  status: ('A' for Active; 'I' for Inactive)
REMARK    1  A    between atoms: C_1  and  C_3 
REMARK    2  A    between atoms: C_1  and  O_4 
REMARK    3  A    between atoms: C_2  and  C_3 
REMARK    4  A    between atoms: C_2  and  S_5 
REMARK    5  A    between atoms: C_3  and  S_6 
ROOT
HETATM    1  C   UNK N   1      22.995  12.115  11.459  0.00  0.00     0.077 C 
ENDROOT
BRANCH   1   2
HETATM    2  C   UNK N   1      23.026  11.777  12.944  0.00  0.00     0.179 C 
BRANCH   2   3
HETATM    3  O   UNK N   1      23.980  12.540  13.622  0.00  0.00    -0.400 OA
HETATM    4  H   UNK N   1      23.827  12.802  14.543  0.00  0.00     0.209 HD
ENDBRANCH   2   3
ENDBRANCH   1   2
BRANCH   1   5
HETATM    5  C   UNK N   1      21.617  12.266  10.817  0.00  0.00     0.087 C 
BRANCH   5   6
HETATM    6  S   UNK N   1      21.446  13.722   9.739  0.00  0.00    -0.181 SA
HETATM    7  H   UNK N   1      22.290  13.891   8.686  0.00  0.00     0.101 HD
ENDBRANCH   5   6
ENDBRANCH   1   5
BRANCH   1   8
HETATM    8  S   UNK N   1      24.552  12.323  10.520  0.00  0.00    -0.174 SA
HETATM    9  H   UNK N   1      25.263  11.231  10.132  0.00  0.00     0.102 HD
ENDBRANCH   1   8
TORSDOF 5
ENDMDL
MODEL 2
REMARK VINA RESULT:      -2.9     11.807     12.604
REMARK  5 active torsions:
REMARK  status: ('A' for Active; 'I' for Inactive)
REMARK    1  A    between atoms: C_1  and  C_3 
REMARK    2  A    between atoms: C_1  and  O_4 
REMARK    3  A    between atoms: C_2  and  C_3 
REMARK    4  A    between atoms: C_2  and  S_5 
REMARK    5  A    between atoms: C_3  and  S_6 
ROOT
HETATM    1  C   UNK N   1      20.905  20.000   2.247  0.00  0.00     0.077 C 
ENDROOT
BRANCH   1   2
HETATM    2  C   UNK N   1      20.628  21.046   1.174  0.00  0.00     0.179 C 
BRANCH   2   3
HETATM    3  O   UNK N   1      20.611  20.477  -0.101  0.00  0.00    -0.400 OA
HETATM    4  H   UNK N   1      20.188  20.947  -0.837  0.00  0.00     0.209 HD
ENDBRANCH   2   3
ENDBRANCH   1   2
BRANCH   1   5
HETATM    5  C   UNK N   1      22.263  20.074   2.944  0.00  0.00     0.087 C 
BRANCH   5   6
HETATM    6  S   UNK N   1      22.640  18.648   4.009  0.00  0.00    -0.181 SA
HETATM    7  H   UNK N   1      23.795  18.621   4.726  0.00  0.00     0.101 HD
ENDBRANCH   5   6
ENDBRANCH   1   5
BRANCH   1   8
HETATM    8  S   UNK N   1      19.652  18.731   2.656  0.00  0.00    -0.174 SA
HETATM    9  H   UNK N   1      18.466  18.708   1.990  0.00  0.00     0.102 HD
ENDBRANCH   1   8
TORSDOF 5
ENDMDL
MODEL 3
REMARK VINA RESULT:      -2.8     12.055     12.514
REMARK  5 active torsions:
REMARK  status: ('A' for Active; 'I' for Inactive)
REMARK    1  A    between atoms: C_1  and  C_3 
REMARK    2  A    between atoms: C_1  and  O_4 
REMARK    3  A    between atoms: C_2  and  C_3 
REMARK    4  A    between atoms: C_2  and  S_5 
REMARK    5  A    between atoms: C_3  and  S_6 
ROOT
HETATM    1  C   UNK N   1      20.854  19.696   2.258  0.00  0.00     0.077 C 
ENDROOT
BRANCH   1   2
HETATM    2  C   UNK N   1      20.673  20.863   1.296  0.00  0.00     0.179 C 
BRANCH   2   3
HETATM    3  O   UNK N   1      20.616  20.429  -0.030  0.00  0.00    -0.400 OA
HETATM    4  H   UNK N   1      20.335  21.039  -0.729  0.00  0.00     0.209 HD
ENDBRANCH   2   3
ENDBRANCH   1   2
BRANCH   1   5
HETATM    5  C   UNK N   1      19.732  18.659   2.299  0.00  0.00     0.087 C 
BRANCH   5   6
HETATM    6  S   UNK N   1      20.105  17.114   1.413  0.00  0.00    -0.181 SA
HETATM    7  H   UNK N   1      20.751  17.155   0.217  0.00  0.00     0.101 HD
ENDBRANCH   5   6
ENDBRANCH   1   5
BRANCH   1   8
HETATM    8  S   UNK N   1      22.353  19.573   3.300  0.00  0.00    -0.174 SA
HETATM    9  H   UNK N   1      22.736  20.628   4.067  0.00  0.00     0.102 HD
ENDBRANCH   1   8
TORSDOF 5
ENDMDL
MODEL 4
REMARK VINA RESULT:      -2.7     13.045     13.517
REMARK  5 active torsions:
REMARK  status: ('A' for Active; 'I' for Inactive)
REMARK    1  A    between atoms: C_1  and  C_3 
REMARK    2  A    between atoms: C_1  and  O_4 
REMARK    3  A    between atoms: C_2  and  C_3 
REMARK    4  A    between atoms: C_2  and  S_5 
REMARK    5  A    between atoms: C_3  and  S_6 
ROOT
HETATM    1  C   UNK N   1      34.607  16.957   8.767  0.00  0.00     0.077 C 
ENDROOT
BRANCH   1   2
HETATM    2  C   UNK N   1      34.384  18.335   8.157  0.00  0.00     0.179 C 
BRANCH   2   3
HETATM    3  O   UNK N   1      35.356  19.244   8.578  0.00  0.00    -0.400 OA
HETATM    4  H   UNK N   1      36.231  19.250   8.158  0.00  0.00     0.209 HD
ENDBRANCH   2   3
ENDBRANCH   1   2
BRANCH   1   5
HETATM    5  C   UNK N   1      35.127  16.917  10.204  0.00  0.00     0.087 C 
BRANCH   5   6
HETATM    6  S   UNK N   1      36.156  15.468  10.592  0.00  0.00    -0.181 SA
HETATM    7  H   UNK N   1      37.465  15.631  10.920  0.00  0.00     0.101 HD
ENDBRANCH   5   6
ENDBRANCH   1   5
BRANCH   1   8
HETATM    8  S   UNK N   1      34.260  15.443   7.799  0.00  0.00    -0.174 SA
HETATM    9  H   UNK N   1      34.036  15.528   6.461  0.00  0.00     0.102 HD
ENDBRANCH   1   8
TORSDOF 5
ENDMDL
MODEL 5
REMARK VINA RESULT:      -2.6     12.973     13.289
REMARK  5 active torsions:
REMARK  status: ('A' for Active; 'I' for Inactive)
REMARK    1  A    between atoms: C_1  and  C_3 
REMARK    2  A    between atoms: C_1  and  O_4 
REMARK    3  A    between atoms: C_2  and  C_3 
REMARK    4  A    between atoms: C_2  and  S_5 
REMARK    5  A    between atoms: C_3  and  S_6 
ROOT
HETATM    1  C   UNK N   1      34.540  16.917   8.784  0.00  0.00     0.077 C 
ENDROOT
BRANCH   1   2
HETATM    2  C   UNK N   1      34.347  18.297   8.168  0.00  0.00     0.179 C 
BRANCH   2   3
HETATM    3  O   UNK N   1      35.354  19.179   8.565  0.00  0.00    -0.400 OA
HETATM    4  H   UNK N   1      35.639  19.206   9.492  0.00  0.00     0.209 HD
ENDBRANCH   2   3
ENDBRANCH   1   2
BRANCH   1   5
HETATM    5  C   UNK N   1      34.049  15.724   7.965  0.00  0.00     0.087 C 
BRANCH   5   6
HETATM    6  S   UNK N   1      34.794  15.592   6.310  0.00  0.00    -0.181 SA
HETATM    7  H   UNK N   1      35.082  16.717   5.602  0.00  0.00     0.101 HD
ENDBRANCH   5   6
ENDBRANCH   1   5
BRANCH   1   8
HETATM    8  S   UNK N   1      35.324  16.733  10.427  0.00  0.00    -0.174 SA
HETATM    9  H   UNK N   1      35.871  15.542  10.790  0.00  0.00     0.102 HD
ENDBRANCH   1   8
TORSDOF 5
ENDMDL
MODEL 6
REMARK VINA RESULT:      -2.6     12.352     12.961
REMARK  5 active torsions:
REMARK  status: ('A' for Active; 'I' for Inactive)
REMARK    1  A    between atoms: C_1  and  C_3 
REMARK    2  A    between atoms: C_1  and  O_4 
REMARK    3  A    between atoms: C_2  and  C_3 
REMARK    4  A    between atoms: C_2  and  S_5 
REMARK    5  A    between atoms: C_3  and  S_6 
ROOT
HETATM    1  C   UNK N   1      33.430  17.702   7.681  0.00  0.00     0.077 C 
ENDROOT
BRANCH   1   2
HETATM    2  C   UNK N   1      34.626  17.905   8.603  0.00  0.00     0.179 C 
BRANCH   2   3
HETATM    3  O   UNK N   1      35.214  19.157   8.408  0.00  0.00    -0.400 OA
HETATM    4  H   UNK N   1      35.558  19.655   9.166  0.00  0.00     0.209 HD
ENDBRANCH   2   3
ENDBRANCH   1   2
BRANCH   1   5
HETATM    5  C   UNK N   1      33.728  17.550   6.190  0.00  0.00     0.087 C 
BRANCH   5   6
HETATM    6  S   UNK N   1      34.246  15.878   5.694  0.00  0.00    -0.181 SA
HETATM    7  H   UNK N   1      33.697  15.294   4.595  0.00  0.00     0.101 HD
ENDBRANCH   5   6
ENDBRANCH   1   5
BRANCH   1   8
HETATM    8  S   UNK N   1      31.731  17.647   8.360  0.00  0.00    -0.174 SA
HETATM    9  H   UNK N   1      30.663  17.633   7.520  0.00  0.00     0.102 HD
ENDBRANCH   1   8
TORSDOF 5
ENDMDL
MODEL 7
REMARK VINA RESULT:      -2.6     11.934     12.459
REMARK  5 active torsions:
REMARK  status: ('A' for Active; 'I' for Inactive)
REMARK    1  A    between atoms: C_1  and  C_3 
REMARK    2  A    between atoms: C_1  and  O_4 
REMARK    3  A    between atoms: C_2  and  C_3 
REMARK    4  A    between atoms: C_2  and  S_5 
REMARK    5  A    between atoms: C_3  and  S_6 
ROOT
HETATM    1  C   UNK N   1      34.101  17.105   8.985  0.00  0.00     0.077 C 
ENDROOT
BRANCH   1   2
HETATM    2  C   UNK N   1      34.468  18.330   8.157  0.00  0.00     0.179 C 
BRANCH   2   3
HETATM    3  O   UNK N   1      34.526  18.027   6.795  0.00  0.00    -0.400 OA
HETATM    4  H   UNK N   1      34.601  17.105   6.505  0.00  0.00     0.209 HD
ENDBRANCH   2   3
ENDBRANCH   1   2
BRANCH   1   5
HETATM    5  C   UNK N   1      32.796  16.396   8.623  0.00  0.00     0.087 C 
BRANCH   5   6
HETATM    6  S   UNK N   1      31.365  17.505   8.436  0.00  0.00    -0.181 SA
HETATM    7  H   UNK N   1      31.051  18.009   7.213  0.00  0.00     0.101 HD
ENDBRANCH   5   6
ENDBRANCH   1   5
BRANCH   1   8
HETATM    8  S   UNK N   1      35.191  16.538  10.341  0.00  0.00    -0.174 SA
HETATM    9  H   UNK N   1      34.757  16.588  11.628  0.00  0.00     0.102 HD
ENDBRANCH   1   8
TORSDOF 5
ENDMDL
MODEL 8
REMARK VINA RESULT:      -2.5     12.559     12.717
REMARK  5 active torsions:
REMARK  status: ('A' for Active; 'I' for Inactive)
REMARK    1  A    between atoms: C_1  and  C_3 
REMARK    2  A    between atoms: C_1  and  O_4 
REMARK    3  A    between atoms: C_2  and  C_3 
REMARK    4  A    between atoms: C_2  and  S_5 
REMARK    5  A    between atoms: C_3  and  S_6 
ROOT
HETATM    1  C   UNK N   1      34.699  16.336   9.643  0.00  0.00     0.077 C 
ENDROOT
BRANCH   1   2
HETATM    2  C   UNK N   1      35.471  16.573  10.934  0.00  0.00     0.179 C 
BRANCH   2   3
HETATM    3  O   UNK N   1      36.806  16.184  10.811  0.00  0.00    -0.400 OA
HETATM    4  H   UNK N   1      37.485  16.595  11.369  0.00  0.00     0.209 HD
ENDBRANCH   2   3
ENDBRANCH   1   2
BRANCH   1   5
HETATM    5  C   UNK N   1      34.534  17.535   8.710  0.00  0.00     0.087 C 
BRANCH   5   6
HETATM    6  S   UNK N   1      32.829  17.810   8.136  0.00  0.00    -0.181 SA
HETATM    7  H   UNK N   1      31.823  17.016   8.588  0.00  0.00     0.101 HD
ENDBRANCH   5   6
ENDBRANCH   1   5
BRANCH   1   8
HETATM    8  S   UNK N   1      34.017  14.682   9.258  0.00  0.00    -0.174 SA
HETATM    9  H   UNK N   1      33.150  14.528   8.222  0.00  0.00     0.102 HD
ENDBRANCH   1   8
TORSDOF 5
ENDMDL
MODEL 9
REMARK VINA RESULT:      -2.5     11.404     11.993
REMARK  5 active torsions:
REMARK  status: ('A' for Active; 'I' for Inactive)
REMARK    1  A    between atoms: C_1  and  C_3 
REMARK    2  A    between atoms: C_1  and  O_4 
REMARK    3  A    between atoms: C_2  and  C_3 
REMARK    4  A    between atoms: C_2  and  S_5 
REMARK    5  A    between atoms: C_3  and  S_6 
ROOT
HETATM    1  C   UNK N   1      34.557  16.215   9.755  0.00  0.00     0.077 C 
ENDROOT
BRANCH   1   2
HETATM    2  C   UNK N   1      33.418  15.206   9.685  0.00  0.00     0.179 C 
BRANCH   2   3
HETATM    3  O   UNK N   1      32.839  15.001  10.939  0.00  0.00    -0.400 OA
HETATM    4  H   UNK N   1      32.194  14.287  11.066  0.00  0.00     0.209 HD
ENDBRANCH   2   3
ENDBRANCH   1   2
BRANCH   1   5
HETATM    5  C   UNK N   1      34.497  17.389   8.778  0.00  0.00     0.087 C 
BRANCH   5   6
HETATM    6  S   UNK N   1      32.824  17.784   8.180  0.00  0.00    -0.181 SA
HETATM    7  H   UNK N   1      32.245  18.968   8.511  0.00  0.00     0.101 HD
ENDBRANCH   5   6
ENDBRANCH   1   5
BRANCH   1   8
HETATM    8  S   UNK N   1      35.915  16.002  10.963  0.00  0.00    -0.174 SA
HETATM    9  H   UNK N   1      36.387  17.074  11.652  0.00  0.00     0.102 HD
ENDBRANCH   1   8
TORSDOF 5
ENDMDL
