MODEL 1
REMARK VINA RESULT:      -4.8      0.000      0.000
REMARK  2 active torsions:
REMARK  status: ('A' for Active; 'I' for Inactive)
REMARK    1  A    between atoms: C_1  and  C_4 
REMARK    2  A    between atoms: C_2  and  O_6 
ROOT
HETATM    1  C   UNK N   1      35.413  11.327  19.214  0.00  0.00    -0.022 A 
HETATM    2  C   UNK N   1      35.151  12.719  19.153  0.00  0.00     0.072 A 
HETATM    3  C   UNK N   1      35.648  10.629  18.022  0.00  0.00     0.011 A 
HETATM    4  C   UNK N   1      35.132  13.366  17.911  0.00  0.00     0.043 A 
HETATM    5  C   UNK N   1      35.626  11.283  16.792  0.00  0.00     0.007 A 
HETATM    6  C   UNK N   1      35.368  12.651  16.736  0.00  0.00    -0.059 A 
HETATM    7  C   UNK N   1      35.347  13.340  15.421  0.00  0.00     0.048 C 
ENDROOT
BRANCH   1   8
HETATM    8  C   UNK N   1      35.451  10.552  20.513  0.00  0.00     0.013 C 
HETATM    9  C   UNK N   1      36.791  10.216  21.147  0.00  0.00     0.015 C 
HETATM   10  C   UNK N   1      34.203  10.082  21.237  0.00  0.00     0.015 C 
ENDBRANCH   1   8
BRANCH   2  11
HETATM   11  O   UNK N   1      34.919  13.437  20.263  0.00  0.00    -0.360 OA
HETATM   12  H   UNK N   1      35.026  14.368  20.250  0.00  0.00     0.217 HD
ENDBRANCH   2  11
TORSDOF 2
ENDMDL
MODEL 2
REMARK VINA RESULT:      -4.7     14.199     16.045
REMARK  2 active torsions:
REMARK  status: ('A' for Active; 'I' for Inactive)
REMARK    1  A    between atoms: C_1  and  C_4 
REMARK    2  A    between atoms: C_2  and  O_6 
ROOT
HETATM    1  C   UNK N   1      23.074  12.400   9.015  0.00  0.00    -0.022 A 
HETATM    2  C   UNK N   1      21.875  12.488   9.766  0.00  0.00     0.072 A 
HETATM    3  C   UNK N   1      24.277  12.145   9.686  0.00  0.00     0.011 A 
HETATM    4  C   UNK N   1      21.915  12.320  11.157  0.00  0.00     0.043 A 
HETATM    5  C   UNK N   1      24.306  11.979  11.069  0.00  0.00     0.007 A 
HETATM    6  C   UNK N   1      23.126  12.066  11.805  0.00  0.00    -0.059 A 
HETATM    7  C   UNK N   1      23.164  11.889  13.278  0.00  0.00     0.048 C 
ENDROOT
BRANCH   1   8
HETATM    8  C   UNK N   1      23.118  12.570   7.512  0.00  0.00     0.013 C 
HETATM    9  C   UNK N   1      22.825  11.379   6.613  0.00  0.00     0.015 C 
HETATM   10  C   UNK N   1      23.442  13.888   6.834  0.00  0.00     0.015 C 
ENDBRANCH   1   8
BRANCH   2  11
HETATM   11  O   UNK N   1      20.694  12.730   9.176  0.00  0.00    -0.360 OA
HETATM   12  H   UNK N   1      20.649  13.303   8.436  0.00  0.00     0.217 HD
ENDBRANCH   2  11
TORSDOF 2
ENDMDL
MODEL 3
REMARK VINA RESULT:      -4.7      3.252      6.352
REMARK  2 active torsions:
REMARK  status: ('A' for Active; 'I' for Inactive)
REMARK    1  A    between atoms: C_1  and  C_4 
REMARK    2  A    between atoms: C_2  and  O_6 
ROOT
HETATM    1  C   UNK N   1      36.010  13.735  14.043  0.00  0.00    -0.022 A 
HETATM    2  C   UNK N   1      34.946  12.885  14.437  0.00  0.00     0.072 A 
HETATM    3  C   UNK N   1      36.770  14.373  15.032  0.00  0.00     0.011 A 
HETATM    4  C   UNK N   1      34.676  12.700  15.800  0.00  0.00     0.043 A 
HETATM    5  C   UNK N   1      36.493  14.182  16.384  0.00  0.00     0.007 A 
HETATM    6  C   UNK N   1      35.446  13.346  16.768  0.00  0.00    -0.059 A 
HETATM    7  C   UNK N   1      35.157  13.147  18.211  0.00  0.00     0.048 C 
ENDROOT
BRANCH   1   8
HETATM    8  C   UNK N   1      36.367  13.990  12.595  0.00  0.00     0.013 C 
HETATM    9  C   UNK N   1      35.883  15.261  11.915  0.00  0.00     0.015 C 
HETATM   10  C   UNK N   1      37.199  13.032  11.763  0.00  0.00     0.015 C 
ENDBRANCH   1   8
BRANCH   2  11
HETATM   11  O   UNK N   1      34.185  12.248  13.533  0.00  0.00    -0.360 OA
HETATM   12  H   UNK N   1      33.910  11.367  13.690  0.00  0.00     0.217 HD
ENDBRANCH   2  11
TORSDOF 2
ENDMDL
MODEL 4
REMARK VINA RESULT:      -4.6     24.279     25.750
REMARK  2 active torsions:
REMARK  status: ('A' for Active; 'I' for Inactive)
REMARK    1  A    between atoms: C_1  and  C_4 
REMARK    2  A    between atoms: C_2  and  O_6 
ROOT
HETATM    1  C   UNK N   1      29.643  23.040  -3.830  0.00  0.00    -0.022 A 
HETATM    2  C   UNK N   1      30.497  22.561  -2.804  0.00  0.00     0.072 A 
HETATM    3  C   UNK N   1      29.685  22.425  -5.089  0.00  0.00     0.011 A 
HETATM    4  C   UNK N   1      31.361  21.489  -3.067  0.00  0.00     0.043 A 
HETATM    5  C   UNK N   1      30.548  21.361  -5.339  0.00  0.00     0.007 A 
HETATM    6  C   UNK N   1      31.386  20.893  -4.329  0.00  0.00    -0.059 A 
HETATM    7  C   UNK N   1      32.303  19.758  -4.603  0.00  0.00     0.048 C 
ENDROOT
BRANCH   1   8
HETATM    8  C   UNK N   1      28.682  24.191  -3.630  0.00  0.00     0.013 C 
HETATM    9  C   UNK N   1      29.094  25.594  -4.048  0.00  0.00     0.015 C 
HETATM   10  C   UNK N   1      27.299  24.025  -3.028  0.00  0.00     0.015 C 
ENDBRANCH   1   8
BRANCH   2  11
HETATM   11  O   UNK N   1      30.499  23.111  -1.580  0.00  0.00    -0.360 OA
HETATM   12  H   UNK N   1      30.023  22.704  -0.883  0.00  0.00     0.217 HD
ENDBRANCH   2  11
TORSDOF 2
ENDMDL
MODEL 5
REMARK VINA RESULT:      -4.5      2.548      4.244
REMARK  2 active torsions:
REMARK  status: ('A' for Active; 'I' for Inactive)
REMARK    1  A    between atoms: C_1  and  C_4 
REMARK    2  A    between atoms: C_2  and  O_6 
ROOT
HETATM    1  C   UNK N   1      35.530  12.967  15.737  0.00  0.00    -0.022 A 
HETATM    2  C   UNK N   1      36.525  13.684  15.026  0.00  0.00     0.072 A 
HETATM    3  C   UNK N   1      34.579  12.232  15.015  0.00  0.00     0.011 A 
HETATM    4  C   UNK N   1      36.541  13.644  13.625  0.00  0.00     0.043 A 
HETATM    5  C   UNK N   1      34.604  12.200  13.623  0.00  0.00     0.007 A 
HETATM    6  C   UNK N   1      35.584  12.905  12.928  0.00  0.00    -0.059 A 
HETATM    7  C   UNK N   1      35.604  12.865  11.444  0.00  0.00     0.048 C 
ENDROOT
BRANCH   1   8
HETATM    8  C   UNK N   1      35.441  12.958  17.247  0.00  0.00     0.013 C 
HETATM    9  C   UNK N   1      35.328  14.274  18.000  0.00  0.00     0.015 C 
HETATM   10  C   UNK N   1      35.456  11.685  18.073  0.00  0.00     0.015 C 
ENDBRANCH   1   8
BRANCH   2  11
HETATM   11  O   UNK N   1      37.460  14.405  15.665  0.00  0.00    -0.360 OA
HETATM   12  H   UNK N   1      37.581  15.309  15.453  0.00  0.00     0.217 HD
ENDBRANCH   2  11
TORSDOF 2
ENDMDL
MODEL 6
REMARK VINA RESULT:      -4.5      2.527      4.656
REMARK  2 active torsions:
REMARK  status: ('A' for Active; 'I' for Inactive)
REMARK    1  A    between atoms: C_1  and  C_4 
REMARK    2  A    between atoms: C_2  and  O_6 
ROOT
HETATM    1  C   UNK N   1      35.110  11.107  15.601  0.00  0.00    -0.022 A 
HETATM    2  C   UNK N   1      34.979  12.493  15.869  0.00  0.00     0.072 A 
HETATM    3  C   UNK N   1      35.298  10.225  16.673  0.00  0.00     0.011 A 
HETATM    4  C   UNK N   1      35.040  12.952  17.191  0.00  0.00     0.043 A 
HETATM    5  C   UNK N   1      35.357  10.692  17.984  0.00  0.00     0.007 A 
HETATM    6  C   UNK N   1      35.228  12.054  18.244  0.00  0.00    -0.059 A 
HETATM    7  C   UNK N   1      35.293  12.544  19.644  0.00  0.00     0.048 C 
ENDROOT
BRANCH   1   8
HETATM    8  C   UNK N   1      35.056  10.530  14.204  0.00  0.00     0.013 C 
HETATM    9  C   UNK N   1      36.335  10.031  13.548  0.00  0.00     0.015 C 
HETATM   10  C   UNK N   1      33.774  10.413  13.401  0.00  0.00     0.015 C 
ENDBRANCH   1   8
BRANCH   2  11
HETATM   11  O   UNK N   1      34.798  13.384  14.881  0.00  0.00    -0.360 OA
HETATM   12  H   UNK N   1      35.223  14.217  14.917  0.00  0.00     0.217 HD
ENDBRANCH   2  11
TORSDOF 2
ENDMDL
MODEL 7
REMARK VINA RESULT:      -4.5     27.809     28.913
REMARK  2 active torsions:
REMARK  status: ('A' for Active; 'I' for Inactive)
REMARK    1  A    between atoms: C_1  and  C_4 
REMARK    2  A    between atoms: C_2  and  O_6 
ROOT
HETATM    1  C   UNK N   1      26.589  25.058  -5.279  0.00  0.00    -0.022 A 
HETATM    2  C   UNK N   1      26.478  25.271  -3.881  0.00  0.00     0.072 A 
HETATM    3  C   UNK N   1      26.526  26.162  -6.140  0.00  0.00     0.011 A 
HETATM    4  C   UNK N   1      26.308  26.572  -3.391  0.00  0.00     0.043 A 
HETATM    5  C   UNK N   1      26.357  27.452  -5.641  0.00  0.00     0.007 A 
HETATM    6  C   UNK N   1      26.248  27.657  -4.267  0.00  0.00    -0.059 A 
HETATM    7  C   UNK N   1      26.068  29.034  -3.743  0.00  0.00     0.048 C 
ENDROOT
BRANCH   1   8
HETATM    8  C   UNK N   1      26.773  23.686  -5.891  0.00  0.00     0.013 C 
HETATM    9  C   UNK N   1      28.171  23.099  -6.010  0.00  0.00     0.015 C 
HETATM   10  C   UNK N   1      25.620  22.843  -6.401  0.00  0.00     0.015 C 
ENDBRANCH   1   8
BRANCH   2  11
HETATM   11  O   UNK N   1      26.531  24.250  -3.011  0.00  0.00    -0.360 OA
HETATM   12  H   UNK N   1      26.215  24.364  -2.136  0.00  0.00     0.217 HD
ENDBRANCH   2  11
TORSDOF 2
ENDMDL
MODEL 8
REMARK VINA RESULT:      -4.4     15.624     17.569
REMARK  2 active torsions:
REMARK  status: ('A' for Active; 'I' for Inactive)
REMARK    1  A    between atoms: C_1  and  C_4 
REMARK    2  A    between atoms: C_2  and  O_6 
ROOT
HETATM    1  C   UNK N   1      21.401  14.211   8.523  0.00  0.00    -0.022 A 
HETATM    2  C   UNK N   1      20.649  13.797   9.651  0.00  0.00     0.072 A 
HETATM    3  C   UNK N   1      22.738  13.804   8.413  0.00  0.00     0.011 A 
HETATM    4  C   UNK N   1      21.251  12.994  10.628  0.00  0.00     0.043 A 
HETATM    5  C   UNK N   1      23.327  13.005   9.391  0.00  0.00     0.007 A 
HETATM    6  C   UNK N   1      22.584  12.600  10.498  0.00  0.00    -0.059 A 
HETATM    7  C   UNK N   1      23.218  11.749  11.536  0.00  0.00     0.048 C 
ENDROOT
BRANCH   1   8
HETATM    8  C   UNK N   1      20.829  15.079   7.423  0.00  0.00     0.013 C 
HETATM    9  C   UNK N   1      20.293  14.429   6.157  0.00  0.00     0.015 C 
HETATM   10  C   UNK N   1      20.753  16.591   7.513  0.00  0.00     0.015 C 
ENDBRANCH   1   8
BRANCH   2  11
HETATM   11  O   UNK N   1      19.365  14.158   9.807  0.00  0.00    -0.360 OA
HETATM   12  H   UNK N   1      18.907  14.574   9.104  0.00  0.00     0.217 HD
ENDBRANCH   2  11
TORSDOF 2
ENDMDL
MODEL 9
REMARK VINA RESULT:      -4.4     28.627     29.730
REMARK  2 active torsions:
REMARK  status: ('A' for Active; 'I' for Inactive)
REMARK    1  A    between atoms: C_1  and  C_4 
REMARK    2  A    between atoms: C_2  and  O_6 
ROOT
HETATM    1  C   UNK N   1      26.109  24.271  -6.112  0.00  0.00    -0.022 A 
HETATM    2  C   UNK N   1      25.762  25.411  -6.881  0.00  0.00     0.072 A 
HETATM    3  C   UNK N   1      26.271  24.412  -4.727  0.00  0.00     0.011 A 
HETATM    4  C   UNK N   1      25.589  26.648  -6.246  0.00  0.00     0.043 A 
HETATM    5  C   UNK N   1      26.097  25.647  -4.106  0.00  0.00     0.007 A 
HETATM    6  C   UNK N   1      25.756  26.765  -4.865  0.00  0.00    -0.059 A 
HETATM    7  C   UNK N   1      25.572  28.077  -4.196  0.00  0.00     0.048 C 
ENDROOT
BRANCH   1   8
HETATM    8  C   UNK N   1      26.315  22.901  -6.718  0.00  0.00     0.013 C 
HETATM    9  C   UNK N   1      27.727  22.406  -6.992  0.00  0.00     0.015 C 
HETATM   10  C   UNK N   1      25.173  21.969  -7.075  0.00  0.00     0.015 C 
ENDBRANCH   1   8
BRANCH   2  11
HETATM   11  O   UNK N   1      25.594  25.335  -8.210  0.00  0.00    -0.360 OA
HETATM   12  H   UNK N   1      25.033  25.944  -8.647  0.00  0.00     0.217 HD
ENDBRANCH   2  11
TORSDOF 2
ENDMDL
