MODEL 1
REMARK VINA RESULT:      -8.4      0.000      0.000
REMARK  6 active torsions:
REMARK  status: ('A' for Active; 'I' for Inactive)
REMARK    1  A    between atoms: C_7  and  C_10 
REMARK    2  A    between atoms: C_10  and  O_12 
REMARK    3  A    between atoms: O_12  and  C_13 
REMARK    4  A    between atoms: C_15  and  N_16 
REMARK    5  A    between atoms: C_20  and  C_21 
REMARK    6  A    between atoms: N_24  and  C_27 
ROOT
HETATM    1  C   UNK N   1      34.951  12.214  12.599  0.00  0.00     0.114 A 
HETATM    2  C   UNK N   1      35.039  13.484  12.061  0.00  0.00     0.054 A 
HETATM    3  C   UNK N   1      34.581  11.142  11.775  0.00  0.00     0.132 A 
HETATM    4  N   UNK N   1      34.307  11.367  10.459  0.00  0.00    -0.350 N 
ATOM      5  HN  UNK N   1      34.057  10.579   9.859  1.00  0.00     0.166 HD
HETATM    6  C   UNK N   1      34.360  12.621   9.926  0.00  0.00     0.102 A 
HETATM    7  C   UNK N   1      34.735  13.706  10.729  0.00  0.00    -0.005 A 
ENDROOT
BRANCH   7   8
HETATM    8  C   UNK N   1      34.684  15.088  10.248  0.00  0.00     0.009 A 
HETATM    9  C   UNK N   1      35.228  16.186  10.892  0.00  0.00     0.121 A 
HETATM   10  N   UNK N   1      34.860  17.284  10.211  0.00  0.00    -0.309 N 
HETATM   11  N   UNK N   1      34.115  16.913   9.186  0.00  0.00    -0.298 N 
ATOM     12  HN  UNK N   1      35.112  18.244  10.447  1.00  0.00     0.186 HD
HETATM   13  C   UNK N   1      33.980  15.571   9.169  0.00  0.00     0.124 A 
BRANCH  11  14
HETATM   14  C   UNK N   1      33.471  17.872   8.289  0.00  0.00     0.110 C 
HETATM   15  C   UNK N   1      33.949  17.674   6.843  0.00  0.00     0.046 C 
HETATM   16  C   UNK N   1      32.839  17.259   5.885  0.00  0.00     0.115 C 
HETATM   17  N   UNK N   1      31.913  16.366   6.564  0.00  0.00    -0.421 N 
HETATM   18  C   UNK N   1      31.099  17.183   7.458  0.00  0.00     0.115 C 
HETATM   19  H   UNK N   1      31.844  15.357   6.438  0.00  0.00     0.153 HD
HETATM   20  C   UNK N   1      31.942  17.960   8.482  0.00  0.00     0.046 C 
ENDBRANCH  11  14
ENDBRANCH   7   8
BRANCH   1  21
HETATM   21  O   UNK N   1      35.153  12.059  13.923  0.00  0.00    -0.338 OA
BRANCH  21  22
HETATM   22  C   UNK N   1      36.321  12.470  14.549  0.00  0.00     0.161 C 
HETATM   23  C   UNK N   1      37.410  11.391  14.614  0.00  0.00     0.045 C 
BRANCH  22  24
HETATM   24  C   UNK N   1      36.000  12.965  15.949  0.00  0.00     0.017 A 
HETATM   25  C   UNK N   1      35.323  12.119  16.863  0.00  0.00     0.044 A 
HETATM   26 Cl   UNK N   1      34.854  10.470  16.459  0.00  0.00    -0.084 Cl
HETATM   27  C   UNK N   1      35.021  12.575  18.145  0.00  0.00     0.028 A 
HETATM   28  C   UNK N   1      35.370  13.860  18.543  0.00  0.00     0.046 A 
HETATM   29  C   UNK N   1      36.040  14.709  17.665  0.00  0.00     0.138 A 
HETATM   30  F   UNK N   1      36.368  15.959  18.074  0.00  0.00    -0.204 F 
HETATM   31  C   UNK N   1      36.366  14.275  16.372  0.00  0.00     0.083 A 
HETATM   32 Cl   UNK N   1      37.216  15.405  15.317  0.00  0.00    -0.080 Cl
ENDBRANCH  22  24
ENDBRANCH  21  22
ENDBRANCH   1  21
BRANCH   3  33
HETATM   33  N   UNK N   1      34.457   9.840  12.305  0.00  0.00    -0.383 N 
HETATM   34  H   UNK N   1      35.019   9.108  11.962  0.00  0.00     0.157 HD
HETATM   35  H   UNK N   1      33.806   9.663  13.022  0.00  0.00     0.157 HD
ENDBRANCH   3  33
TORSDOF 6
ENDMDL
MODEL 2
REMARK VINA RESULT:      -8.1      6.089     10.899
REMARK  6 active torsions:
REMARK  status: ('A' for Active; 'I' for Inactive)
REMARK    1  A    between atoms: C_7  and  C_10 
REMARK    2  A    between atoms: C_10  and  O_12 
REMARK    3  A    between atoms: O_12  and  C_13 
REMARK    4  A    between atoms: C_15  and  N_16 
REMARK    5  A    between atoms: C_20  and  C_21 
REMARK    6  A    between atoms: N_24  and  C_27 
ROOT
HETATM    1  C   UNK N   1      30.078  16.399   5.127  0.00  0.00     0.114 A 
HETATM    2  C   UNK N   1      30.867  16.291   6.257  0.00  0.00     0.054 A 
HETATM    3  C   UNK N   1      30.645  16.877   3.936  0.00  0.00     0.132 A 
HETATM    4  N   UNK N   1      31.961  17.233   3.911  0.00  0.00    -0.350 N 
ATOM      5  HN  UNK N   1      32.372  17.560   3.036  1.00  0.00     0.166 HD
HETATM    6  C   UNK N   1      32.738  17.159   5.028  0.00  0.00     0.102 A 
HETATM    7  C   UNK N   1      32.196  16.678   6.227  0.00  0.00    -0.005 A 
ENDROOT
BRANCH   7   8
HETATM    8  C   UNK N   1      32.942  16.699   7.487  0.00  0.00     0.009 A 
HETATM    9  C   UNK N   1      32.906  17.712   8.428  0.00  0.00     0.121 A 
HETATM   10  N   UNK N   1      33.820  17.429   9.371  0.00  0.00    -0.309 N 
HETATM   11  N   UNK N   1      34.416  16.294   9.052  0.00  0.00    -0.298 N 
ATOM     12  HN  UNK N   1      34.021  17.995  10.195  1.00  0.00     0.186 HD
HETATM   13  C   UNK N   1      33.908  15.809   7.900  0.00  0.00     0.124 A 
BRANCH  11  14
HETATM   14  C   UNK N   1      35.530  15.743   9.820  0.00  0.00     0.110 C 
HETATM   15  C   UNK N   1      35.265  15.859  11.329  0.00  0.00     0.046 C 
HETATM   16  C   UNK N   1      35.166  14.514  12.037  0.00  0.00     0.115 C 
HETATM   17  N   UNK N   1      34.508  13.549  11.169  0.00  0.00    -0.421 N 
HETATM   18  C   UNK N   1      35.473  13.158  10.147  0.00  0.00     0.115 C 
HETATM   19  H   UNK N   1      33.552  13.209  11.258  0.00  0.00     0.153 HD
HETATM   20  C   UNK N   1      35.987  14.353   9.327  0.00  0.00     0.046 C 
ENDBRANCH  11  14
ENDBRANCH   7   8
BRANCH   1  21
HETATM   21  O   UNK N   1      28.766  16.112   5.226  0.00  0.00    -0.338 OA
BRANCH  21  22
HETATM   22  C   UNK N   1      27.962  16.645   6.225  0.00  0.00     0.161 C 
HETATM   23  C   UNK N   1      26.668  15.857   6.472  0.00  0.00     0.045 C 
BRANCH  22  24
HETATM   24  C   UNK N   1      27.632  18.090   5.895  0.00  0.00     0.017 A 
HETATM   25  C   UNK N   1      27.983  19.123   6.801  0.00  0.00     0.044 A 
HETATM   26 Cl   UNK N   1      28.835  18.810   8.310  0.00  0.00    -0.084 Cl
HETATM   27  C   UNK N   1      27.674  20.449   6.504  0.00  0.00     0.028 A 
HETATM   28  C   UNK N   1      27.013  20.777   5.325  0.00  0.00     0.046 A 
HETATM   29  C   UNK N   1      26.662  19.782   4.417  0.00  0.00     0.138 A 
HETATM   30  F   UNK N   1      26.015  20.125   3.275  0.00  0.00    -0.204 F 
HETATM   31  C   UNK N   1      26.969  18.440   4.684  0.00  0.00     0.083 A 
HETATM   32 Cl   UNK N   1      26.494  17.234   3.486  0.00  0.00    -0.080 Cl
ENDBRANCH  22  24
ENDBRANCH  21  22
ENDBRANCH   1  21
BRANCH   3  33
HETATM   33  N   UNK N   1      29.856  17.023   2.776  0.00  0.00    -0.383 N 
HETATM   34  H   UNK N   1      28.893  16.821   2.800  0.00  0.00     0.157 HD
HETATM   35  H   UNK N   1      30.271  17.328   1.937  0.00  0.00     0.157 HD
ENDBRANCH   3  33
TORSDOF 6
ENDMDL
MODEL 3
REMARK VINA RESULT:      -8.1      5.880     10.843
REMARK  6 active torsions:
REMARK  status: ('A' for Active; 'I' for Inactive)
REMARK    1  A    between atoms: C_7  and  C_10 
REMARK    2  A    between atoms: C_10  and  O_12 
REMARK    3  A    between atoms: O_12  and  C_13 
REMARK    4  A    between atoms: C_15  and  N_16 
REMARK    5  A    between atoms: C_20  and  C_21 
REMARK    6  A    between atoms: N_24  and  C_27 
ROOT
HETATM    1  C   UNK N   1      30.133  16.318   5.045  0.00  0.00     0.114 A 
HETATM    2  C   UNK N   1      30.903  16.219   6.189  0.00  0.00     0.054 A 
HETATM    3  C   UNK N   1      30.710  16.814   3.867  0.00  0.00     0.132 A 
HETATM    4  N   UNK N   1      32.018  17.199   3.868  0.00  0.00    -0.350 N 
ATOM      5  HN  UNK N   1      32.437  17.541   3.003  1.00  0.00     0.166 HD
HETATM    6  C   UNK N   1      32.776  17.136   4.999  0.00  0.00     0.102 A 
HETATM    7  C   UNK N   1      32.224  16.636   6.185  0.00  0.00    -0.005 A 
ENDROOT
BRANCH   7   8
HETATM    8  C   UNK N   1      32.946  16.666   7.458  0.00  0.00     0.009 A 
HETATM    9  C   UNK N   1      32.885  17.682   8.396  0.00  0.00     0.121 A 
HETATM   10  N   UNK N   1      33.784  17.407   9.356  0.00  0.00    -0.309 N 
HETATM   11  N   UNK N   1      34.394  16.277   9.051  0.00  0.00    -0.298 N 
ATOM     12  HN  UNK N   1      33.965  17.977  10.182  1.00  0.00     0.186 HD
HETATM   13  C   UNK N   1      33.910  15.785   7.892  0.00  0.00     0.124 A 
BRANCH  11  14
HETATM   14  C   UNK N   1      35.498  15.736   9.842  0.00  0.00     0.110 C 
HETATM   15  C   UNK N   1      35.171  15.782  11.342  0.00  0.00     0.046 C 
HETATM   16  C   UNK N   1      35.095  14.408  11.994  0.00  0.00     0.115 C 
HETATM   17  N   UNK N   1      34.508  13.455  11.064  0.00  0.00    -0.421 N 
HETATM   18  C   UNK N   1      35.525  13.139  10.066  0.00  0.00     0.115 C 
HETATM   19  H   UNK N   1      33.562  13.077  11.102  0.00  0.00     0.153 HD
HETATM   20  C   UNK N   1      36.024  14.383   9.314  0.00  0.00     0.046 C 
ENDBRANCH  11  14
ENDBRANCH   7   8
BRANCH   1  21
HETATM   21  O   UNK N   1      28.825  16.001   5.119  0.00  0.00    -0.338 OA
BRANCH  21  22
HETATM   22  C   UNK N   1      27.966  16.600   6.030  0.00  0.00     0.161 C 
HETATM   23  C   UNK N   1      26.701  15.782   6.327  0.00  0.00     0.045 C 
BRANCH  22  24
HETATM   24  C   UNK N   1      27.582  17.983   5.533  0.00  0.00     0.017 A 
HETATM   25  C   UNK N   1      26.931  18.134   4.283  0.00  0.00     0.044 A 
HETATM   26 Cl   UNK N   1      26.503  16.760   3.267  0.00  0.00    -0.084 Cl
HETATM   27  C   UNK N   1      26.586  19.403   3.822  0.00  0.00     0.028 A 
HETATM   28  C   UNK N   1      26.879  20.535   4.574  0.00  0.00     0.046 A 
HETATM   29  C   UNK N   1      27.513  20.414   5.807  0.00  0.00     0.138 A 
HETATM   30  F   UNK N   1      27.792  21.532   6.522  0.00  0.00    -0.204 F 
HETATM   31  C   UNK N   1      27.864  19.149   6.302  0.00  0.00     0.083 A 
HETATM   32 Cl   UNK N   1      28.664  19.073   7.873  0.00  0.00    -0.080 Cl
ENDBRANCH  22  24
ENDBRANCH  21  22
ENDBRANCH   1  21
BRANCH   3  33
HETATM   33  N   UNK N   1      29.939  16.950   2.694  0.00  0.00    -0.383 N 
HETATM   34  H   UNK N   1      29.544  16.157   2.263  0.00  0.00     0.157 HD
HETATM   35  H   UNK N   1      29.794  17.842   2.303  0.00  0.00     0.157 HD
ENDBRANCH   3  33
TORSDOF 6
ENDMDL
MODEL 4
REMARK VINA RESULT:      -8.1     10.741     13.250
REMARK  6 active torsions:
REMARK  status: ('A' for Active; 'I' for Inactive)
REMARK    1  A    between atoms: C_7  and  C_10 
REMARK    2  A    between atoms: C_10  and  O_12 
REMARK    3  A    between atoms: O_12  and  C_13 
REMARK    4  A    between atoms: C_15  and  N_16 
REMARK    5  A    between atoms: C_20  and  C_21 
REMARK    6  A    between atoms: N_24  and  C_27 
ROOT
HETATM    1  C   UNK N   1      21.332  15.772   7.630  0.00  0.00     0.114 A 
HETATM    2  C   UNK N   1      22.281  15.924   6.637  0.00  0.00     0.054 A 
HETATM    3  C   UNK N   1      20.431  16.816   7.887  0.00  0.00     0.132 A 
HETATM    4  N   UNK N   1      20.508  17.967   7.161  0.00  0.00    -0.350 N 
ATOM      5  HN  UNK N   1      19.837  18.715   7.339  1.00  0.00     0.166 HD
HETATM    6  C   UNK N   1      21.461  18.139   6.202  0.00  0.00     0.102 A 
HETATM    7  C   UNK N   1      22.367  17.107   5.922  0.00  0.00    -0.005 A 
ENDROOT
BRANCH   7   8
HETATM    8  C   UNK N   1      23.489  17.281   4.998  0.00  0.00     0.009 A 
HETATM    9  C   UNK N   1      23.968  16.322   4.123  0.00  0.00     0.121 A 
HETATM   10  N   UNK N   1      25.080  16.811   3.548  0.00  0.00    -0.309 N 
HETATM   11  N   UNK N   1      25.307  18.019   4.031  0.00  0.00    -0.298 N 
ATOM     12  HN  UNK N   1      25.654  16.330   2.856  1.00  0.00     0.186 HD
HETATM   13  C   UNK N   1      24.353  18.350   4.926  0.00  0.00     0.124 A 
BRANCH  11  14
HETATM   14  C   UNK N   1      26.493  18.800   3.683  0.00  0.00     0.110 C 
HETATM   15  C   UNK N   1      26.359  20.248   4.178  0.00  0.00     0.046 C 
HETATM   16  C   UNK N   1      27.400  20.636   5.221  0.00  0.00     0.115 C 
HETATM   17  N   UNK N   1      27.669  19.502   6.091  0.00  0.00    -0.421 N 
HETATM   18  C   UNK N   1      28.493  18.562   5.338  0.00  0.00     0.115 C 
HETATM   19  H   UNK N   1      27.344  19.385   7.050  0.00  0.00     0.153 HD
HETATM   20  C   UNK N   1      27.818  18.092   4.039  0.00  0.00     0.046 C 
ENDBRANCH  11  14
ENDBRANCH   7   8
BRANCH   1  21
HETATM   21  O   UNK N   1      21.350  14.648   8.373  0.00  0.00    -0.338 OA
BRANCH  21  22
HETATM   22  C   UNK N   1      22.100  13.535   8.018  0.00  0.00     0.161 C 
HETATM   23  C   UNK N   1      21.277  12.399   7.395  0.00  0.00     0.045 C 
BRANCH  22  24
HETATM   24  C   UNK N   1      22.853  13.021   9.232  0.00  0.00     0.017 A 
HETATM   25  C   UNK N   1      24.262  12.871   9.184  0.00  0.00     0.044 A 
HETATM   26 Cl   UNK N   1      25.211  13.296   7.762  0.00  0.00    -0.084 Cl
HETATM   27  C   UNK N   1      24.954  12.391  10.294  0.00  0.00     0.028 A 
HETATM   28  C   UNK N   1      24.276  12.047  11.459  0.00  0.00     0.046 A 
HETATM   29  C   UNK N   1      22.893  12.189  11.534  0.00  0.00     0.138 A 
HETATM   30  F   UNK N   1      22.253  11.844  12.678  0.00  0.00    -0.204 F 
HETATM   31  C   UNK N   1      22.171  12.679  10.436  0.00  0.00     0.083 A 
HETATM   32 Cl   UNK N   1      20.422  12.833  10.605  0.00  0.00    -0.080 Cl
ENDBRANCH  22  24
ENDBRANCH  21  22
ENDBRANCH   1  21
BRANCH   3  33
HETATM   33  N   UNK N   1      19.470  16.696   8.913  0.00  0.00    -0.383 N 
HETATM   34  H   UNK N   1      18.871  17.448   9.124  0.00  0.00     0.157 HD
HETATM   35  H   UNK N   1      19.397  15.855   9.420  0.00  0.00     0.157 HD
ENDBRANCH   3  33
TORSDOF 6
ENDMDL
MODEL 5
REMARK VINA RESULT:      -7.8      2.209      2.638
REMARK  6 active torsions:
REMARK  status: ('A' for Active; 'I' for Inactive)
REMARK    1  A    between atoms: C_7  and  C_10 
REMARK    2  A    between atoms: C_10  and  O_12 
REMARK    3  A    between atoms: O_12  and  C_13 
REMARK    4  A    between atoms: C_15  and  N_16 
REMARK    5  A    between atoms: C_20  and  C_21 
REMARK    6  A    between atoms: N_24  and  C_27 
ROOT
HETATM    1  C   UNK N   1      36.450  12.736  13.672  0.00  0.00     0.114 A 
HETATM    2  C   UNK N   1      35.995  13.821  12.946  0.00  0.00     0.054 A 
HETATM    3  C   UNK N   1      37.450  11.917  13.130  0.00  0.00     0.132 A 
HETATM    4  N   UNK N   1      37.955  12.196  11.894  0.00  0.00    -0.350 N 
ATOM      5  HN  UNK N   1      38.696  11.607  11.514  1.00  0.00     0.166 HD
HETATM    6  C   UNK N   1      37.490  13.245  11.158  0.00  0.00     0.102 A 
HETATM    7  C   UNK N   1      36.497  14.082  11.682  0.00  0.00    -0.005 A 
ENDROOT
BRANCH   7   8
HETATM    8  C   UNK N   1      35.868  15.140  10.889  0.00  0.00     0.009 A 
HETATM    9  C   UNK N   1      35.510  16.392  11.358  0.00  0.00     0.121 A 
HETATM   10  N   UNK N   1      34.846  17.023  10.374  0.00  0.00    -0.309 N 
HETATM   11  N   UNK N   1      34.777  16.218   9.329  0.00  0.00    -0.298 N 
ATOM     12  HN  UNK N   1      34.458  17.965  10.425  1.00  0.00     0.186 HD
HETATM   13  C   UNK N   1      35.393  15.049   9.601  0.00  0.00     0.124 A 
BRANCH  11  14
HETATM   14  C   UNK N   1      34.039  16.560   8.115  0.00  0.00     0.110 C 
HETATM   15  C   UNK N   1      33.108  15.411   7.699  0.00  0.00     0.046 C 
HETATM   16  C   UNK N   1      31.630  15.779   7.734  0.00  0.00     0.115 C 
HETATM   17  N   UNK N   1      31.372  16.669   8.856  0.00  0.00    -0.421 N 
HETATM   18  C   UNK N   1      31.890  17.984   8.495  0.00  0.00     0.115 C 
HETATM   19  H   UNK N   1      30.913  16.420   9.732  0.00  0.00     0.153 HD
HETATM   20  C   UNK N   1      33.391  17.960   8.165  0.00  0.00     0.046 C 
ENDBRANCH  11  14
ENDBRANCH   7   8
BRANCH   1  21
HETATM   21  O   UNK N   1      35.862  12.457  14.851  0.00  0.00    -0.338 OA
BRANCH  21  22
HETATM   22  C   UNK N   1      35.216  11.252  15.093  0.00  0.00     0.161 C 
HETATM   23  C   UNK N   1      33.730  11.251  14.709  0.00  0.00     0.045 C 
BRANCH  22  24
HETATM   24  C   UNK N   1      35.373  10.874  16.555  0.00  0.00     0.017 A 
HETATM   25  C   UNK N   1      35.642   9.531  16.917  0.00  0.00     0.044 A 
HETATM   26 Cl   UNK N   1      35.845   8.251  15.724  0.00  0.00    -0.084 Cl
HETATM   27  C   UNK N   1      35.777   9.181  18.259  0.00  0.00     0.028 A 
HETATM   28  C   UNK N   1      35.644  10.138  19.259  0.00  0.00     0.046 A 
HETATM   29  C   UNK N   1      35.384  11.465  18.930  0.00  0.00     0.138 A 
HETATM   30  F   UNK N   1      35.255  12.381  19.921  0.00  0.00    -0.204 F 
HETATM   31  C   UNK N   1      35.252  11.849  17.587  0.00  0.00     0.083 A 
HETATM   32 Cl   UNK N   1      34.925  13.549  17.246  0.00  0.00    -0.080 Cl
ENDBRANCH  22  24
ENDBRANCH  21  22
ENDBRANCH   1  21
BRANCH   3  33
HETATM   33  N   UNK N   1      37.913  10.788  13.838  0.00  0.00    -0.383 N 
HETATM   34  H   UNK N   1      38.692  10.860  14.436  0.00  0.00     0.157 HD
HETATM   35  H   UNK N   1      37.455   9.923  13.735  0.00  0.00     0.157 HD
ENDBRANCH   3  33
TORSDOF 6
ENDMDL
MODEL 6
REMARK VINA RESULT:      -7.6      4.775      9.688
REMARK  6 active torsions:
REMARK  status: ('A' for Active; 'I' for Inactive)
REMARK    1  A    between atoms: C_7  and  C_10 
REMARK    2  A    between atoms: C_10  and  O_12 
REMARK    3  A    between atoms: O_12  and  C_13 
REMARK    4  A    between atoms: C_15  and  N_16 
REMARK    5  A    between atoms: C_20  and  C_21 
REMARK    6  A    between atoms: N_24  and  C_27 
ROOT
HETATM    1  C   UNK N   1      34.962  15.730   8.714  0.00  0.00     0.114 A 
HETATM    2  C   UNK N   1      35.572  14.712   9.422  0.00  0.00     0.054 A 
HETATM    3  C   UNK N   1      34.720  16.959   9.344  0.00  0.00     0.132 A 
HETATM    4  N   UNK N   1      35.084  17.131  10.647  0.00  0.00    -0.350 N 
ATOM      5  HN  UNK N   1      34.924  18.034  11.094  1.00  0.00     0.166 HD
HETATM    6  C   UNK N   1      35.657  16.123  11.363  0.00  0.00     0.102 A 
HETATM    7  C   UNK N   1      35.915  14.889  10.752  0.00  0.00    -0.005 A 
ENDROOT
BRANCH   7   8
HETATM    8  C   UNK N   1      36.407  13.732  11.503  0.00  0.00     0.009 A 
HETATM    9  C   UNK N   1      37.503  12.959  11.165  0.00  0.00     0.121 A 
HETATM   10  N   UNK N   1      37.552  11.921  12.017  0.00  0.00    -0.309 N 
HETATM   11  N   UNK N   1      36.538  12.020  12.857  0.00  0.00    -0.298 N 
ATOM     12  HN  UNK N   1      38.253  11.181  12.015  1.00  0.00     0.186 HD
HETATM   13  C   UNK N   1      35.807  13.119  12.579  0.00  0.00     0.124 A 
BRANCH  11  14
HETATM   14  C   UNK N   1      36.241  11.000  13.861  0.00  0.00     0.110 C 
HETATM   15  C   UNK N   1      36.516  11.529  15.277  0.00  0.00     0.046 C 
HETATM   16  C   UNK N   1      35.272  11.601  16.154  0.00  0.00     0.115 C 
HETATM   17  N   UNK N   1      34.126  11.993  15.349  0.00  0.00    -0.421 N 
HETATM   18  C   UNK N   1      33.735  10.832  14.556  0.00  0.00     0.115 C 
HETATM   19  H   UNK N   1      33.677  12.909  15.340  0.00  0.00     0.153 HD
HETATM   20  C   UNK N   1      34.871  10.319  13.657  0.00  0.00     0.046 C 
ENDBRANCH  11  14
ENDBRANCH   7   8
BRANCH   1  21
HETATM   21  O   UNK N   1      34.549  15.482   7.455  0.00  0.00    -0.338 OA
BRANCH  21  22
HETATM   22  C   UNK N   1      33.216  15.248   7.143  0.00  0.00     0.161 C 
HETATM   23  C   UNK N   1      32.846  13.761   7.060  0.00  0.00     0.045 C 
BRANCH  22  24
HETATM   24  C   UNK N   1      32.871  15.940   5.837  0.00  0.00     0.017 A 
HETATM   25  C   UNK N   1      31.823  16.894   5.794  0.00  0.00     0.044 A 
HETATM   26 Cl   UNK N   1      30.902  17.354   7.223  0.00  0.00    -0.084 Cl
HETATM   27  C   UNK N   1      31.498  17.524   4.594  0.00  0.00     0.028 A 
HETATM   28  C   UNK N   1      32.189  17.224   3.425  0.00  0.00     0.046 A 
HETATM   29  C   UNK N   1      33.225  16.294   3.441  0.00  0.00     0.138 A 
HETATM   30  F   UNK N   1      33.882  16.014   2.289  0.00  0.00    -0.204 F 
HETATM   31  C   UNK N   1      33.581  15.651   4.636  0.00  0.00     0.083 A 
HETATM   32 Cl   UNK N   1      34.905  14.486   4.580  0.00  0.00    -0.080 Cl
ENDBRANCH  22  24
ENDBRANCH  21  22
ENDBRANCH   1  21
BRANCH   3  33
HETATM   33  N   UNK N   1      34.075  18.005   8.652  0.00  0.00    -0.383 N 
HETATM   34  H   UNK N   1      34.597  18.752   8.280  0.00  0.00     0.157 HD
HETATM   35  H   UNK N   1      33.097  17.987   8.539  0.00  0.00     0.157 HD
ENDBRANCH   3  33
TORSDOF 6
ENDMDL
MODEL 7
REMARK VINA RESULT:      -7.6     11.253     13.392
REMARK  6 active torsions:
REMARK  status: ('A' for Active; 'I' for Inactive)
REMARK    1  A    between atoms: C_7  and  C_10 
REMARK    2  A    between atoms: C_10  and  O_12 
REMARK    3  A    between atoms: O_12  and  C_13 
REMARK    4  A    between atoms: C_15  and  N_16 
REMARK    5  A    between atoms: C_20  and  C_21 
REMARK    6  A    between atoms: N_24  and  C_27 
ROOT
HETATM    1  C   UNK N   1      21.457  15.734   7.519  0.00  0.00     0.114 A 
HETATM    2  C   UNK N   1      22.444  15.813   6.554  0.00  0.00     0.054 A 
HETATM    3  C   UNK N   1      20.614  16.835   7.733  0.00  0.00     0.132 A 
HETATM    4  N   UNK N   1      20.784  17.967   6.993  0.00  0.00    -0.350 N 
ATOM      5  HN  UNK N   1      20.155  18.757   7.140  1.00  0.00     0.166 HD
HETATM    6  C   UNK N   1      21.774  18.066   6.061  0.00  0.00     0.102 A 
HETATM    7  C   UNK N   1      22.623  16.977   5.825  0.00  0.00    -0.005 A 
ENDROOT
BRANCH   7   8
HETATM    8  C   UNK N   1      23.782  17.068   4.934  0.00  0.00     0.009 A 
HETATM    9  C   UNK N   1      24.488  18.223   4.646  0.00  0.00     0.121 A 
HETATM   10  N   UNK N   1      25.388  17.925   3.694  0.00  0.00    -0.309 N 
HETATM   11  N   UNK N   1      25.266  16.647   3.384  0.00  0.00    -0.298 N 
ATOM     12  HN  UNK N   1      26.054  18.577   3.280  1.00  0.00     0.186 HD
HETATM   13  C   UNK N   1      24.290  16.080   4.122  0.00  0.00     0.124 A 
BRANCH  11  14
HETATM   14  C   UNK N   1      26.036  16.017   2.313  0.00  0.00     0.110 C 
HETATM   15  C   UNK N   1      27.483  15.758   2.760  0.00  0.00     0.046 C 
HETATM   16  C   UNK N   1      27.855  14.281   2.800  0.00  0.00     0.115 C 
HETATM   17  N   UNK N   1      26.713  13.499   3.250  0.00  0.00    -0.421 N 
HETATM   18  C   UNK N   1      25.770  13.430   2.140  0.00  0.00     0.115 C 
HETATM   19  H   UNK N   1      26.595  13.077   4.170  0.00  0.00     0.153 HD
HETATM   20  C   UNK N   1      25.313  14.818   1.662  0.00  0.00     0.046 C 
ENDBRANCH  11  14
ENDBRANCH   7   8
BRANCH   1  21
HETATM   21  O   UNK N   1      21.385  14.623   8.278  0.00  0.00    -0.338 OA
BRANCH  21  22
HETATM   22  C   UNK N   1      22.082  13.464   7.967  0.00  0.00     0.161 C 
HETATM   23  C   UNK N   1      21.204  12.337   7.409  0.00  0.00     0.045 C 
BRANCH  22  24
HETATM   24  C   UNK N   1      22.831  12.976   9.195  0.00  0.00     0.017 A 
HETATM   25  C   UNK N   1      24.238  12.810   9.150  0.00  0.00     0.044 A 
HETATM   26 Cl   UNK N   1      25.190  13.184   7.716  0.00  0.00    -0.084 Cl
HETATM   27  C   UNK N   1      24.925  12.354  10.273  0.00  0.00     0.028 A 
HETATM   28  C   UNK N   1      24.244  12.050  11.447  0.00  0.00     0.046 A 
HETATM   29  C   UNK N   1      22.863  12.209  11.519  0.00  0.00     0.138 A 
HETATM   30  F   UNK N   1      22.220  11.903  12.673  0.00  0.00    -0.204 F 
HETATM   31  C   UNK N   1      22.146  12.676  10.408  0.00  0.00     0.083 A 
HETATM   32 Cl   UNK N   1      20.398  12.854  10.573  0.00  0.00    -0.080 Cl
ENDBRANCH  22  24
ENDBRANCH  21  22
ENDBRANCH   1  21
BRANCH   3  33
HETATM   33  N   UNK N   1      19.617  16.790   8.730  0.00  0.00    -0.383 N 
HETATM   34  H   UNK N   1      19.059  17.581   8.911  0.00  0.00     0.157 HD
HETATM   35  H   UNK N   1      19.478  15.964   9.246  0.00  0.00     0.157 HD
ENDBRANCH   3  33
TORSDOF 6
ENDMDL
MODEL 8
REMARK VINA RESULT:      -7.5      4.533      9.812
REMARK  6 active torsions:
REMARK  status: ('A' for Active; 'I' for Inactive)
REMARK    1  A    between atoms: C_7  and  C_10 
REMARK    2  A    between atoms: C_10  and  O_12 
REMARK    3  A    between atoms: O_12  and  C_13 
REMARK    4  A    between atoms: C_15  and  N_16 
REMARK    5  A    between atoms: C_20  and  C_21 
REMARK    6  A    between atoms: N_24  and  C_27 
ROOT
HETATM    1  C   UNK N   1      34.848  15.680   8.569  0.00  0.00     0.114 A 
HETATM    2  C   UNK N   1      35.237  14.727   9.491  0.00  0.00     0.054 A 
HETATM    3  C   UNK N   1      34.720  17.017   8.973  0.00  0.00     0.132 A 
HETATM    4  N   UNK N   1      34.974  17.356  10.269  0.00  0.00    -0.350 N 
ATOM      5  HN  UNK N   1      34.898  18.334  10.552  1.00  0.00     0.166 HD
HETATM    6  C   UNK N   1      35.328  16.418  11.193  0.00  0.00     0.102 A 
HETATM    7  C   UNK N   1      35.470  15.078  10.811  0.00  0.00    -0.005 A 
ENDROOT
BRANCH   7   8
HETATM    8  C   UNK N   1      35.719  14.011  11.781  0.00  0.00     0.009 A 
HETATM    9  C   UNK N   1      35.163  12.743  11.745  0.00  0.00     0.121 A 
HETATM   10  N   UNK N   1      35.526  12.105  12.870  0.00  0.00    -0.309 N 
HETATM   11  N   UNK N   1      36.274  12.919  13.593  0.00  0.00    -0.298 N 
ATOM     12  HN  UNK N   1      35.268  11.151  13.124  1.00  0.00     0.186 HD
HETATM   13  C   UNK N   1      36.419  14.102  12.962  0.00  0.00     0.124 A 
BRANCH  11  14
HETATM   14  C   UNK N   1      36.763  12.569  14.925  0.00  0.00     0.110 C 
HETATM   15  C   UNK N   1      35.898  13.222  16.014  0.00  0.00     0.046 C 
HETATM   16  C   UNK N   1      35.170  12.220  16.900  0.00  0.00     0.115 C 
HETATM   17  N   UNK N   1      34.746  11.078  16.104  0.00  0.00    -0.421 N 
HETATM   18  C   UNK N   1      35.933  10.272  15.836  0.00  0.00     0.115 C 
HETATM   19  H   UNK N   1      33.797  10.877  15.791  0.00  0.00     0.153 HD
HETATM   20  C   UNK N   1      37.031  11.058  15.103  0.00  0.00     0.046 C 
ENDBRANCH  11  14
ENDBRANCH   7   8
BRANCH   1  21
HETATM   21  O   UNK N   1      34.530  15.279   7.323  0.00  0.00    -0.338 OA
BRANCH  21  22
HETATM   22  C   UNK N   1      33.233  14.940   6.959  0.00  0.00     0.161 C 
HETATM   23  C   UNK N   1      33.016  13.435   6.752  0.00  0.00     0.045 C 
BRANCH  22  24
HETATM   24  C   UNK N   1      32.843  15.696   5.702  0.00  0.00     0.017 A 
HETATM   25  C   UNK N   1      33.565  15.495   4.499  0.00  0.00     0.044 A 
HETATM   26 Cl   UNK N   1      34.904  14.356   4.377  0.00  0.00    -0.084 Cl
HETATM   27  C   UNK N   1      33.214  16.194   3.346  0.00  0.00     0.028 A 
HETATM   28  C   UNK N   1      32.160  17.101   3.359  0.00  0.00     0.046 A 
HETATM   29  C   UNK N   1      31.432  17.314   4.527  0.00  0.00     0.138 A 
HETATM   30  F   UNK N   1      30.410  18.206   4.517  0.00  0.00    -0.204 F 
HETATM   31  C   UNK N   1      31.756  16.617   5.700  0.00  0.00     0.083 A 
HETATM   32 Cl   UNK N   1      30.788  16.938   7.140  0.00  0.00    -0.080 Cl
ENDBRANCH  22  24
ENDBRANCH  21  22
ENDBRANCH   1  21
BRANCH   3  33
HETATM   33  N   UNK N   1      34.298  18.004   8.058  0.00  0.00    -0.383 N 
HETATM   34  H   UNK N   1      34.923  18.700   7.754  0.00  0.00     0.157 HD
HETATM   35  H   UNK N   1      33.372  17.997   7.723  0.00  0.00     0.157 HD
ENDBRANCH   3  33
TORSDOF 6
ENDMDL
MODEL 9
REMARK VINA RESULT:      -7.4     10.355     12.927
REMARK  6 active torsions:
REMARK  status: ('A' for Active; 'I' for Inactive)
REMARK    1  A    between atoms: C_7  and  C_10 
REMARK    2  A    between atoms: C_10  and  O_12 
REMARK    3  A    between atoms: O_12  and  C_13 
REMARK    4  A    between atoms: C_15  and  N_16 
REMARK    5  A    between atoms: C_20  and  C_21 
REMARK    6  A    between atoms: N_24  and  C_27 
ROOT
HETATM    1  C   UNK N   1      21.811  15.748   7.160  0.00  0.00     0.114 A 
HETATM    2  C   UNK N   1      22.959  15.705   6.392  0.00  0.00     0.054 A 
HETATM    3  C   UNK N   1      21.010  16.899   7.136  0.00  0.00     0.132 A 
HETATM    4  N   UNK N   1      21.377  17.960   6.363  0.00  0.00    -0.350 N 
ATOM      5  HN  UNK N   1      20.780  18.787   6.335  1.00  0.00     0.166 HD
HETATM    6  C   UNK N   1      22.525  17.939   5.627  0.00  0.00     0.102 A 
HETATM    7  C   UNK N   1      23.336  16.797   5.629  0.00  0.00    -0.005 A 
ENDROOT
BRANCH   7   8
HETATM    8  C   UNK N   1      24.641  16.764   4.965  0.00  0.00     0.009 A 
HETATM    9  C   UNK N   1      24.980  17.465   3.821  0.00  0.00     0.121 A 
HETATM   10  N   UNK N   1      26.210  17.072   3.450  0.00  0.00    -0.309 N 
HETATM   11  N   UNK N   1      26.638  16.164   4.307  0.00  0.00    -0.298 N 
ATOM     12  HN  UNK N   1      26.727  17.416   2.640  1.00  0.00     0.186 HD
HETATM   13  C   UNK N   1      25.706  15.943   5.257  0.00  0.00     0.124 A 
BRANCH  11  14
HETATM   14  C   UNK N   1      27.908  15.458   4.143  0.00  0.00     0.110 C 
HETATM   15  C   UNK N   1      28.493  15.703   2.744  0.00  0.00     0.046 C 
HETATM   16  C   UNK N   1      29.828  16.436   2.760  0.00  0.00     0.115 C 
HETATM   17  N   UNK N   1      29.832  17.426   3.826  0.00  0.00    -0.421 N 
HETATM   18  C   UNK N   1      29.993  16.707   5.086  0.00  0.00     0.115 C 
HETATM   19  H   UNK N   1      29.740  18.435   3.715  0.00  0.00     0.153 HD
HETATM   20  C   UNK N   1      28.883  15.670   5.322  0.00  0.00     0.046 C 
ENDBRANCH  11  14
ENDBRANCH   7   8
BRANCH   1  21
HETATM   21  O   UNK N   1      21.536  14.706   7.968  0.00  0.00    -0.338 OA
BRANCH  21  22
HETATM   22  C   UNK N   1      22.067  13.441   7.756  0.00  0.00     0.161 C 
HETATM   23  C   UNK N   1      21.033  12.393   7.321  0.00  0.00     0.045 C 
BRANCH  22  24
HETATM   24  C   UNK N   1      22.781  12.972   9.011  0.00  0.00     0.017 A 
HETATM   25  C   UNK N   1      24.183  12.762   8.995  0.00  0.00     0.044 A 
HETATM   26 Cl   UNK N   1      25.169  13.060   7.566  0.00  0.00    -0.084 Cl
HETATM   27  C   UNK N   1      24.839  12.324  10.144  0.00  0.00     0.028 A 
HETATM   28  C   UNK N   1      24.131  12.080  11.316  0.00  0.00     0.046 A 
HETATM   29  C   UNK N   1      22.755  12.282  11.359  0.00  0.00     0.138 A 
HETATM   30  F   UNK N   1      22.085  12.033  12.511  0.00  0.00    -0.204 F 
HETATM   31  C   UNK N   1      22.069  12.732  10.222  0.00  0.00     0.083 A 
HETATM   32 Cl   UNK N   1      20.325  12.967  10.352  0.00  0.00    -0.080 Cl
ENDBRANCH  22  24
ENDBRANCH  21  22
ENDBRANCH   1  21
BRANCH   3  33
HETATM   33  N   UNK N   1      19.847  16.979   7.932  0.00  0.00    -0.383 N 
HETATM   34  H   UNK N   1      19.590  17.831   8.353  0.00  0.00     0.157 HD
HETATM   35  H   UNK N   1      19.290  16.179   8.066  0.00  0.00     0.157 HD
ENDBRANCH   3  33
TORSDOF 6
ENDMDL
