MODEL 1
REMARK VINA RESULT:      -5.5      0.000      0.000
REMARK  8 active torsions:
REMARK  status: ('A' for Active; 'I' for Inactive)
REMARK    1  A    between atoms: N_2  and  C_9 
REMARK    2  A    between atoms: N_2  and  C_11 
REMARK    3  A    between atoms: N_2  and  C_12 
REMARK    4  A    between atoms: N_3  and  C_8 
REMARK    5  A    between atoms: N_3  and  C_13 
REMARK    6  A    between atoms: C_6  and  C_7 
REMARK    7  A    between atoms: C_6  and  C_8 
REMARK    8  A    between atoms: C_7  and  C_9 
ROOT
HETATM    1 Cl   UNK N   1      33.249  15.497   5.489  0.00  0.00    -0.084 Cl
HETATM    2  N   UNK N   1      30.605  17.787   9.219  0.00  0.00    -0.365 N 
ATOM      3  HN  UNK N   1      31.394  17.580   9.832  1.00  0.00     0.165 HD
HETATM    4  C   UNK N   1      28.458  18.349   7.561  0.00  0.00     0.042 A 
HETATM    5  C   UNK N   1      29.569  17.663   7.055  0.00  0.00     0.017 A 
HETATM    6  C   UNK N   1      28.444  18.752   8.898  0.00  0.00     0.047 A 
HETATM    7  C   UNK N   1      30.653  17.392   7.919  0.00  0.00     0.046 A 
HETATM    8  C   UNK N   1      29.638  17.275   5.710  0.00  0.00     0.018 A 
HETATM    9  C   UNK N   1      29.528  18.452   9.721  0.00  0.00     0.090 A 
HETATM   10  C   UNK N   1      31.782  16.730   7.430  0.00  0.00     0.054 A 
HETATM   11  C   UNK N   1      30.771  16.611   5.231  0.00  0.00     0.025 A 
HETATM   12  C   UNK N   1      31.839  16.339   6.090  0.00  0.00     0.036 A 
ENDROOT
BRANCH   4  13
HETATM   13  N   UNK N   1      27.403  18.729   6.710  0.00  0.00    -0.385 N 
HETATM   14  H   UNK N   1      26.679  18.104   6.478  0.00  0.00     0.160 HD
BRANCH  13  15
HETATM   15  C   UNK N   1      27.430  20.067   6.194  0.00  0.00     0.077 C 
HETATM   16  C   UNK N   1      26.554  21.046   6.958  0.00  0.00     0.032 C 
BRANCH  15  17
HETATM   17  C   UNK N   1      27.520  20.121   4.671  0.00  0.00     0.026 C 
BRANCH  17  18
HETATM   18  C   UNK N   1      26.184  20.148   3.955  0.00  0.00     0.032 C 
BRANCH  18  19
HETATM   19  C   UNK N   1      25.786  18.794   3.354  0.00  0.00     0.272 C 
BRANCH  19  20
HETATM   20  N   UNK N   1      25.082  17.946   4.326  0.00  0.00     0.087 N 
BRANCH  20  21
HETATM   21  C   UNK N   1      25.448  16.541   4.103  0.00  0.00     0.268 C 
HETATM   22  C   UNK N   1      26.800  16.438   3.425  0.00  0.00     0.037 C 
ENDBRANCH  20  21
BRANCH  20  23
HETATM   23  C   UNK N   1      23.646  18.223   4.167  0.00  0.00     0.268 C 
HETATM   24  C   UNK N   1      22.788  17.984   5.404  0.00  0.00     0.037 C 
ENDBRANCH  20  23
ENDBRANCH  19  20
ENDBRANCH  18  19
ENDBRANCH  17  18
ENDBRANCH  15  17
ENDBRANCH  13  15
ENDBRANCH   4  13
TORSDOF 8
ENDMDL
MODEL 2
REMARK VINA RESULT:      -5.3      1.789      3.374
REMARK  8 active torsions:
REMARK  status: ('A' for Active; 'I' for Inactive)
REMARK    1  A    between atoms: N_2  and  C_9 
REMARK    2  A    between atoms: N_2  and  C_11 
REMARK    3  A    between atoms: N_2  and  C_12 
REMARK    4  A    between atoms: N_3  and  C_8 
REMARK    5  A    between atoms: N_3  and  C_13 
REMARK    6  A    between atoms: C_6  and  C_7 
REMARK    7  A    between atoms: C_6  and  C_8 
REMARK    8  A    between atoms: C_7  and  C_9 
ROOT
HETATM    1 Cl   UNK N   1      33.883  14.158   3.112  0.00  0.00    -0.084 Cl
HETATM    2  N   UNK N   1      33.978  17.591   6.901  0.00  0.00    -0.365 N 
ATOM      3  HN  UNK N   1      34.944  17.781   6.633  1.00  0.00     0.165 HD
HETATM    4  C   UNK N   1      31.357  17.079   7.637  0.00  0.00     0.042 A 
HETATM    5  C   UNK N   1      31.936  16.369   6.577  0.00  0.00     0.017 A 
HETATM    6  C   UNK N   1      32.105  18.048   8.310  0.00  0.00     0.047 A 
HETATM    7  C   UNK N   1      33.273  16.651   6.219  0.00  0.00     0.046 A 
HETATM    8  C   UNK N   1      31.208  15.416   5.853  0.00  0.00     0.018 A 
HETATM    9  C   UNK N   1      33.426  18.286   7.934  0.00  0.00     0.090 A 
HETATM   10  C   UNK N   1      33.863  15.972   5.151  0.00  0.00     0.054 A 
HETATM   11  C   UNK N   1      31.808  14.740   4.787  0.00  0.00     0.025 A 
HETATM   12  C   UNK N   1      33.133  15.017   4.439  0.00  0.00     0.036 A 
ENDROOT
BRANCH   4  13
HETATM   13  N   UNK N   1      29.998  16.902   7.959  0.00  0.00    -0.385 N 
HETATM   14  H   UNK N   1      29.687  16.110   8.455  0.00  0.00     0.160 HD
BRANCH  13  15
HETATM   15  C   UNK N   1      29.088  17.925   7.534  0.00  0.00     0.077 C 
HETATM   16  C   UNK N   1      28.422  18.679   8.673  0.00  0.00     0.032 C 
BRANCH  15  17
HETATM   17  C   UNK N   1      28.301  17.545   6.282  0.00  0.00     0.026 C 
BRANCH  17  18
HETATM   18  C   UNK N   1      28.754  18.236   5.011  0.00  0.00     0.032 C 
BRANCH  18  19
HETATM   19  C   UNK N   1      27.619  18.952   4.268  0.00  0.00     0.272 C 
BRANCH  19  20
HETATM   20  N   UNK N   1      26.615  19.498   5.193  0.00  0.00     0.087 N 
BRANCH  20  21
HETATM   21  C   UNK N   1      25.271  19.269   4.646  0.00  0.00     0.268 C 
HETATM   22  C   UNK N   1      24.962  20.266   3.547  0.00  0.00     0.037 C 
ENDBRANCH  20  21
BRANCH  20  23
HETATM   23  C   UNK N   1      26.948  20.918   5.388  0.00  0.00     0.268 C 
HETATM   24  C   UNK N   1      26.678  21.472   6.783  0.00  0.00     0.037 C 
ENDBRANCH  20  23
ENDBRANCH  19  20
ENDBRANCH  18  19
ENDBRANCH  17  18
ENDBRANCH  15  17
ENDBRANCH  13  15
ENDBRANCH   4  13
TORSDOF 8
ENDMDL
MODEL 3
REMARK VINA RESULT:      -5.2      6.790      8.332
REMARK  8 active torsions:
REMARK  status: ('A' for Active; 'I' for Inactive)
REMARK    1  A    between atoms: N_2  and  C_9 
REMARK    2  A    between atoms: N_2  and  C_11 
REMARK    3  A    between atoms: N_2  and  C_12 
REMARK    4  A    between atoms: N_3  and  C_8 
REMARK    5  A    between atoms: N_3  and  C_13 
REMARK    6  A    between atoms: C_6  and  C_7 
REMARK    7  A    between atoms: C_6  and  C_8 
REMARK    8  A    between atoms: C_7  and  C_9 
ROOT
HETATM    1 Cl   UNK N   1      23.143  11.611  13.013  0.00  0.00    -0.084 Cl
HETATM    2  N   UNK N   1      24.811  13.252   8.466  0.00  0.00    -0.365 N 
ATOM      3  HN  UNK N   1      25.755  13.073   8.808  1.00  0.00     0.165 HD
HETATM    4  C   UNK N   1      22.250  13.740   7.531  0.00  0.00     0.042 A 
HETATM    5  C   UNK N   1      22.436  13.252   8.831  0.00  0.00     0.017 A 
HETATM    6  C   UNK N   1      23.357  13.969   6.712  0.00  0.00     0.047 A 
HETATM    7  C   UNK N   1      23.752  13.008   9.282  0.00  0.00     0.046 A 
HETATM    8  C   UNK N   1      21.350  12.975   9.670  0.00  0.00     0.018 A 
HETATM    9  C   UNK N   1      24.640  13.727   7.202  0.00  0.00     0.090 A 
HETATM   10  C   UNK N   1      23.962  12.499  10.567  0.00  0.00     0.054 A 
HETATM   11  C   UNK N   1      21.570  12.468  10.954  0.00  0.00     0.025 A 
HETATM   12  C   UNK N   1      22.873  12.233  11.401  0.00  0.00     0.036 A 
ENDROOT
BRANCH   4  13
HETATM   13  N   UNK N   1      20.953  13.899   7.007  0.00  0.00    -0.385 N 
HETATM   14  H   UNK N   1      20.337  13.136   6.918  0.00  0.00     0.160 HD
BRANCH  13  15
HETATM   15  C   UNK N   1      20.568  15.222   6.608  0.00  0.00     0.077 C 
HETATM   16  C   UNK N   1      20.468  16.214   7.754  0.00  0.00     0.032 C 
BRANCH  15  17
HETATM   17  C   UNK N   1      19.546  15.231   5.474  0.00  0.00     0.026 C 
BRANCH  17  18
HETATM   18  C   UNK N   1      19.618  16.441   4.563  0.00  0.00     0.032 C 
BRANCH  18  19
HETATM   19  C   UNK N   1      20.775  16.380   3.558  0.00  0.00     0.272 C 
BRANCH  19  20
HETATM   20  N   UNK N   1      20.661  17.418   2.524  0.00  0.00     0.087 N 
BRANCH  20  21
HETATM   21  C   UNK N   1      19.676  18.423   2.948  0.00  0.00     0.268 C 
HETATM   22  C   UNK N   1      20.311  19.798   3.028  0.00  0.00     0.037 C 
ENDBRANCH  20  21
BRANCH  20  23
HETATM   23  C   UNK N   1      20.312  16.732   1.270  0.00  0.00     0.268 C 
HETATM   24  C   UNK N   1      20.824  15.302   1.138  0.00  0.00     0.037 C 
ENDBRANCH  20  23
ENDBRANCH  19  20
ENDBRANCH  18  19
ENDBRANCH  17  18
ENDBRANCH  15  17
ENDBRANCH  13  15
ENDBRANCH   4  13
TORSDOF 8
ENDMDL
MODEL 4
REMARK VINA RESULT:      -5.2     11.746     15.559
REMARK  8 active torsions:
REMARK  status: ('A' for Active; 'I' for Inactive)
REMARK    1  A    between atoms: N_2  and  C_9 
REMARK    2  A    between atoms: N_2  and  C_11 
REMARK    3  A    between atoms: N_2  and  C_12 
REMARK    4  A    between atoms: N_3  and  C_8 
REMARK    5  A    between atoms: N_3  and  C_13 
REMARK    6  A    between atoms: C_6  and  C_7 
REMARK    7  A    between atoms: C_6  and  C_8 
REMARK    8  A    between atoms: C_7  and  C_9 
ROOT
HETATM    1 Cl   UNK N   1      36.163  15.878  11.452  0.00  0.00    -0.084 Cl
HETATM    2  N   UNK N   1      34.182  11.388  12.890  0.00  0.00    -0.365 N 
ATOM      3  HN  UNK N   1      33.763  11.336  11.961  1.00  0.00     0.165 HD
HETATM    4  C   UNK N   1      35.315  11.523  15.414  0.00  0.00     0.042 A 
HETATM    5  C   UNK N   1      35.516  12.567  14.503  0.00  0.00     0.017 A 
HETATM    6  C   UNK N   1      34.550  10.415  15.040  0.00  0.00     0.047 A 
HETATM    7  C   UNK N   1      34.931  12.472  13.220  0.00  0.00     0.046 A 
HETATM    8  C   UNK N   1      36.307  13.677  14.826  0.00  0.00     0.018 A 
HETATM    9  C   UNK N   1      33.979  10.368  13.769  0.00  0.00     0.090 A 
HETATM   10  C   UNK N   1      35.138  13.491  12.287  0.00  0.00     0.054 A 
HETATM   11  C   UNK N   1      36.506  14.692  13.886  0.00  0.00     0.025 A 
HETATM   12  C   UNK N   1      35.921  14.599  12.620  0.00  0.00     0.036 A 
ENDROOT
BRANCH   4  13
HETATM   13  N   UNK N   1      35.964  11.529  16.664  0.00  0.00    -0.385 N 
HETATM   14  H   UNK N   1      36.940  11.425  16.736  0.00  0.00     0.160 HD
BRANCH  13  15
HETATM   15  C   UNK N   1      35.140  11.694  17.826  0.00  0.00     0.077 C 
HETATM   16  C   UNK N   1      35.145  13.102  18.398  0.00  0.00     0.032 C 
BRANCH  15  17
HETATM   17  C   UNK N   1      35.152  10.476  18.746  0.00  0.00     0.026 C 
BRANCH  17  18
HETATM   18  C   UNK N   1      34.950  10.786  20.216  0.00  0.00     0.032 C 
BRANCH  18  19
HETATM   19  C   UNK N   1      34.746   9.535  21.081  0.00  0.00     0.272 C 
BRANCH  19  20
HETATM   20  N   UNK N   1      33.403   9.492  21.676  0.00  0.00     0.087 N 
BRANCH  20  21
HETATM   21  C   UNK N   1      33.519   9.436  23.139  0.00  0.00     0.268 C 
HETATM   22  C   UNK N   1      32.830  10.626  23.779  0.00  0.00     0.037 C 
ENDBRANCH  20  21
BRANCH  20  23
HETATM   23  C   UNK N   1      32.716   8.332  21.086  0.00  0.00     0.268 C 
HETATM   24  C   UNK N   1      31.635   8.657  20.061  0.00  0.00     0.037 C 
ENDBRANCH  20  23
ENDBRANCH  19  20
ENDBRANCH  18  19
ENDBRANCH  17  18
ENDBRANCH  15  17
ENDBRANCH  13  15
ENDBRANCH   4  13
TORSDOF 8
ENDMDL
MODEL 5
REMARK VINA RESULT:      -5.2     12.473     15.342
REMARK  8 active torsions:
REMARK  status: ('A' for Active; 'I' for Inactive)
REMARK    1  A    between atoms: N_2  and  C_9 
REMARK    2  A    between atoms: N_2  and  C_11 
REMARK    3  A    between atoms: N_2  and  C_12 
REMARK    4  A    between atoms: N_3  and  C_8 
REMARK    5  A    between atoms: N_3  and  C_13 
REMARK    6  A    between atoms: C_6  and  C_7 
REMARK    7  A    between atoms: C_6  and  C_8 
REMARK    8  A    between atoms: C_7  and  C_9 
ROOT
HETATM    1 Cl   UNK N   1      30.291  30.386  -8.320  0.00  0.00    -0.084 Cl
HETATM    2  N   UNK N   1      27.065  29.777  -4.398  0.00  0.00    -0.365 N 
ATOM      3  HN  UNK N   1      27.435  30.653  -4.028  1.00  0.00     0.165 HD
HETATM    4  C   UNK N   1      26.060  27.397  -5.397  0.00  0.00     0.042 A 
HETATM    5  C   UNK N   1      27.066  28.076  -6.095  0.00  0.00     0.017 A 
HETATM    6  C   UNK N   1      25.563  27.930  -4.205  0.00  0.00     0.047 A 
HETATM    7  C   UNK N   1      27.559  29.289  -5.567  0.00  0.00     0.046 A 
HETATM    8  C   UNK N   1      27.563  27.593  -7.313  0.00  0.00     0.018 A 
HETATM    9  C   UNK N   1      26.089  29.123  -3.711  0.00  0.00     0.090 A 
HETATM   10  C   UNK N   1      28.547  29.996  -6.258  0.00  0.00     0.054 A 
HETATM   11  C   UNK N   1      28.552  28.306  -7.996  0.00  0.00     0.025 A 
HETATM   12  C   UNK N   1      29.044  29.504  -7.468  0.00  0.00     0.036 A 
ENDROOT
BRANCH   4  13
HETATM   13  N   UNK N   1      25.469  26.239  -5.939  0.00  0.00    -0.385 N 
HETATM   14  H   UNK N   1      24.597  26.273  -6.396  0.00  0.00     0.160 HD
BRANCH  13  15
HETATM   15  C   UNK N   1      26.192  25.009  -5.798  0.00  0.00     0.077 C 
HETATM   16  C   UNK N   1      26.249  24.171  -7.064  0.00  0.00     0.032 C 
BRANCH  15  17
HETATM   17  C   UNK N   1      25.997  24.353  -4.433  0.00  0.00     0.026 C 
BRANCH  17  18
HETATM   18  C   UNK N   1      27.048  24.708  -3.400  0.00  0.00     0.032 C 
BRANCH  18  19
HETATM   19  C   UNK N   1      28.348  23.908  -3.553  0.00  0.00     0.272 C 
BRANCH  19  20
HETATM   20  N   UNK N   1      29.538  24.750  -3.367  0.00  0.00     0.087 N 
BRANCH  20  21
HETATM   21  C   UNK N   1      29.421  25.951  -4.207  0.00  0.00     0.268 C 
HETATM   22  C   UNK N   1      30.682  26.789  -4.124  0.00  0.00     0.037 C 
ENDBRANCH  20  21
BRANCH  20  23
HETATM   23  C   UNK N   1      30.704  23.911  -3.683  0.00  0.00     0.268 C 
HETATM   24  C   UNK N   1      30.961  22.754  -2.725  0.00  0.00     0.037 C 
ENDBRANCH  20  23
ENDBRANCH  19  20
ENDBRANCH  18  19
ENDBRANCH  17  18
ENDBRANCH  15  17
ENDBRANCH  13  15
ENDBRANCH   4  13
TORSDOF 8
ENDMDL
MODEL 6
REMARK VINA RESULT:      -5.2      7.238     11.531
REMARK  8 active torsions:
REMARK  status: ('A' for Active; 'I' for Inactive)
REMARK    1  A    between atoms: N_2  and  C_9 
REMARK    2  A    between atoms: N_2  and  C_11 
REMARK    3  A    between atoms: N_2  and  C_12 
REMARK    4  A    between atoms: N_3  and  C_8 
REMARK    5  A    between atoms: N_3  and  C_13 
REMARK    6  A    between atoms: C_6  and  C_7 
REMARK    7  A    between atoms: C_6  and  C_8 
REMARK    8  A    between atoms: C_7  and  C_9 
ROOT
HETATM    1 Cl   UNK N   1      33.262  17.653   5.572  0.00  0.00    -0.084 Cl
HETATM    2  N   UNK N   1      34.838  17.074  10.403  0.00  0.00    -0.365 N 
ATOM      3  HN  UNK N   1      34.398  17.974  10.597  1.00  0.00     0.165 HD
HETATM    4  C   UNK N   1      36.035  14.632   9.881  0.00  0.00     0.042 A 
HETATM    5  C   UNK N   1      35.400  15.332   8.847  0.00  0.00     0.017 A 
HETATM    6  C   UNK N   1      36.053  15.167  11.171  0.00  0.00     0.047 A 
HETATM    7  C   UNK N   1      34.794  16.574   9.140  0.00  0.00     0.046 A 
HETATM    8  C   UNK N   1      35.329  14.812   7.549  0.00  0.00     0.018 A 
HETATM    9  C   UNK N   1      35.454  16.402  11.414  0.00  0.00     0.090 A 
HETATM   10  C   UNK N   1      34.135  17.279   8.130  0.00  0.00     0.054 A 
HETATM   11  C   UNK N   1      34.669  15.525   6.545  0.00  0.00     0.025 A 
HETATM   12  C   UNK N   1      34.075  16.757   6.835  0.00  0.00     0.036 A 
ENDROOT
BRANCH   4  13
HETATM   13  N   UNK N   1      36.562  13.345   9.655  0.00  0.00    -0.385 N 
HETATM   14  H   UNK N   1      36.242  12.782   8.914  0.00  0.00     0.160 HD
BRANCH  13  15
HETATM   15  C   UNK N   1      37.584  12.892  10.552  0.00  0.00     0.077 C 
HETATM   16  C   UNK N   1      39.000  13.125  10.052  0.00  0.00     0.032 C 
BRANCH  15  17
HETATM   17  C   UNK N   1      37.214  11.601  11.279  0.00  0.00     0.026 C 
BRANCH  17  18
HETATM   18  C   UNK N   1      36.042  11.721  12.232  0.00  0.00     0.032 C 
BRANCH  18  19
HETATM   19  C   UNK N   1      36.085  10.707  13.383  0.00  0.00     0.272 C 
BRANCH  19  20
HETATM   20  N   UNK N   1      36.020  11.364  14.696  0.00  0.00     0.087 N 
BRANCH  20  21
HETATM   21  C   UNK N   1      34.653  11.847  14.932  0.00  0.00     0.268 C 
HETATM   22  C   UNK N   1      33.646  10.729  14.738  0.00  0.00     0.037 C 
ENDBRANCH  20  21
BRANCH  20  23
HETATM   23  C   UNK N   1      37.037  12.427  14.689  0.00  0.00     0.268 C 
HETATM   24  C   UNK N   1      36.589  13.771  15.251  0.00  0.00     0.037 C 
ENDBRANCH  20  23
ENDBRANCH  19  20
ENDBRANCH  18  19
ENDBRANCH  17  18
ENDBRANCH  15  17
ENDBRANCH  13  15
ENDBRANCH   4  13
TORSDOF 8
ENDMDL
MODEL 7
REMARK VINA RESULT:      -5.1     11.310     13.705
REMARK  8 active torsions:
REMARK  status: ('A' for Active; 'I' for Inactive)
REMARK    1  A    between atoms: N_2  and  C_9 
REMARK    2  A    between atoms: N_2  and  C_11 
REMARK    3  A    between atoms: N_2  and  C_12 
REMARK    4  A    between atoms: N_3  and  C_8 
REMARK    5  A    between atoms: N_3  and  C_13 
REMARK    6  A    between atoms: C_6  and  C_7 
REMARK    7  A    between atoms: C_6  and  C_8 
REMARK    8  A    between atoms: C_7  and  C_9 
ROOT
HETATM    1 Cl   UNK N   1      25.564  20.783  -9.223  0.00  0.00    -0.084 Cl
HETATM    2  N   UNK N   1      25.375  24.266  -5.483  0.00  0.00    -0.365 N 
ATOM      3  HN  UNK N   1      24.369  24.307  -5.646  1.00  0.00     0.165 HD
HETATM    4  C   UNK N   1      28.107  24.159  -5.038  0.00  0.00     0.042 A 
HETATM    5  C   UNK N   1      27.533  23.365  -6.038  0.00  0.00     0.017 A 
HETATM    6  C   UNK N   1      27.297  24.993  -4.265  0.00  0.00     0.047 A 
HETATM    7  C   UNK N   1      26.137  23.435  -6.244  0.00  0.00     0.046 A 
HETATM    8  C   UNK N   1      28.306  22.488  -6.810  0.00  0.00     0.018 A 
HETATM    9  C   UNK N   1      25.925  25.042  -4.510  0.00  0.00     0.090 A 
HETATM   10  C   UNK N   1      25.538  22.635  -7.220  0.00  0.00     0.054 A 
HETATM   11  C   UNK N   1      27.698  21.694  -7.786  0.00  0.00     0.025 A 
HETATM   12  C   UNK N   1      26.317  21.769  -7.991  0.00  0.00     0.036 A 
ENDROOT
BRANCH   4  13
HETATM   13  N   UNK N   1      29.477  24.043  -4.732  0.00  0.00    -0.385 N 
HETATM   14  H   UNK N   1      30.116  23.660  -5.376  0.00  0.00     0.160 HD
BRANCH  13  15
HETATM   15  C   UNK N   1      29.900  24.508  -3.443  0.00  0.00     0.077 C 
HETATM   16  C   UNK N   1      30.867  25.679  -3.490  0.00  0.00     0.032 C 
BRANCH  15  17
HETATM   17  C   UNK N   1      30.085  23.380  -2.431  0.00  0.00     0.026 C 
BRANCH  17  18
HETATM   18  C   UNK N   1      30.243  22.000  -3.038  0.00  0.00     0.032 C 
BRANCH  18  19
HETATM   19  C   UNK N   1      31.706  21.584  -3.234  0.00  0.00     0.272 C 
BRANCH  19  20
HETATM   20  N   UNK N   1      32.060  21.473  -4.656  0.00  0.00     0.087 N 
BRANCH  20  21
HETATM   21  C   UNK N   1      31.317  20.359  -5.259  0.00  0.00     0.268 C 
HETATM   22  C   UNK N   1      31.740  20.147  -6.700  0.00  0.00     0.037 C 
ENDBRANCH  20  21
BRANCH  20  23
HETATM   23  C   UNK N   1      33.522  21.320  -4.719  0.00  0.00     0.268 C 
HETATM   24  C   UNK N   1      34.164  20.633  -3.518  0.00  0.00     0.037 C 
ENDBRANCH  20  23
ENDBRANCH  19  20
ENDBRANCH  18  19
ENDBRANCH  17  18
ENDBRANCH  15  17
ENDBRANCH  13  15
ENDBRANCH   4  13
TORSDOF 8
ENDMDL
MODEL 8
REMARK VINA RESULT:      -5.0     11.596     13.393
REMARK  8 active torsions:
REMARK  status: ('A' for Active; 'I' for Inactive)
REMARK    1  A    between atoms: N_2  and  C_9 
REMARK    2  A    between atoms: N_2  and  C_11 
REMARK    3  A    between atoms: N_2  and  C_12 
REMARK    4  A    between atoms: N_3  and  C_8 
REMARK    5  A    between atoms: N_3  and  C_13 
REMARK    6  A    between atoms: C_6  and  C_7 
REMARK    7  A    between atoms: C_6  and  C_8 
REMARK    8  A    between atoms: C_7  and  C_9 
ROOT
HETATM    1 Cl   UNK N   1      33.507  20.850  -2.772  0.00  0.00    -0.084 Cl
HETATM    2  N   UNK N   1      30.082  20.430  -6.546  0.00  0.00    -0.365 N 
ATOM      3  HN  UNK N   1      30.509  19.529  -6.761  1.00  0.00     0.165 HD
HETATM    4  C   UNK N   1      28.919  22.877  -5.968  0.00  0.00     0.042 A 
HETATM    5  C   UNK N   1      30.007  22.427  -5.211  0.00  0.00     0.017 A 
HETATM    6  C   UNK N   1      28.421  22.084  -7.005  0.00  0.00     0.047 A 
HETATM    7  C   UNK N   1      30.581  21.174  -5.523  0.00  0.00     0.046 A 
HETATM    8  C   UNK N   1      30.512  23.175  -4.140  0.00  0.00     0.018 A 
HETATM    9  C   UNK N   1      29.025  20.860  -7.289  0.00  0.00     0.090 A 
HETATM   10  C   UNK N   1      31.653  20.694  -4.767  0.00  0.00     0.054 A 
HETATM   11  C   UNK N   1      31.586  22.687  -3.390  0.00  0.00     0.025 A 
HETATM   12  C   UNK N   1      32.155  21.450  -3.705  0.00  0.00     0.036 A 
ENDROOT
BRANCH   4  13
HETATM   13  N   UNK N   1      28.254  24.070  -5.625  0.00  0.00    -0.385 N 
HETATM   14  H   UNK N   1      28.581  24.947  -5.932  0.00  0.00     0.160 HD
BRANCH  13  15
HETATM   15  C   UNK N   1      27.080  23.952  -4.811  0.00  0.00     0.077 C 
HETATM   16  C   UNK N   1      25.781  23.885  -5.596  0.00  0.00     0.032 C 
BRANCH  15  17
HETATM   17  C   UNK N   1      27.169  24.751  -3.513  0.00  0.00     0.026 C 
BRANCH  17  18
HETATM   18  C   UNK N   1      26.411  26.064  -3.520  0.00  0.00     0.032 C 
BRANCH  18  19
HETATM   19  C   UNK N   1      27.304  27.282  -3.790  0.00  0.00     0.272 C 
BRANCH  19  20
HETATM   20  N   UNK N   1      26.653  28.254  -4.680  0.00  0.00     0.087 N 
BRANCH  20  21
HETATM   21  C   UNK N   1      26.127  27.558  -5.862  0.00  0.00     0.268 C 
HETATM   22  C   UNK N   1      27.184  27.464  -6.945  0.00  0.00     0.037 C 
ENDBRANCH  20  21
BRANCH  20  23
HETATM   23  C   UNK N   1      27.658  29.283  -4.990  0.00  0.00     0.268 C 
HETATM   24  C   UNK N   1      27.347  30.684  -4.475  0.00  0.00     0.037 C 
ENDBRANCH  20  23
ENDBRANCH  19  20
ENDBRANCH  18  19
ENDBRANCH  17  18
ENDBRANCH  15  17
ENDBRANCH  13  15
ENDBRANCH   4  13
TORSDOF 8
ENDMDL
MODEL 9
REMARK VINA RESULT:      -5.0      4.535      8.811
REMARK  8 active torsions:
REMARK  status: ('A' for Active; 'I' for Inactive)
REMARK    1  A    between atoms: N_2  and  C_9 
REMARK    2  A    between atoms: N_2  and  C_11 
REMARK    3  A    between atoms: N_2  and  C_12 
REMARK    4  A    between atoms: N_3  and  C_8 
REMARK    5  A    between atoms: N_3  and  C_13 
REMARK    6  A    between atoms: C_6  and  C_7 
REMARK    7  A    between atoms: C_6  and  C_8 
REMARK    8  A    between atoms: C_7  and  C_9 
ROOT
HETATM    1 Cl   UNK N   1      19.166  13.669   0.286  0.00  0.00    -0.084 Cl
HETATM    2  N   UNK N   1      20.185  18.620   1.062  0.00  0.00    -0.365 N 
ATOM      3  HN  UNK N   1      19.702  18.802   0.182  1.00  0.00     0.165 HD
HETATM    4  C   UNK N   1      21.501  18.133   3.450  0.00  0.00     0.042 A 
HETATM    5  C   UNK N   1      20.971  17.064   2.715  0.00  0.00     0.017 A 
HETATM    6  C   UNK N   1      21.353  19.439   2.978  0.00  0.00     0.047 A 
HETATM    7  C   UNK N   1      20.302  17.340   1.502  0.00  0.00     0.046 A 
HETATM    8  C   UNK N   1      21.066  15.744   3.173  0.00  0.00     0.018 A 
HETATM    9  C   UNK N   1      20.698  19.665   1.768  0.00  0.00     0.090 A 
HETATM   10  C   UNK N   1      19.746  16.292   0.763  0.00  0.00     0.054 A 
HETATM   11  C   UNK N   1      20.508  14.703   2.426  0.00  0.00     0.025 A 
HETATM   12  C   UNK N   1      19.851  14.977   1.223  0.00  0.00     0.036 A 
ENDROOT
BRANCH   4  13
HETATM   13  N   UNK N   1      22.084  17.912   4.713  0.00  0.00    -0.385 N 
HETATM   14  H   UNK N   1      21.560  17.994   5.542  0.00  0.00     0.160 HD
BRANCH  13  15
HETATM   15  C   UNK N   1      23.475  17.562   4.737  0.00  0.00     0.077 C 
HETATM   16  C   UNK N   1      23.791  16.326   5.561  0.00  0.00     0.032 C 
BRANCH  15  17
HETATM   17  C   UNK N   1      24.398  18.778   4.763  0.00  0.00     0.026 C 
BRANCH  17  18
HETATM   18  C   UNK N   1      25.320  18.903   3.567  0.00  0.00     0.032 C 
BRANCH  18  19
HETATM   19  C   UNK N   1      26.785  18.579   3.889  0.00  0.00     0.272 C 
BRANCH  19  20
HETATM   20  N   UNK N   1      27.172  19.056   5.224  0.00  0.00     0.087 N 
BRANCH  20  21
HETATM   21  C   UNK N   1      27.739  20.407   5.114  0.00  0.00     0.268 C 
HETATM   22  C   UNK N   1      27.214  21.302   6.220  0.00  0.00     0.037 C 
ENDBRANCH  20  21
BRANCH  20  23
HETATM   23  C   UNK N   1      28.103  18.060   5.776  0.00  0.00     0.268 C 
HETATM   24  C   UNK N   1      27.464  16.937   6.584  0.00  0.00     0.037 C 
ENDBRANCH  20  23
ENDBRANCH  19  20
ENDBRANCH  18  19
ENDBRANCH  17  18
ENDBRANCH  15  17
ENDBRANCH  13  15
ENDBRANCH   4  13
TORSDOF 8
ENDMDL
