MODEL 1
REMARK VINA RESULT:      -6.1      0.000      0.000
REMARK  6 active torsions:
REMARK  status: ('A' for Active; 'I' for Inactive)
REMARK       I    between atoms: C_2  and  N_4 
REMARK    1  A    between atoms: N_4  and  C_5 
REMARK    2  A    between atoms: C_8  and  C_16 
REMARK    3  A    between atoms: C_10  and  N_11 
REMARK       I    between atoms: N_11  and  C_12 
REMARK    4  A    between atoms: C_12  and  C_14 
REMARK    5  A    between atoms: C_14  and  N_15 
REMARK    6  A    between atoms: C_16  and  O_17 
ROOT
HETATM    1  C   UNK N   1      31.691  16.488   6.870  0.00  0.00     0.061 A 
HETATM    2  C   UNK N   1      30.603  16.721   6.011  0.00  0.00     0.033 A 
HETATM    3  C   UNK N   1      29.479  17.415   6.462  0.00  0.00     0.021 A 
HETATM    4  C   UNK N   1      29.422  17.888   7.779  0.00  0.00     0.040 A 
HETATM    5  C   UNK N   1      30.507  17.660   8.638  0.00  0.00     0.050 A 
HETATM    6  C   UNK N   1      31.642  16.965   8.189  0.00  0.00     0.062 A 
ENDROOT
BRANCH   6   7
HETATM    7  N   UNK N   1      32.767  16.724   9.034  0.00  0.00    -0.324 N 
HETATM    8  C   UNK N   1      33.156  15.532   9.555  0.00  0.00     0.247 C 
HETATM    9  O   UNK N   1      32.516  14.511   9.350  0.00  0.00    -0.271 OA
HETATM   10  H   UNK N   1      33.320  17.504   9.264  0.00  0.00     0.169 HD
BRANCH   8  11
HETATM   11  C   UNK N   1      34.372  15.506  10.433  0.00  0.00     0.332 C 
BRANCH  11  12
HETATM   12  N   UNK N   1      34.890  16.844  10.672  0.00  0.00    -0.071 N 
HETATM   13  H   UNK N   1      35.211  17.435   9.905  0.00  0.00     0.274 HD
HETATM   14  H   UNK N   1      34.933  17.200  11.627  0.00  0.00     0.274 HD
HETATM   15  H   UNK N   1      35.250  17.779  10.858  0.00  0.00     0.274 HD
ENDBRANCH  11  12
ENDBRANCH   8  11
ENDBRANCH   6   7
BRANCH   1  16
HETATM   16  N   UNK N   1      32.866  15.807   6.433  0.00  0.00    -0.326 N 
HETATM   17  C   UNK N   1      34.058  16.366   6.106  0.00  0.00     0.218 C 
HETATM   18  C   UNK N   1      35.192  15.483   5.718  0.00  0.00     0.117 C 
HETATM   19  O   UNK N   1      34.217  17.577   6.118  0.00  0.00    -0.274 OA
HETATM   20  H   UNK N   1      32.804  14.827   6.361  0.00  0.00     0.169 HD
ENDBRANCH   1  16
BRANCH   4  21
HETATM   21  C   UNK N   1      28.234  18.623   8.258  0.00  0.00     0.176 C 
HETATM   22  O   UNK N   1      27.820  19.595   7.643  0.00  0.00    -0.646 OA
BRANCH  21  23
HETATM   23  O   UNK N   1      27.599  18.229   9.379  0.00  0.00    -0.773 OA
HETATM   24  H   UNK N   1      28.070  17.782  10.055  0.00  0.00     0.167 HD
ENDBRANCH  21  23
ENDBRANCH   4  21
TORSDOF 6
ENDMDL
MODEL 2
REMARK VINA RESULT:      -6.0     13.648     15.769
REMARK  6 active torsions:
REMARK  status: ('A' for Active; 'I' for Inactive)
REMARK       I    between atoms: C_2  and  N_4 
REMARK    1  A    between atoms: N_4  and  C_5 
REMARK    2  A    between atoms: C_8  and  C_16 
REMARK    3  A    between atoms: C_10  and  N_11 
REMARK       I    between atoms: N_11  and  C_12 
REMARK    4  A    between atoms: C_12  and  C_14 
REMARK    5  A    between atoms: C_14  and  N_15 
REMARK    6  A    between atoms: C_16  and  O_17 
ROOT
HETATM    1  C   UNK N   1      28.396  23.378  -5.984  0.00  0.00     0.061 A 
HETATM    2  C   UNK N   1      29.153  22.194  -5.999  0.00  0.00     0.033 A 
HETATM    3  C   UNK N   1      29.945  21.846  -4.904  0.00  0.00     0.021 A 
HETATM    4  C   UNK N   1      29.996  22.674  -3.776  0.00  0.00     0.040 A 
HETATM    5  C   UNK N   1      29.240  23.855  -3.757  0.00  0.00     0.050 A 
HETATM    6  C   UNK N   1      28.437  24.210  -4.854  0.00  0.00     0.062 A 
ENDROOT
BRANCH   6   7
HETATM    7  N   UNK N   1      27.649  25.399  -4.865  0.00  0.00    -0.324 N 
HETATM    8  C   UNK N   1      26.593  25.686  -4.061  0.00  0.00     0.247 C 
HETATM    9  O   UNK N   1      26.193  24.885  -3.230  0.00  0.00    -0.271 OA
HETATM   10  H   UNK N   1      27.896  26.085  -5.525  0.00  0.00     0.169 HD
BRANCH   8  11
HETATM   11  C   UNK N   1      25.895  27.001  -4.251  0.00  0.00     0.332 C 
BRANCH  11  12
HETATM   12  N   UNK N   1      25.769  27.727  -2.997  0.00  0.00    -0.071 N 
HETATM   13  H   UNK N   1      25.802  28.746  -2.967  0.00  0.00     0.274 HD
HETATM   14  H   UNK N   1      25.645  27.206  -2.129  0.00  0.00     0.274 HD
HETATM   15  H   UNK N   1      25.680  28.219  -2.109  0.00  0.00     0.274 HD
ENDBRANCH  11  12
ENDBRANCH   8  11
ENDBRANCH   6   7
BRANCH   1  16
HETATM   16  N   UNK N   1      27.554  23.749  -7.075  0.00  0.00    -0.326 N 
HETATM   17  C   UNK N   1      26.206  23.609  -7.149  0.00  0.00     0.218 C 
HETATM   18  C   UNK N   1      25.491  24.105  -8.356  0.00  0.00     0.117 C 
HETATM   19  O   UNK N   1      25.572  23.080  -6.249  0.00  0.00    -0.274 OA
HETATM   20  H   UNK N   1      27.999  24.149  -7.857  0.00  0.00     0.169 HD
ENDBRANCH   1  16
BRANCH   4  21
HETATM   21  C   UNK N   1      30.834  22.308  -2.616  0.00  0.00     0.176 C 
HETATM   22  O   UNK N   1      30.747  22.934  -1.570  0.00  0.00    -0.646 OA
BRANCH  21  23
HETATM   23  O   UNK N   1      31.701  21.280  -2.703  0.00  0.00    -0.773 OA
HETATM   24  H   UNK N   1      31.482  20.521  -3.206  0.00  0.00     0.167 HD
ENDBRANCH  21  23
ENDBRANCH   4  21
TORSDOF 6
ENDMDL
MODEL 3
REMARK VINA RESULT:      -5.8      7.487     10.188
REMARK  6 active torsions:
REMARK  status: ('A' for Active; 'I' for Inactive)
REMARK       I    between atoms: C_2  and  N_4 
REMARK    1  A    between atoms: N_4  and  C_5 
REMARK    2  A    between atoms: C_8  and  C_16 
REMARK    3  A    between atoms: C_10  and  N_11 
REMARK       I    between atoms: N_11  and  C_12 
REMARK    4  A    between atoms: C_12  and  C_14 
REMARK    5  A    between atoms: C_14  and  N_15 
REMARK    6  A    between atoms: C_16  and  O_17 
ROOT
HETATM    1  C   UNK N   1      35.694  11.139  15.215  0.00  0.00     0.061 A 
HETATM    2  C   UNK N   1      35.190  10.688  16.447  0.00  0.00     0.033 A 
HETATM    3  C   UNK N   1      35.059  11.566  17.524  0.00  0.00     0.021 A 
HETATM    4  C   UNK N   1      35.430  12.909  17.389  0.00  0.00     0.040 A 
HETATM    5  C   UNK N   1      35.931  13.363  16.161  0.00  0.00     0.050 A 
HETATM    6  C   UNK N   1      36.062  12.486  15.072  0.00  0.00     0.062 A 
ENDROOT
BRANCH   6   7
HETATM    7  N   UNK N   1      36.560  12.917  13.806  0.00  0.00    -0.324 N 
HETATM    8  C   UNK N   1      35.850  13.493  12.803  0.00  0.00     0.247 C 
HETATM    9  O   UNK N   1      34.646  13.675  12.901  0.00  0.00    -0.271 OA
HETATM   10  H   UNK N   1      37.521  12.782  13.642  0.00  0.00     0.169 HD
BRANCH   8  11
HETATM   11  C   UNK N   1      36.577  13.861  11.542  0.00  0.00     0.332 C 
BRANCH  11  12
HETATM   12  N   UNK N   1      37.896  13.251  11.485  0.00  0.00    -0.071 N 
HETATM   13  H   UNK N   1      38.614  13.596  10.850  0.00  0.00     0.274 HD
HETATM   14  H   UNK N   1      38.107  12.460  12.095  0.00  0.00     0.274 HD
HETATM   15  H   UNK N   1      38.815  12.810  11.459  0.00  0.00     0.274 HD
ENDBRANCH  11  12
ENDBRANCH   8  11
ENDBRANCH   6   7
BRANCH   1  16
HETATM   16  N   UNK N   1      35.815  10.275  14.087  0.00  0.00    -0.326 N 
HETATM   17  C   UNK N   1      34.844   9.959  13.193  0.00  0.00     0.218 C 
HETATM   18  C   UNK N   1      35.175   9.073  12.044  0.00  0.00     0.117 C 
HETATM   19  O   UNK N   1      33.705  10.382  13.317  0.00  0.00    -0.274 OA
HETATM   20  H   UNK N   1      36.698   9.862  13.942  0.00  0.00     0.169 HD
ENDBRANCH   1  16
BRANCH   4  21
HETATM   21  C   UNK N   1      35.291  13.841  18.527  0.00  0.00     0.176 C 
HETATM   22  O   UNK N   1      35.532  15.030  18.384  0.00  0.00    -0.646 OA
BRANCH  21  23
HETATM   23  O   UNK N   1      34.899  13.385  19.733  0.00  0.00    -0.773 OA
HETATM   24  H   UNK N   1      34.586  13.982  20.384  0.00  0.00     0.167 HD
ENDBRANCH  21  23
ENDBRANCH   4  21
TORSDOF 6
ENDMDL
MODEL 4
REMARK VINA RESULT:      -5.8      6.232      9.305
REMARK  6 active torsions:
REMARK  status: ('A' for Active; 'I' for Inactive)
REMARK       I    between atoms: C_2  and  N_4 
REMARK    1  A    between atoms: N_4  and  C_5 
REMARK    2  A    between atoms: C_8  and  C_16 
REMARK    3  A    between atoms: C_10  and  N_11 
REMARK       I    between atoms: N_11  and  C_12 
REMARK    4  A    between atoms: C_12  and  C_14 
REMARK    5  A    between atoms: C_14  and  N_15 
REMARK    6  A    between atoms: C_16  and  O_17 
ROOT
HETATM    1  C   UNK N   1      37.190  12.175  13.639  0.00  0.00     0.061 A 
HETATM    2  C   UNK N   1      37.118  11.119  14.563  0.00  0.00     0.033 A 
HETATM    3  C   UNK N   1      36.481  11.296  15.793  0.00  0.00     0.021 A 
HETATM    4  C   UNK N   1      35.906  12.529  16.120  0.00  0.00     0.040 A 
HETATM    5  C   UNK N   1      35.973  13.584  15.200  0.00  0.00     0.050 A 
HETATM    6  C   UNK N   1      36.610  13.413  13.959  0.00  0.00     0.062 A 
ENDROOT
BRANCH   6   7
HETATM    7  N   UNK N   1      36.689  14.463  12.996  0.00  0.00    -0.324 N 
HETATM    8  C   UNK N   1      35.720  14.849  12.128  0.00  0.00     0.247 C 
HETATM    9  O   UNK N   1      34.643  14.273  12.082  0.00  0.00    -0.271 OA
HETATM   10  H   UNK N   1      37.537  14.960  12.956  0.00  0.00     0.169 HD
BRANCH   8  11
HETATM   11  C   UNK N   1      36.021  15.978  11.186  0.00  0.00     0.332 C 
BRANCH  11  12
HETATM   12  N   UNK N   1      34.834  16.768  10.898  0.00  0.00    -0.071 N 
HETATM   13  H   UNK N   1      34.864  17.556  10.253  0.00  0.00     0.274 HD
HETATM   14  H   UNK N   1      33.953  16.528  11.352  0.00  0.00     0.274 HD
HETATM   15  H   UNK N   1      33.992  17.310  10.709  0.00  0.00     0.274 HD
ENDBRANCH  11  12
ENDBRANCH   8  11
ENDBRANCH   6   7
BRANCH   1  16
HETATM   16  N   UNK N   1      37.809  12.022  12.363  0.00  0.00    -0.326 N 
HETATM   17  C   UNK N   1      37.240  11.523  11.236  0.00  0.00     0.218 C 
HETATM   18  C   UNK N   1      38.035  11.487   9.978  0.00  0.00     0.117 C 
HETATM   19  O   UNK N   1      36.095  11.099  11.235  0.00  0.00    -0.274 OA
HETATM   20  H   UNK N   1      38.749  12.306  12.294  0.00  0.00     0.169 HD
ENDBRANCH   1  16
BRANCH   4  21
HETATM   21  C   UNK N   1      35.230  12.717  17.421  0.00  0.00     0.176 C 
HETATM   22  O   UNK N   1      34.805  13.817  17.741  0.00  0.00    -0.646 OA
BRANCH  21  23
HETATM   23  O   UNK N   1      35.079  11.677  18.264  0.00  0.00    -0.773 OA
HETATM   24  H   UNK N   1      35.508  11.679  19.097  0.00  0.00     0.167 HD
ENDBRANCH  21  23
ENDBRANCH   4  21
TORSDOF 6
ENDMDL
MODEL 5
REMARK VINA RESULT:      -5.7     14.530     16.287
REMARK  6 active torsions:
REMARK  status: ('A' for Active; 'I' for Inactive)
REMARK       I    between atoms: C_2  and  N_4 
REMARK    1  A    between atoms: N_4  and  C_5 
REMARK    2  A    between atoms: C_8  and  C_16 
REMARK    3  A    between atoms: C_10  and  N_11 
REMARK       I    between atoms: N_11  and  C_12 
REMARK    4  A    between atoms: C_12  and  C_14 
REMARK    5  A    between atoms: C_14  and  N_15 
REMARK    6  A    between atoms: C_16  and  O_17 
ROOT
HETATM    1  C   UNK N   1      25.705  25.470  -5.063  0.00  0.00     0.061 A 
HETATM    2  C   UNK N   1      24.983  26.594  -5.498  0.00  0.00     0.033 A 
HETATM    3  C   UNK N   1      25.224  27.851  -4.940  0.00  0.00     0.021 A 
HETATM    4  C   UNK N   1      26.190  28.006  -3.939  0.00  0.00     0.040 A 
HETATM    5  C   UNK N   1      26.914  26.887  -3.504  0.00  0.00     0.050 A 
HETATM    6  C   UNK N   1      26.679  25.620  -4.063  0.00  0.00     0.062 A 
ENDROOT
BRANCH   6   7
HETATM    7  N   UNK N   1      27.404  24.462  -3.651  0.00  0.00    -0.324 N 
HETATM    8  C   UNK N   1      28.689  24.151  -3.958  0.00  0.00     0.247 C 
HETATM    9  O   UNK N   1      29.361  24.872  -4.681  0.00  0.00    -0.271 OA
HETATM   10  H   UNK N   1      26.921  23.820  -3.083  0.00  0.00     0.169 HD
BRANCH   8  11
HETATM   11  C   UNK N   1      29.254  22.868  -3.423  0.00  0.00     0.332 C 
BRANCH  11  12
HETATM   12  N   UNK N   1      29.656  22.998  -2.031  0.00  0.00    -0.071 N 
HETATM   13  H   UNK N   1      29.201  22.462  -1.294  0.00  0.00     0.274 HD
HETATM   14  H   UNK N   1      30.411  23.639  -1.788  0.00  0.00     0.274 HD
HETATM   15  H   UNK N   1      29.952  23.102  -1.061  0.00  0.00     0.274 HD
ENDBRANCH  11  12
ENDBRANCH   8  11
ENDBRANCH   6   7
BRANCH   1  16
HETATM   16  N   UNK N   1      25.504  24.177  -5.631  0.00  0.00    -0.326 N 
HETATM   17  C   UNK N   1      26.100  23.672  -6.741  0.00  0.00     0.218 C 
HETATM   18  C   UNK N   1      25.798  22.274  -7.154  0.00  0.00     0.117 C 
HETATM   19  O   UNK N   1      26.871  24.342  -7.409  0.00  0.00    -0.274 OA
HETATM   20  H   UNK N   1      24.863  23.589  -5.169  0.00  0.00     0.169 HD
ENDBRANCH   1  16
BRANCH   4  21
HETATM   21  C   UNK N   1      26.447  29.335  -3.348  0.00  0.00     0.176 C 
HETATM   22  O   UNK N   1      27.165  29.445  -2.365  0.00  0.00    -0.646 OA
BRANCH  21  23
HETATM   23  O   UNK N   1      25.890  30.437  -3.887  0.00  0.00    -0.773 OA
HETATM   24  H   UNK N   1      26.390  31.224  -3.974  0.00  0.00     0.167 HD
ENDBRANCH  21  23
ENDBRANCH   4  21
TORSDOF 6
ENDMDL
MODEL 6
REMARK VINA RESULT:      -5.6     10.673     12.015
REMARK  6 active torsions:
REMARK  status: ('A' for Active; 'I' for Inactive)
REMARK       I    between atoms: C_2  and  N_4 
REMARK    1  A    between atoms: N_4  and  C_5 
REMARK    2  A    between atoms: C_8  and  C_16 
REMARK    3  A    between atoms: C_10  and  N_11 
REMARK       I    between atoms: N_11  and  C_12 
REMARK    4  A    between atoms: C_12  and  C_14 
REMARK    5  A    between atoms: C_14  and  N_15 
REMARK    6  A    between atoms: C_16  and  O_17 
ROOT
HETATM    1  C   UNK N   1      21.215  14.094   7.433  0.00  0.00     0.061 A 
HETATM    2  C   UNK N   1      21.741  12.793   7.359  0.00  0.00     0.033 A 
HETATM    3  C   UNK N   1      22.126  12.117   8.518  0.00  0.00     0.021 A 
HETATM    4  C   UNK N   1      21.993  12.728   9.770  0.00  0.00     0.040 A 
HETATM    5  C   UNK N   1      21.466  14.025   9.848  0.00  0.00     0.050 A 
HETATM    6  C   UNK N   1      21.073  14.710   8.687  0.00  0.00     0.062 A 
ENDROOT
BRANCH   6   7
HETATM    7  N   UNK N   1      20.525  16.027   8.731  0.00  0.00    -0.324 N 
HETATM    8  C   UNK N   1      19.261  16.374   9.085  0.00  0.00     0.247 C 
HETATM    9  O   UNK N   1      18.432  15.528   9.387  0.00  0.00    -0.271 OA
HETATM   10  H   UNK N   1      21.127  16.762   8.478  0.00  0.00     0.169 HD
BRANCH   8  11
HETATM   11  C   UNK N   1      18.890  17.827   9.051  0.00  0.00     0.332 C 
BRANCH  11  12
HETATM   12  N   UNK N   1      17.628  18.075   9.730  0.00  0.00    -0.071 N 
HETATM   13  H   UNK N   1      16.762  18.212   9.210  0.00  0.00     0.274 HD
HETATM   14  H   UNK N   1      17.609  18.112  10.749  0.00  0.00     0.274 HD
HETATM   15  H   UNK N   1      16.753  18.248  10.223  0.00  0.00     0.274 HD
ENDBRANCH  11  12
ENDBRANCH   8  11
ENDBRANCH   6   7
BRANCH   1  16
HETATM   16  N   UNK N   1      20.785  14.802   6.272  0.00  0.00    -0.326 N 
HETATM   17  C   UNK N   1      21.558  15.538   5.433  0.00  0.00     0.218 C 
HETATM   18  C   UNK N   1      20.935  16.167   4.237  0.00  0.00     0.117 C 
HETATM   19  O   UNK N   1      22.750  15.698   5.644  0.00  0.00    -0.274 OA
HETATM   20  H   UNK N   1      19.825  14.753   6.057  0.00  0.00     0.169 HD
ENDBRANCH   1  16
BRANCH   4  21
HETATM   21  C   UNK N   1      22.399  12.014  10.998  0.00  0.00     0.176 C 
HETATM   22  O   UNK N   1      23.567  11.698  11.170  0.00  0.00    -0.646 OA
BRANCH  21  23
HETATM   23  O   UNK N   1      21.484  11.704  11.937  0.00  0.00    -0.773 OA
HETATM   24  H   UNK N   1      21.253  10.810  12.093  0.00  0.00     0.167 HD
ENDBRANCH  21  23
ENDBRANCH   4  21
TORSDOF 6
ENDMDL
MODEL 7
REMARK VINA RESULT:      -5.6      1.950      3.841
REMARK  6 active torsions:
REMARK  status: ('A' for Active; 'I' for Inactive)
REMARK       I    between atoms: C_2  and  N_4 
REMARK    1  A    between atoms: N_4  and  C_5 
REMARK    2  A    between atoms: C_8  and  C_16 
REMARK    3  A    between atoms: C_10  and  N_11 
REMARK       I    between atoms: N_11  and  C_12 
REMARK    4  A    between atoms: C_12  and  C_14 
REMARK    5  A    between atoms: C_14  and  N_15 
REMARK    6  A    between atoms: C_16  and  O_17 
ROOT
HETATM    1  C   UNK N   1      31.848  16.635   7.386  0.00  0.00     0.061 A 
HETATM    2  C   UNK N   1      31.763  17.484   8.503  0.00  0.00     0.033 A 
HETATM    3  C   UNK N   1      30.578  18.165   8.787  0.00  0.00     0.021 A 
HETATM    4  C   UNK N   1      29.459  18.011   7.960  0.00  0.00     0.040 A 
HETATM    5  C   UNK N   1      29.540  17.163   6.847  0.00  0.00     0.050 A 
HETATM    6  C   UNK N   1      30.727  16.471   6.557  0.00  0.00     0.062 A 
ENDROOT
BRANCH   6   7
HETATM    7  N   UNK N   1      30.841  15.594   5.437  0.00  0.00    -0.324 N 
HETATM    8  C   UNK N   1      31.212  15.925   4.175  0.00  0.00     0.247 C 
HETATM    9  O   UNK N   1      31.467  17.081   3.871  0.00  0.00    -0.271 OA
HETATM   10  H   UNK N   1      30.628  14.646   5.598  0.00  0.00     0.169 HD
BRANCH   8  11
HETATM   11  C   UNK N   1      31.255  14.838   3.141  0.00  0.00     0.332 C 
BRANCH  11  12
HETATM   12  N   UNK N   1      30.004  14.097   3.089  0.00  0.00    -0.071 N 
HETATM   13  H   UNK N   1      29.573  13.722   3.933  0.00  0.00     0.274 HD
HETATM   14  H   UNK N   1      29.549  13.949   2.188  0.00  0.00     0.274 HD
HETATM   15  H   UNK N   1      29.128  13.580   3.033  0.00  0.00     0.274 HD
ENDBRANCH  11  12
ENDBRANCH   8  11
ENDBRANCH   6   7
BRANCH   1  16
HETATM   16  N   UNK N   1      33.034  15.902   7.083  0.00  0.00    -0.326 N 
HETATM   17  C   UNK N   1      34.147  16.372   6.465  0.00  0.00     0.218 C 
HETATM   18  C   UNK N   1      35.312  15.464   6.279  0.00  0.00     0.117 C 
HETATM   19  O   UNK N   1      34.209  17.520   6.053  0.00  0.00    -0.274 OA
HETATM   20  H   UNK N   1      33.045  14.954   7.350  0.00  0.00     0.169 HD
ENDBRANCH   1  16
BRANCH   4  21
HETATM   21  C   UNK N   1      28.204  18.731   8.259  0.00  0.00     0.176 C 
HETATM   22  O   UNK N   1      27.838  19.654   7.548  0.00  0.00    -0.646 OA
BRANCH  21  23
HETATM   23  O   UNK N   1      27.454  18.374   9.320  0.00  0.00    -0.773 OA
HETATM   24  H   UNK N   1      27.820  17.840   9.998  0.00  0.00     0.167 HD
ENDBRANCH  21  23
ENDBRANCH   4  21
TORSDOF 6
ENDMDL
MODEL 8
REMARK VINA RESULT:      -5.5      3.083      5.490
REMARK  6 active torsions:
REMARK  status: ('A' for Active; 'I' for Inactive)
REMARK       I    between atoms: C_2  and  N_4 
REMARK    1  A    between atoms: N_4  and  C_5 
REMARK    2  A    between atoms: C_8  and  C_16 
REMARK    3  A    between atoms: C_10  and  N_11 
REMARK       I    between atoms: N_11  and  C_12 
REMARK    4  A    between atoms: C_12  and  C_14 
REMARK    5  A    between atoms: C_14  and  N_15 
REMARK    6  A    between atoms: C_16  and  O_17 
ROOT
HETATM    1  C   UNK N   1      31.440  16.484   6.606  0.00  0.00     0.061 A 
HETATM    2  C   UNK N   1      31.231  17.355   7.689  0.00  0.00     0.033 A 
HETATM    3  C   UNK N   1      32.315  17.901   8.379  0.00  0.00     0.021 A 
HETATM    4  C   UNK N   1      33.625  17.586   8.001  0.00  0.00     0.040 A 
HETATM    5  C   UNK N   1      33.837  16.719   6.920  0.00  0.00     0.050 A 
HETATM    6  C   UNK N   1      32.752  16.169   6.218  0.00  0.00     0.062 A 
ENDROOT
BRANCH   6   7
HETATM    7  N   UNK N   1      32.932  15.291   5.108  0.00  0.00    -0.324 N 
HETATM    8  C   UNK N   1      33.115  15.643   3.810  0.00  0.00     0.247 C 
HETATM    9  O   UNK N   1      33.112  16.815   3.464  0.00  0.00    -0.271 OA
HETATM   10  H   UNK N   1      32.923  14.327   5.304  0.00  0.00     0.169 HD
BRANCH   8  11
HETATM   11  C   UNK N   1      33.275  14.549   2.795  0.00  0.00     0.332 C 
BRANCH  11  12
HETATM   12  N   UNK N   1      34.307  14.867   1.821  0.00  0.00    -0.071 N 
HETATM   13  H   UNK N   1      35.105  14.250   1.670  0.00  0.00     0.274 HD
HETATM   14  H   UNK N   1      34.232  15.727   1.277  0.00  0.00     0.274 HD
HETATM   15  H   UNK N   1      35.021  15.107   1.134  0.00  0.00     0.274 HD
ENDBRANCH  11  12
ENDBRANCH   8  11
ENDBRANCH   6   7
BRANCH   1  16
HETATM   16  N   UNK N   1      30.356  15.931   5.862  0.00  0.00    -0.326 N 
HETATM   17  C   UNK N   1      29.646  16.542   4.880  0.00  0.00     0.218 C 
HETATM   18  C   UNK N   1      28.576  15.781   4.179  0.00  0.00     0.117 C 
HETATM   19  O   UNK N   1      29.862  17.702   4.566  0.00  0.00    -0.274 OA
HETATM   20  H   UNK N   1      30.096  15.008   6.085  0.00  0.00     0.169 HD
ENDBRANCH   1  16
BRANCH   4  21
HETATM   21  C   UNK N   1      34.773  18.163   8.730  0.00  0.00     0.176 C 
HETATM   22  O   UNK N   1      35.243  19.237   8.388  0.00  0.00    -0.646 OA
BRANCH  21  23
HETATM   23  O   UNK N   1      35.311  17.507   9.776  0.00  0.00    -0.773 OA
HETATM   24  H   UNK N   1      35.381  17.927  10.611  0.00  0.00     0.167 HD
ENDBRANCH  21  23
ENDBRANCH   4  21
TORSDOF 6
ENDMDL
MODEL 9
REMARK VINA RESULT:      -5.5      1.927      2.284
REMARK  6 active torsions:
REMARK  status: ('A' for Active; 'I' for Inactive)
REMARK       I    between atoms: C_2  and  N_4 
REMARK    1  A    between atoms: N_4  and  C_5 
REMARK    2  A    between atoms: C_8  and  C_16 
REMARK    3  A    between atoms: C_10  and  N_11 
REMARK       I    between atoms: N_11  and  C_12 
REMARK    4  A    between atoms: C_12  and  C_14 
REMARK    5  A    between atoms: C_14  and  N_15 
REMARK    6  A    between atoms: C_16  and  O_17 
ROOT
HETATM    1  C   UNK N   1      30.855  16.740   5.861  0.00  0.00     0.061 A 
HETATM    2  C   UNK N   1      29.593  17.346   5.740  0.00  0.00     0.033 A 
HETATM    3  C   UNK N   1      28.941  17.857   6.863  0.00  0.00     0.021 A 
HETATM    4  C   UNK N   1      29.538  17.772   8.126  0.00  0.00     0.040 A 
HETATM    5  C   UNK N   1      30.798  17.171   8.251  0.00  0.00     0.050 A 
HETATM    6  C   UNK N   1      31.462  16.657   7.124  0.00  0.00     0.062 A 
ENDROOT
BRANCH   6   7
HETATM    7  N   UNK N   1      32.749  16.047   7.214  0.00  0.00    -0.324 N 
HETATM    8  C   UNK N   1      33.026  14.719   7.188  0.00  0.00     0.247 C 
HETATM    9  O   UNK N   1      32.135  13.886   7.108  0.00  0.00    -0.271 OA
HETATM   10  H   UNK N   1      33.518  16.654   7.304  0.00  0.00     0.169 HD
BRANCH   8  11
HETATM   11  C   UNK N   1      34.460  14.292   7.308  0.00  0.00     0.332 C 
BRANCH  11  12
HETATM   12  N   UNK N   1      35.300  14.948   6.318  0.00  0.00    -0.071 N 
HETATM   13  H   UNK N   1      35.517  14.504   5.427  0.00  0.00     0.274 HD
HETATM   14  H   UNK N   1      35.679  15.874   6.520  0.00  0.00     0.274 HD
HETATM   15  H   UNK N   1      35.890  15.423   5.637  0.00  0.00     0.274 HD
ENDBRANCH  11  12
ENDBRANCH   8  11
ENDBRANCH   6   7
BRANCH   1  16
HETATM   16  N   UNK N   1      31.561  16.232   4.730  0.00  0.00    -0.326 N 
HETATM   17  C   UNK N   1      32.629  16.799   4.114  0.00  0.00     0.218 C 
HETATM   18  C   UNK N   1      33.267  16.090   2.971  0.00  0.00     0.117 C 
HETATM   19  O   UNK N   1      33.071  17.879   4.473  0.00  0.00    -0.274 OA
HETATM   20  H   UNK N   1      31.238  15.380   4.357  0.00  0.00     0.169 HD
ENDBRANCH   1  16
BRANCH   4  21
HETATM   21  C   UNK N   1      28.850  18.314   9.316  0.00  0.00     0.176 C 
HETATM   22  O   UNK N   1      29.496  18.781  10.242  0.00  0.00    -0.646 OA
BRANCH  21  23
HETATM   23  O   UNK N   1      27.505  18.294   9.389  0.00  0.00    -0.773 OA
HETATM   24  H   UNK N   1      27.011  17.714   8.844  0.00  0.00     0.167 HD
ENDBRANCH  21  23
ENDBRANCH   4  21
TORSDOF 6
ENDMDL
