MODEL 1
REMARK VINA RESULT:      -5.1      0.000      0.000
REMARK  11 active torsions:
REMARK  status: ('A' for Active; 'I' for Inactive)
REMARK    1  A    between atoms: C_3  and  C_2 
REMARK    2  A    between atoms: C_5  and  C_2 
REMARK    3  A    between atoms: O_13  and  C_3 
REMARK    4  A    between atoms: C_5  and  C_4 
REMARK    5  A    between atoms: C_5  and  O_7 
REMARK    6  A    between atoms: P_15  and  O_8 
REMARK    7  A    between atoms: P_15  and  O_9 
REMARK    8  A    between atoms: P_16  and  O_11 
REMARK    9  A    between atoms: P_16  and  O_13 
REMARK   10  A    between atoms: P_15  and  O_14 
REMARK   11  A    between atoms: P_16  and  O_14 
ROOT
HETATM    1  O   UNK N   1      34.494  17.737   6.524  0.00  0.00    -0.631 OA
HETATM    2  P   UNK N   1      34.223  17.969   8.034  0.00  0.00     0.401 P 
ENDROOT
BRANCH   2   3
HETATM    3  O   UNK N   1      35.297  19.231   8.565  0.00  0.00    -0.307 OA
HETATM    4  H   UNK N   1      35.160  19.656   9.426  0.00  0.00     0.222 HD
ENDBRANCH   2   3
BRANCH   2   5
HETATM    5  O   UNK N   1      34.565  16.444   8.800  0.00  0.00    -0.297 OA
BRANCH   5   6
HETATM    6  C   UNK N   1      35.085  16.748  10.057  0.00  0.00     0.183 C 
BRANCH   6   7
HETATM    7  C   UNK N   1      35.808  15.535  10.638  0.00  0.00     0.065 C 
BRANCH   7   8
HETATM    8  C   UNK N   1      34.870  14.456  11.193  0.00  0.00     0.065 C 
HETATM    9  C   UNK N   1      35.327  14.001  12.567  0.00  0.00     0.046 C 
BRANCH   8  10
HETATM   10  C   UNK N   1      34.892  13.240  10.276  0.00  0.00     0.122 C 
HETATM   11 Br   UNK N   1      35.676  11.675  11.123  0.00  0.00    -0.093 Br
ENDBRANCH   8  10
BRANCH   8  12
HETATM   12  O   UNK N   1      33.567  14.948  11.282  0.00  0.00    -0.389 OA
HETATM   13  H   UNK N   1      33.025  14.859  12.082  0.00  0.00     0.210 HD
ENDBRANCH   8  12
ENDBRANCH   7   8
ENDBRANCH   6   7
ENDBRANCH   5   6
ENDBRANCH   2   5
BRANCH   2  14
HETATM   14  O   UNK N   1      32.534  18.362   8.274  0.00  0.00    -0.195 OA
BRANCH  14  15
HETATM   15  P   UNK N   1      31.588  16.900   8.149  0.00  0.00     0.399 P 
HETATM   16  O   UNK N   1      30.128  17.269   7.772  0.00  0.00    -0.631 OA
BRANCH  15  17
HETATM   17  O   UNK N   1      32.182  15.928   6.841  0.00  0.00    -0.307 OA
HETATM   18  H   UNK N   1      32.276  14.964   6.774  0.00  0.00     0.222 HD
ENDBRANCH  15  17
BRANCH  15  19
HETATM   19  O   UNK N   1      31.557  15.979   9.620  0.00  0.00    -0.307 OA
HETATM   20  H   UNK N   1      32.347  15.854  10.169  0.00  0.00     0.222 HD
ENDBRANCH  15  19
ENDBRANCH  14  15
ENDBRANCH   2  14
TORSDOF 11
ENDMDL
MODEL 2
REMARK VINA RESULT:      -4.9      1.929      3.420
REMARK  11 active torsions:
REMARK  status: ('A' for Active; 'I' for Inactive)
REMARK    1  A    between atoms: C_3  and  C_2 
REMARK    2  A    between atoms: C_5  and  C_2 
REMARK    3  A    between atoms: O_13  and  C_3 
REMARK    4  A    between atoms: C_5  and  C_4 
REMARK    5  A    between atoms: C_5  and  O_7 
REMARK    6  A    between atoms: P_15  and  O_8 
REMARK    7  A    between atoms: P_15  and  O_9 
REMARK    8  A    between atoms: P_16  and  O_11 
REMARK    9  A    between atoms: P_16  and  O_13 
REMARK   10  A    between atoms: P_15  and  O_14 
REMARK   11  A    between atoms: P_16  and  O_14 
ROOT
HETATM    1  O   UNK N   1      35.282  17.422  10.749  0.00  0.00    -0.631 OA
HETATM    2  P   UNK N   1      35.070  16.047  10.064  0.00  0.00     0.401 P 
ENDROOT
BRANCH   2   3
HETATM    3  O   UNK N   1      33.555  15.411  10.636  0.00  0.00    -0.307 OA
HETATM    4  H   UNK N   1      33.419  15.256  11.583  0.00  0.00     0.222 HD
ENDBRANCH   2   3
BRANCH   2   5
HETATM    5  O   UNK N   1      36.425  15.074  10.562  0.00  0.00    -0.297 OA
BRANCH   5   6
HETATM    6  C   UNK N   1      35.973  13.756  10.579  0.00  0.00     0.183 C 
BRANCH   6   7
HETATM    7  C   UNK N   1      36.578  13.003  11.761  0.00  0.00     0.065 C 
BRANCH   7   8
HETATM    8  C   UNK N   1      35.765  13.117  13.056  0.00  0.00     0.065 C 
HETATM    9  C   UNK N   1      36.368  14.162  13.979  0.00  0.00     0.046 C 
BRANCH   8  10
HETATM   10  C   UNK N   1      35.790  11.784  13.793  0.00  0.00     0.122 C 
HETATM   11 Br   UNK N   1      34.087  10.848  13.711  0.00  0.00    -0.093 Br
ENDBRANCH   8  10
BRANCH   8  12
HETATM   12  O   UNK N   1      34.445  13.466  12.769  0.00  0.00    -0.389 OA
HETATM   13  H   UNK N   1      33.696  13.190  13.320  0.00  0.00     0.210 HD
ENDBRANCH   8  12
ENDBRANCH   7   8
ENDBRANCH   6   7
ENDBRANCH   5   6
ENDBRANCH   2   5
BRANCH   2  14
HETATM   14  O   UNK N   1      35.117  16.244   8.326  0.00  0.00    -0.195 OA
BRANCH  14  15
HETATM   15  P   UNK N   1      34.311  17.733   7.901  0.00  0.00     0.399 P 
HETATM   16  O   UNK N   1      32.927  17.780   8.601  0.00  0.00    -0.631 OA
BRANCH  15  17
HETATM   17  O   UNK N   1      35.205  19.081   8.528  0.00  0.00    -0.307 OA
HETATM   18  H   UNK N   1      34.944  19.753   9.178  0.00  0.00     0.222 HD
ENDBRANCH  15  17
BRANCH  15  19
HETATM   19  O   UNK N   1      34.067  17.913   6.192  0.00  0.00    -0.307 OA
HETATM   20  H   UNK N   1      33.322  18.415   5.826  0.00  0.00     0.222 HD
ENDBRANCH  15  19
ENDBRANCH  14  15
ENDBRANCH   2  14
TORSDOF 11
ENDMDL
MODEL 3
REMARK VINA RESULT:      -4.8      3.802      5.706
REMARK  11 active torsions:
REMARK  status: ('A' for Active; 'I' for Inactive)
REMARK    1  A    between atoms: C_3  and  C_2 
REMARK    2  A    between atoms: C_5  and  C_2 
REMARK    3  A    between atoms: O_13  and  C_3 
REMARK    4  A    between atoms: C_5  and  C_4 
REMARK    5  A    between atoms: C_5  and  O_7 
REMARK    6  A    between atoms: P_15  and  O_8 
REMARK    7  A    between atoms: P_15  and  O_9 
REMARK    8  A    between atoms: P_16  and  O_11 
REMARK    9  A    between atoms: P_16  and  O_13 
REMARK   10  A    between atoms: P_15  and  O_14 
REMARK   11  A    between atoms: P_16  and  O_14 
ROOT
HETATM    1  O   UNK N   1      34.684  12.148  12.608  0.00  0.00    -0.631 OA
HETATM    2  P   UNK N   1      35.586  13.229  11.956  0.00  0.00     0.401 P 
ENDROOT
BRANCH   2   3
HETATM    3  O   UNK N   1      36.188  12.569  10.463  0.00  0.00    -0.307 OA
HETATM    4  H   UNK N   1      36.422  13.159   9.729  0.00  0.00     0.222 HD
ENDBRANCH   2   3
BRANCH   2   5
HETATM    5  O   UNK N   1      36.856  13.521  13.110  0.00  0.00    -0.297 OA
BRANCH   5   6
HETATM    6  C   UNK N   1      36.291  14.293  14.123  0.00  0.00     0.183 C 
BRANCH   6   7
HETATM    7  C   UNK N   1      36.646  13.714  15.491  0.00  0.00     0.065 C 
BRANCH   7   8
HETATM    8  C   UNK N   1      35.480  13.008  16.192  0.00  0.00     0.065 C 
HETATM    9  C   UNK N   1      35.197  13.648  17.541  0.00  0.00     0.046 C 
BRANCH   8  10
HETATM   10  C   UNK N   1      35.842  11.550  16.443  0.00  0.00     0.122 C 
HETATM   11 Br   UNK N   1      34.567  10.313  15.652  0.00  0.00    -0.093 Br
ENDBRANCH   8  10
BRANCH   8  12
HETATM   12  O   UNK N   1      34.330  13.074  15.404  0.00  0.00    -0.389 OA
HETATM   13  H   UNK N   1      34.169  12.474  14.659  0.00  0.00     0.210 HD
ENDBRANCH   8  12
ENDBRANCH   7   8
ENDBRANCH   6   7
ENDBRANCH   5   6
ENDBRANCH   2   5
BRANCH   2  14
HETATM   14  O   UNK N   1      34.668  14.702  11.732  0.00  0.00    -0.195 OA
BRANCH  14  15
HETATM   15  P   UNK N   1      35.497  15.718  10.579  0.00  0.00     0.399 P 
HETATM   16  O   UNK N   1      35.156  15.241   9.142  0.00  0.00    -0.631 OA
BRANCH  15  17
HETATM   17  O   UNK N   1      34.896  17.342  10.693  0.00  0.00    -0.307 OA
HETATM   18  H   UNK N   1      35.220  18.156  10.276  0.00  0.00     0.222 HD
ENDBRANCH  15  17
BRANCH  15  19
HETATM   19  O   UNK N   1      37.222  15.699  10.767  0.00  0.00    -0.307 OA
HETATM   20  H   UNK N   1      37.650  15.399  11.585  0.00  0.00     0.222 HD
ENDBRANCH  15  19
ENDBRANCH  14  15
ENDBRANCH   2  14
TORSDOF 11
ENDMDL
MODEL 4
REMARK VINA RESULT:      -4.6      3.975      5.873
REMARK  11 active torsions:
REMARK  status: ('A' for Active; 'I' for Inactive)
REMARK    1  A    between atoms: C_3  and  C_2 
REMARK    2  A    between atoms: C_5  and  C_2 
REMARK    3  A    between atoms: O_13  and  C_3 
REMARK    4  A    between atoms: C_5  and  C_4 
REMARK    5  A    between atoms: C_5  and  O_7 
REMARK    6  A    between atoms: P_15  and  O_8 
REMARK    7  A    between atoms: P_15  and  O_9 
REMARK    8  A    between atoms: P_16  and  O_11 
REMARK    9  A    between atoms: P_16  and  O_13 
REMARK   10  A    between atoms: P_15  and  O_14 
REMARK   11  A    between atoms: P_16  and  O_14 
ROOT
HETATM    1  O   UNK N   1      35.280  17.224  11.179  0.00  0.00    -0.631 OA
HETATM    2  P   UNK N   1      35.635  15.879  10.492  0.00  0.00     0.401 P 
ENDROOT
BRANCH   2   3
HETATM    3  O   UNK N   1      37.358  15.670  10.621  0.00  0.00    -0.307 OA
HETATM    4  H   UNK N   1      37.957  16.255  10.132  0.00  0.00     0.222 HD
ENDBRANCH   2   3
BRANCH   2   5
HETATM    5  O   UNK N   1      35.113  16.056   8.841  0.00  0.00    -0.297 OA
BRANCH   5   6
HETATM    6  C   UNK N   1      34.061  16.971   8.862  0.00  0.00     0.183 C 
BRANCH   6   7
HETATM    7  C   UNK N   1      33.981  17.717   7.532  0.00  0.00     0.065 C 
BRANCH   7   8
HETATM    8  C   UNK N   1      33.760  16.805   6.318  0.00  0.00     0.065 C 
HETATM    9  C   UNK N   1      33.310  17.614   5.114  0.00  0.00     0.046 C 
BRANCH   8  10
HETATM   10  C   UNK N   1      32.661  15.797   6.631  0.00  0.00     0.122 C 
HETATM   11 Br   UNK N   1      30.905  16.620   6.771  0.00  0.00    -0.093 Br
ENDBRANCH   8  10
BRANCH   8  12
HETATM   12  O   UNK N   1      34.938  16.128   6.002  0.00  0.00    -0.389 OA
HETATM   13  H   UNK N   1      35.257  15.364   6.507  0.00  0.00     0.210 HD
ENDBRANCH   8  12
ENDBRANCH   7   8
ENDBRANCH   6   7
ENDBRANCH   5   6
ENDBRANCH   2   5
BRANCH   2  14
HETATM   14  O   UNK N   1      34.731  14.582  11.241  0.00  0.00    -0.195 OA
BRANCH  14  15
HETATM   15  P   UNK N   1      35.644  13.957  12.591  0.00  0.00     0.399 P 
HETATM   16  O   UNK N   1      36.741  12.995  12.063  0.00  0.00    -0.631 OA
BRANCH  15  17
HETATM   17  O   UNK N   1      36.490  15.254  13.374  0.00  0.00    -0.307 OA
HETATM   18  H   UNK N   1      36.453  15.555  14.296  0.00  0.00     0.222 HD
ENDBRANCH  15  17
BRANCH  15  19
HETATM   19  O   UNK N   1      34.666  13.096  13.738  0.00  0.00    -0.307 OA
HETATM   20  H   UNK N   1      33.714  12.964  13.609  0.00  0.00     0.222 HD
ENDBRANCH  15  19
ENDBRANCH  14  15
ENDBRANCH   2  14
TORSDOF 11
ENDMDL
MODEL 5
REMARK VINA RESULT:      -4.6      4.139      5.355
REMARK  11 active torsions:
REMARK  status: ('A' for Active; 'I' for Inactive)
REMARK    1  A    between atoms: C_3  and  C_2 
REMARK    2  A    between atoms: C_5  and  C_2 
REMARK    3  A    between atoms: O_13  and  C_3 
REMARK    4  A    between atoms: C_5  and  C_4 
REMARK    5  A    between atoms: C_5  and  O_7 
REMARK    6  A    between atoms: P_15  and  O_8 
REMARK    7  A    between atoms: P_15  and  O_9 
REMARK    8  A    between atoms: P_16  and  O_11 
REMARK    9  A    between atoms: P_16  and  O_13 
REMARK   10  A    between atoms: P_15  and  O_14 
REMARK   11  A    between atoms: P_16  and  O_14 
ROOT
HETATM    1  O   UNK N   1      32.871  17.882   8.509  0.00  0.00    -0.631 OA
HETATM    2  P   UNK N   1      34.277  17.796   7.860  0.00  0.00     0.401 P 
ENDROOT
BRANCH   2   3
HETATM    3  O   UNK N   1      35.220  19.116   8.488  0.00  0.00    -0.307 OA
HETATM    4  H   UNK N   1      35.803  18.979   9.251  0.00  0.00     0.222 HD
ENDBRANCH   2   3
BRANCH   2   5
HETATM    5  O   UNK N   1      33.999  17.938   6.147  0.00  0.00    -0.297 OA
BRANCH   5   6
HETATM    6  C   UNK N   1      33.946  16.637   5.652  0.00  0.00     0.183 C 
BRANCH   6   7
HETATM    7  C   UNK N   1      32.711  16.454   4.773  0.00  0.00     0.065 C 
BRANCH   7   8
HETATM    8  C   UNK N   1      31.422  16.177   5.557  0.00  0.00     0.065 C 
HETATM    9  C   UNK N   1      31.634  15.057   6.561  0.00  0.00     0.046 C 
BRANCH   8  10
HETATM   10  C   UNK N   1      30.327  15.731   4.597  0.00  0.00     0.122 C 
HETATM   11 Br   UNK N   1      29.891  13.845   4.777  0.00  0.00    -0.093 Br
ENDBRANCH   8  10
BRANCH   8  12
HETATM   12  O   UNK N   1      31.011  17.326   6.232  0.00  0.00    -0.389 OA
HETATM   13  H   UNK N   1      30.595  17.301   7.108  0.00  0.00     0.210 HD
ENDBRANCH   8  12
ENDBRANCH   7   8
ENDBRANCH   6   7
ENDBRANCH   5   6
ENDBRANCH   2   5
BRANCH   2  14
HETATM   14  O   UNK N   1      34.984  16.231   8.195  0.00  0.00    -0.195 OA
BRANCH  14  15
HETATM   15  P   UNK N   1      35.116  16.025   9.924  0.00  0.00     0.399 P 
HETATM   16  O   UNK N   1      35.548  17.371  10.565  0.00  0.00    -0.631 OA
BRANCH  15  17
HETATM   17  O   UNK N   1      33.555  15.664  10.590  0.00  0.00    -0.307 OA
HETATM   18  H   UNK N   1      32.943  14.939  10.385  0.00  0.00     0.222 HD
ENDBRANCH  15  17
BRANCH  15  19
HETATM   19  O   UNK N   1      36.264  14.806  10.381  0.00  0.00    -0.307 OA
HETATM   20  H   UNK N   1      36.665  14.779  11.263  0.00  0.00     0.222 HD
ENDBRANCH  15  19
ENDBRANCH  14  15
ENDBRANCH   2  14
TORSDOF 11
ENDMDL
MODEL 6
REMARK VINA RESULT:      -4.6     15.571     17.039
REMARK  11 active torsions:
REMARK  status: ('A' for Active; 'I' for Inactive)
REMARK    1  A    between atoms: C_3  and  C_2 
REMARK    2  A    between atoms: C_5  and  C_2 
REMARK    3  A    between atoms: O_13  and  C_3 
REMARK    4  A    between atoms: C_5  and  C_4 
REMARK    5  A    between atoms: C_5  and  O_7 
REMARK    6  A    between atoms: P_15  and  O_8 
REMARK    7  A    between atoms: P_15  and  O_9 
REMARK    8  A    between atoms: P_16  and  O_11 
REMARK    9  A    between atoms: P_16  and  O_13 
REMARK   10  A    between atoms: P_15  and  O_14 
REMARK   11  A    between atoms: P_16  and  O_14 
ROOT
HETATM    1  O   UNK N   1      30.550  23.112  -1.690  0.00  0.00    -0.631 OA
HETATM    2  P   UNK N   1      30.652  23.688  -3.127  0.00  0.00     0.401 P 
ENDROOT
BRANCH   2   3
HETATM    3  O   UNK N   1      30.732  25.420  -2.987  0.00  0.00    -0.307 OA
HETATM    4  H   UNK N   1      30.018  25.971  -3.344  0.00  0.00     0.222 HD
ENDBRANCH   2   3
BRANCH   2   5
HETATM    5  O   UNK N   1      29.204  23.156  -3.936  0.00  0.00    -0.297 OA
BRANCH   5   6
HETATM    6  C   UNK N   1      28.716  24.264  -4.626  0.00  0.00     0.183 C 
BRANCH   6   7
HETATM    7  C   UNK N   1      27.509  24.852  -3.898  0.00  0.00     0.065 C 
BRANCH   7   8
HETATM    8  C   UNK N   1      27.321  26.358  -4.118  0.00  0.00     0.065 C 
HETATM    9  C   UNK N   1      26.249  26.906  -3.192  0.00  0.00     0.046 C 
BRANCH   8  10
HETATM   10  C   UNK N   1      26.865  26.612  -5.549  0.00  0.00     0.122 C 
HETATM   11 Br   UNK N   1      24.969  27.026  -5.671  0.00  0.00    -0.093 Br
ENDBRANCH   8  10
BRANCH   8  12
HETATM   12  O   UNK N   1      28.519  27.034  -3.883  0.00  0.00    -0.389 OA
HETATM   13  H   UNK N   1      28.629  27.674  -3.162  0.00  0.00     0.210 HD
ENDBRANCH   8  12
ENDBRANCH   7   8
ENDBRANCH   6   7
ENDBRANCH   5   6
ENDBRANCH   2   5
BRANCH   2  14
HETATM   14  O   UNK N   1      32.042  23.001  -3.938  0.00  0.00    -0.195 OA
BRANCH  14  15
HETATM   15  P   UNK N   1      32.171  21.313  -3.514  0.00  0.00     0.399 P 
HETATM   16  O   UNK N   1      33.121  20.607  -4.519  0.00  0.00    -0.631 OA
BRANCH  15  17
HETATM   17  O   UNK N   1      32.926  21.156  -1.960  0.00  0.00    -0.307 OA
HETATM   18  H   UNK N   1      33.814  20.840  -1.728  0.00  0.00     0.222 HD
ENDBRANCH  15  17
BRANCH  15  19
HETATM   19  O   UNK N   1      30.645  20.486  -3.529  0.00  0.00    -0.307 OA
HETATM   20  H   UNK N   1      29.934  20.701  -2.906  0.00  0.00     0.222 HD
ENDBRANCH  15  19
ENDBRANCH  14  15
ENDBRANCH   2  14
TORSDOF 11
ENDMDL
MODEL 7
REMARK VINA RESULT:      -4.5      6.054      7.501
REMARK  11 active torsions:
REMARK  status: ('A' for Active; 'I' for Inactive)
REMARK    1  A    between atoms: C_3  and  C_2 
REMARK    2  A    between atoms: C_5  and  C_2 
REMARK    3  A    between atoms: O_13  and  C_3 
REMARK    4  A    between atoms: C_5  and  C_4 
REMARK    5  A    between atoms: C_5  and  O_7 
REMARK    6  A    between atoms: P_15  and  O_8 
REMARK    7  A    between atoms: P_15  and  O_9 
REMARK    8  A    between atoms: P_16  and  O_11 
REMARK    9  A    between atoms: P_16  and  O_13 
REMARK   10  A    between atoms: P_15  and  O_14 
REMARK   11  A    between atoms: P_16  and  O_14 
ROOT
HETATM    1  O   UNK N   1      31.965  16.863   6.160  0.00  0.00    -0.631 OA
HETATM    2  P   UNK N   1      31.582  17.134   7.639  0.00  0.00     0.401 P 
ENDROOT
BRANCH   2   3
HETATM    3  O   UNK N   1      31.784  15.640   8.507  0.00  0.00    -0.307 OA
HETATM    4  H   UNK N   1      32.113  14.851   8.049  0.00  0.00     0.222 HD
ENDBRANCH   2   3
BRANCH   2   5
HETATM    5  O   UNK N   1      29.921  17.653   7.593  0.00  0.00    -0.297 OA
BRANCH   5   6
HETATM    6  C   UNK N   1      29.345  17.018   6.494  0.00  0.00     0.183 C 
BRANCH   6   7
HETATM    7  C   UNK N   1      28.896  18.050   5.461  0.00  0.00     0.065 C 
BRANCH   7   8
HETATM    8  C   UNK N   1      27.609  18.792   5.840  0.00  0.00     0.065 C 
HETATM    9  C   UNK N   1      26.411  18.188   5.129  0.00  0.00     0.046 C 
BRANCH   8  10
HETATM   10  C   UNK N   1      27.713  20.249   5.406  0.00  0.00     0.122 C 
HETATM   11 Br   UNK N   1      26.631  21.438   6.501  0.00  0.00    -0.093 Br
ENDBRANCH   8  10
BRANCH   8  12
HETATM   12  O   UNK N   1      27.403  18.731   7.219  0.00  0.00    -0.389 OA
HETATM   13  H   UNK N   1      27.910  18.144   7.801  0.00  0.00     0.210 HD
ENDBRANCH   8  12
ENDBRANCH   7   8
ENDBRANCH   6   7
ENDBRANCH   5   6
ENDBRANCH   2   5
BRANCH   2  14
HETATM   14  O   UNK N   1      32.569  18.432   8.272  0.00  0.00    -0.195 OA
BRANCH  14  15
HETATM   15  P   UNK N   1      34.252  18.032   8.041  0.00  0.00     0.399 P 
HETATM   16  O   UNK N   1      34.577  16.730   8.821  0.00  0.00    -0.631 OA
BRANCH  15  17
HETATM   17  O   UNK N   1      34.542  17.666   6.370  0.00  0.00    -0.307 OA
HETATM   18  H   UNK N   1      34.258  18.138   5.571  0.00  0.00     0.222 HD
ENDBRANCH  15  17
BRANCH  15  19
HETATM   19  O   UNK N   1      35.331  19.279   8.582  0.00  0.00    -0.307 OA
HETATM   20  H   UNK N   1      35.169  20.218   8.402  0.00  0.00     0.222 HD
ENDBRANCH  15  19
ENDBRANCH  14  15
ENDBRANCH   2  14
TORSDOF 11
ENDMDL
MODEL 8
REMARK VINA RESULT:      -4.5      2.519      3.653
REMARK  11 active torsions:
REMARK  status: ('A' for Active; 'I' for Inactive)
REMARK    1  A    between atoms: C_3  and  C_2 
REMARK    2  A    between atoms: C_5  and  C_2 
REMARK    3  A    between atoms: O_13  and  C_3 
REMARK    4  A    between atoms: C_5  and  C_4 
REMARK    5  A    between atoms: C_5  and  O_7 
REMARK    6  A    between atoms: P_15  and  O_8 
REMARK    7  A    between atoms: P_15  and  O_9 
REMARK    8  A    between atoms: P_16  and  O_11 
REMARK    9  A    between atoms: P_16  and  O_13 
REMARK   10  A    between atoms: P_15  and  O_14 
REMARK   11  A    between atoms: P_16  and  O_14 
ROOT
HETATM    1  O   UNK N   1      35.688  15.011   9.227  0.00  0.00    -0.631 OA
HETATM    2  P   UNK N   1      34.873  16.006  10.095  0.00  0.00     0.401 P 
ENDROOT
BRANCH   2   3
HETATM    3  O   UNK N   1      35.952  17.286  10.569  0.00  0.00    -0.307 OA
HETATM    4  H   UNK N   1      35.607  18.177  10.734  0.00  0.00     0.222 HD
ENDBRANCH   2   3
BRANCH   2   5
HETATM    5  O   UNK N   1      34.314  15.074  11.456  0.00  0.00    -0.297 OA
BRANCH   5   6
HETATM    6  C   UNK N   1      35.336  14.175  11.756  0.00  0.00     0.183 C 
BRANCH   6   7
HETATM    7  C   UNK N   1      36.091  14.628  13.003  0.00  0.00     0.065 C 
BRANCH   7   8
HETATM    8  C   UNK N   1      36.403  13.497  13.990  0.00  0.00     0.065 C 
HETATM    9  C   UNK N   1      37.005  12.304  13.267  0.00  0.00     0.046 C 
BRANCH   8  10
HETATM   10  C   UNK N   1      35.114  13.029  14.653  0.00  0.00     0.122 C 
HETATM   11 Br   UNK N   1      35.234  13.003  16.594  0.00  0.00    -0.093 Br
ENDBRANCH   8  10
BRANCH   8  12
HETATM   12  O   UNK N   1      37.296  13.939  14.967  0.00  0.00    -0.389 OA
HETATM   13  H   UNK N   1      37.942  13.354  15.392  0.00  0.00     0.210 HD
ENDBRANCH   8  12
ENDBRANCH   7   8
ENDBRANCH   6   7
ENDBRANCH   5   6
ENDBRANCH   2   5
BRANCH   2  14
HETATM   14  O   UNK N   1      33.489  16.577   9.189  0.00  0.00    -0.195 OA
BRANCH  14  15
HETATM   15  P   UNK N   1      34.051  17.442   7.780  0.00  0.00     0.399 P 
HETATM   16  O   UNK N   1      32.826  17.938   6.966  0.00  0.00    -0.631 OA
BRANCH  15  17
HETATM   17  O   UNK N   1      34.901  18.872   8.272  0.00  0.00    -0.307 OA
HETATM   18  H   UNK N   1      35.563  18.993   8.971  0.00  0.00     0.222 HD
ENDBRANCH  15  17
BRANCH  15  19
HETATM   19  O   UNK N   1      35.048  16.477   6.738  0.00  0.00    -0.307 OA
HETATM   20  H   UNK N   1      34.926  16.459   5.776  0.00  0.00     0.222 HD
ENDBRANCH  15  19
ENDBRANCH  14  15
ENDBRANCH   2  14
TORSDOF 11
ENDMDL
MODEL 9
REMARK VINA RESULT:      -4.4      2.625      3.878
REMARK  11 active torsions:
REMARK  status: ('A' for Active; 'I' for Inactive)
REMARK    1  A    between atoms: C_3  and  C_2 
REMARK    2  A    between atoms: C_5  and  C_2 
REMARK    3  A    between atoms: O_13  and  C_3 
REMARK    4  A    between atoms: C_5  and  C_4 
REMARK    5  A    between atoms: C_5  and  O_7 
REMARK    6  A    between atoms: P_15  and  O_8 
REMARK    7  A    between atoms: P_15  and  O_9 
REMARK    8  A    between atoms: P_16  and  O_11 
REMARK    9  A    between atoms: P_16  and  O_13 
REMARK   10  A    between atoms: P_15  and  O_14 
REMARK   11  A    between atoms: P_16  and  O_14 
ROOT
HETATM    1  O   UNK N   1      35.139  17.146  10.936  0.00  0.00    -0.631 OA
HETATM    2  P   UNK N   1      34.867  15.852  10.124  0.00  0.00     0.401 P 
ENDROOT
BRANCH   2   3
HETATM    3  O   UNK N   1      33.288  15.279  10.577  0.00  0.00    -0.307 OA
HETATM    4  H   UNK N   1      33.198  14.550  11.211  0.00  0.00     0.222 HD
ENDBRANCH   2   3
BRANCH   2   5
HETATM    5  O   UNK N   1      36.130  14.747  10.588  0.00  0.00    -0.297 OA
BRANCH   5   6
HETATM    6  C   UNK N   1      36.840  14.458   9.424  0.00  0.00     0.183 C 
BRANCH   6   7
HETATM    7  C   UNK N   1      36.997  12.947   9.261  0.00  0.00     0.065 C 
BRANCH   7   8
HETATM    8  C   UNK N   1      38.038  12.324  10.200  0.00  0.00     0.065 C 
HETATM    9  C   UNK N   1      39.158  11.676   9.405  0.00  0.00     0.046 C 
BRANCH   8  10
HETATM   10  C   UNK N   1      37.381  11.235  11.038  0.00  0.00     0.122 C 
HETATM   11 Br   UNK N   1      37.456  11.607  12.945  0.00  0.00    -0.093 Br
ENDBRANCH   8  10
BRANCH   8  12
HETATM   12  O   UNK N   1      38.576  13.298  11.041  0.00  0.00    -0.389 OA
HETATM   13  H   UNK N   1      39.514  13.543  11.030  0.00  0.00     0.210 HD
ENDBRANCH   8  12
ENDBRANCH   7   8
ENDBRANCH   6   7
ENDBRANCH   5   6
ENDBRANCH   2   5
BRANCH   2  14
HETATM   14  O   UNK N   1      35.006  16.193   8.413  0.00  0.00    -0.195 OA
BRANCH  14  15
HETATM   15  P   UNK N   1      34.314  17.762   8.088  0.00  0.00     0.399 P 
HETATM   16  O   UNK N   1      34.063  17.901   6.563  0.00  0.00    -0.631 OA
BRANCH  15  17
HETATM   17  O   UNK N   1      32.754  17.879   8.837  0.00  0.00    -0.307 OA
HETATM   18  H   UNK N   1      31.883  18.041   8.440  0.00  0.00     0.222 HD
ENDBRANCH  15  17
BRANCH  15  19
HETATM   19  O   UNK N   1      35.329  19.075   8.598  0.00  0.00    -0.307 OA
HETATM   20  H   UNK N   1      35.012  19.772   9.194  0.00  0.00     0.222 HD
ENDBRANCH  15  19
ENDBRANCH  14  15
ENDBRANCH   2  14
TORSDOF 11
ENDMDL
