MODEL 1
REMARK VINA RESULT:      -7.2      0.000      0.000
REMARK  15 active torsions:
REMARK  status: ('A' for Active; 'I' for Inactive)
REMARK    1  A    between atoms: C_4  and  C_1 
REMARK    2  A    between atoms: O_27  and  C_1 
REMARK    3  A    between atoms: C_6  and  O_19 
REMARK    4  A    between atoms: C_7  and  O_20 
REMARK    5  A    between atoms: N_11  and  C_8 
REMARK    6  A    between atoms: C_10  and  N_18 
REMARK    7  A    between atoms: P_31  and  O_21 
REMARK    8  A    between atoms: P_32  and  O_23 
REMARK    9  A    between atoms: P_33  and  O_25 
REMARK   10  A    between atoms: P_33  and  O_26 
REMARK   11  A    between atoms: P_31  and  O_27 
REMARK   12  A    between atoms: P_31  and  O_29 
REMARK   13  A    between atoms: P_32  and  O_29 
REMARK   14  A    between atoms: P_32  and  O_30 
REMARK   15  A    between atoms: P_33  and  O_30 
ROOT
HETATM    1  C   UNK N   1      33.879  17.237   9.203  0.00  0.00     0.180 C 
HETATM    2  C   UNK N   1      34.601  17.698   7.950  0.00  0.00     0.182 C 
HETATM    3  C   UNK N   1      33.437  17.832   7.038  0.00  0.00     0.198 C 
HETATM    4  C   UNK N   1      32.712  16.530   7.378  0.00  0.00     0.262 C 
HETATM    5  O   UNK N   1      32.842  16.359   8.784  0.00  0.00    -0.353 OA
ENDROOT
BRANCH   1   6
HETATM    6  C   UNK N   1      34.897  16.564  10.117  0.00  0.00     0.215 C 
BRANCH   6   7
HETATM    7  O   UNK N   1      35.565  15.527   9.474  0.00  0.00    -0.294 OA
BRANCH   7   8
HETATM    8  P   UNK N   1      34.973  14.087  10.259  0.00  0.00     0.401 P 
HETATM    9  O   UNK N   1      34.190  13.279   9.188  0.00  0.00    -0.631 OA
BRANCH   8  10
HETATM   10  O   UNK N   1      33.844  14.458  11.526  0.00  0.00    -0.307 OA
HETATM   11  H   UNK N   1      33.539  14.264  12.426  0.00  0.00     0.222 HD
ENDBRANCH   8  10
BRANCH   8  12
HETATM   12  O   UNK N   1      36.226  13.023  10.839  0.00  0.00    -0.195 OA
BRANCH  12  13
HETATM   13  P   UNK N   1      35.535  12.010  12.082  0.00  0.00     0.409 P 
HETATM   14  O   UNK N   1      36.517  10.842  12.366  0.00  0.00    -0.631 OA
BRANCH  13  15
HETATM   15  O   UNK N   1      34.022  11.326  11.576  0.00  0.00    -0.307 OA
HETATM   16  H   UNK N   1      33.072  11.176  11.698  0.00  0.00     0.222 HD
ENDBRANCH  13  15
BRANCH  13  17
HETATM   17  O   UNK N   1      35.292  12.864  13.590  0.00  0.00    -0.213 OA
BRANCH  17  18
HETATM   18  P   UNK N   1      36.721  12.625  14.558  0.00  0.00     0.332 P 
HETATM   19  S   UNK N   1      35.556  13.220  15.747  0.00  0.00    -0.007 SA
BRANCH  18  20
HETATM   20  O   UNK N   1      37.545  13.975  15.272  0.00  0.00    -0.324 OA
HETATM   21  H   UNK N   1      37.596  14.823  14.804  0.00  0.00     0.220 HD
ENDBRANCH  18  20
BRANCH  18  22
HETATM   22  O   UNK N   1      37.049  13.868  13.389  0.00  0.00    -0.324 OA
HETATM   23  H   UNK N   1      36.771  14.235  12.534  0.00  0.00     0.220 HD
ENDBRANCH  18  22
ENDBRANCH  17  18
ENDBRANCH  13  17
ENDBRANCH  12  13
ENDBRANCH   8  12
ENDBRANCH   7   8
ENDBRANCH   6   7
ENDBRANCH   1   6
BRANCH   2  24
HETATM   24  O   UNK N   1      35.299  18.893   8.134  0.00  0.00    -0.390 OA
HETATM   25  H   UNK N   1      34.962  19.784   8.318  0.00  0.00     0.210 HD
ENDBRANCH   2  24
BRANCH   3  26
HETATM   26  O   UNK N   1      33.821  17.919   5.697  0.00  0.00    -0.388 OA
HETATM   27  H   UNK N   1      34.004  17.264   5.005  0.00  0.00     0.210 HD
ENDBRANCH   3  26
BRANCH   4  28
HETATM   28  N   UNK N   1      31.297  16.524   6.964  0.00  0.00    -0.297 N 
HETATM   29  C   UNK N   1      30.824  15.980   5.811  0.00  0.00     0.188 A 
HETATM   30  N   UNK N   1      29.476  16.145   5.693  0.00  0.00    -0.346 N 
HETATM   31  C   UNK N   1      29.123  16.824   6.799  0.00  0.00     0.122 A 
ATOM     32  HN  UNK N   1      28.870  15.824   4.937  1.00  0.00     0.167 HD
HETATM   33  C   UNK N   1      27.880  17.294   7.198  0.00  0.00     0.131 A 
HETATM   34  C   UNK N   1      30.210  17.051   7.562  0.00  0.00     0.142 A 
HETATM   35  N   UNK N   1      27.804  17.993   8.368  0.00  0.00    -0.337 N 
HETATM   36  C   UNK N   1      28.924  18.220   9.128  0.00  0.00     0.183 A 
ATOM     37  HN  UNK N   1      26.902  18.351   8.683  1.00  0.00     0.168 HD
HETATM   38  N   UNK N   1      30.142  17.746   8.724  0.00  0.00    -0.336 N 
ATOM     39  HN  UNK N   1      30.978  17.910   9.285  1.00  0.00     0.168 HD
BRANCH  33  40
HETATM   40  N   UNK N   1      26.728  17.071   6.419  0.00  0.00    -0.383 N 
HETATM   41  H   UNK N   1      26.445  16.153   6.204  0.00  0.00     0.157 HD
HETATM   42  H   UNK N   1      26.202  17.836   6.089  0.00  0.00     0.157 HD
ENDBRANCH  33  40
ENDBRANCH   4  28
TORSDOF 15
ENDMDL
MODEL 2
REMARK VINA RESULT:      -7.1      1.677      2.469
REMARK  15 active torsions:
REMARK  status: ('A' for Active; 'I' for Inactive)
REMARK    1  A    between atoms: C_4  and  C_1 
REMARK    2  A    between atoms: O_27  and  C_1 
REMARK    3  A    between atoms: C_6  and  O_19 
REMARK    4  A    between atoms: C_7  and  O_20 
REMARK    5  A    between atoms: N_11  and  C_8 
REMARK    6  A    between atoms: C_10  and  N_18 
REMARK    7  A    between atoms: P_31  and  O_21 
REMARK    8  A    between atoms: P_32  and  O_23 
REMARK    9  A    between atoms: P_33  and  O_25 
REMARK   10  A    between atoms: P_33  and  O_26 
REMARK   11  A    between atoms: P_31  and  O_27 
REMARK   12  A    between atoms: P_31  and  O_29 
REMARK   13  A    between atoms: P_32  and  O_29 
REMARK   14  A    between atoms: P_32  and  O_30 
REMARK   15  A    between atoms: P_33  and  O_30 
ROOT
HETATM    1  C   UNK N   1      33.880  15.825   9.671  0.00  0.00     0.180 C 
HETATM    2  C   UNK N   1      34.812  16.828   9.015  0.00  0.00     0.182 C 
HETATM    3  C   UNK N   1      33.809  17.655   8.298  0.00  0.00     0.198 C 
HETATM    4  C   UNK N   1      32.943  16.536   7.720  0.00  0.00     0.262 C 
HETATM    5  O   UNK N   1      32.852  15.541   8.732  0.00  0.00    -0.353 OA
ENDROOT
BRANCH   1   6
HETATM    6  C   UNK N   1      34.698  14.596  10.051  0.00  0.00     0.215 C 
BRANCH   6   7
HETATM    7  O   UNK N   1      35.875  14.939  10.710  0.00  0.00    -0.294 OA
BRANCH   7   8
HETATM    8  P   UNK N   1      35.863  13.950  12.146  0.00  0.00     0.401 P 
HETATM    9  O   UNK N   1      36.941  12.851  11.947  0.00  0.00    -0.631 OA
BRANCH   8  10
HETATM   10  O   UNK N   1      34.346  13.129  12.354  0.00  0.00    -0.307 OA
HETATM   11  H   UNK N   1      33.793  12.575  12.927  0.00  0.00     0.222 HD
ENDBRANCH   8  10
BRANCH   8  12
HETATM   12  O   UNK N   1      36.310  14.801  13.601  0.00  0.00    -0.195 OA
BRANCH  12  13
HETATM   13  P   UNK N   1      36.458  13.625  14.884  0.00  0.00     0.409 P 
HETATM   14  O   UNK N   1      36.665  14.382  16.223  0.00  0.00    -0.631 OA
BRANCH  13  15
HETATM   15  O   UNK N   1      37.826  12.585  14.640  0.00  0.00    -0.307 OA
HETATM   16  H   UNK N   1      38.631  12.334  14.160  0.00  0.00     0.222 HD
ENDBRANCH  13  15
BRANCH  13  17
HETATM   17  O   UNK N   1      35.023  12.638  15.062  0.00  0.00    -0.213 OA
BRANCH  17  18
HETATM   18  P   UNK N   1      35.543  10.977  15.148  0.00  0.00     0.332 P 
HETATM   19  S   UNK N   1      33.813  10.814  14.827  0.00  0.00    -0.007 SA
BRANCH  18  20
HETATM   20  O   UNK N   1      35.002   9.943  16.433  0.00  0.00    -0.324 OA
HETATM   21  H   UNK N   1      34.273   9.321  16.288  0.00  0.00     0.220 HD
ENDBRANCH  18  20
BRANCH  18  22
HETATM   22  O   UNK N   1      35.782  11.711  16.705  0.00  0.00    -0.324 OA
HETATM   23  H   UNK N   1      35.846  11.529  17.657  0.00  0.00     0.220 HD
ENDBRANCH  18  22
ENDBRANCH  17  18
ENDBRANCH  13  17
ENDBRANCH  12  13
ENDBRANCH   8  12
ENDBRANCH   7   8
ENDBRANCH   6   7
ENDBRANCH   1   6
BRANCH   2  24
HETATM   24  O   UNK N   1      35.566  17.555   9.940  0.00  0.00    -0.390 OA
HETATM   25  H   UNK N   1      36.419  17.339  10.349  0.00  0.00     0.210 HD
ENDBRANCH   2  24
BRANCH   3  26
HETATM   26  O   UNK N   1      34.391  18.466   7.321  0.00  0.00    -0.388 OA
HETATM   27  H   UNK N   1      35.234  18.444   6.841  0.00  0.00     0.210 HD
ENDBRANCH   3  26
BRANCH   4  28
HETATM   28  N   UNK N   1      31.608  16.991   7.291  0.00  0.00    -0.297 N 
HETATM   29  C   UNK N   1      31.171  17.023   6.004  0.00  0.00     0.188 A 
HETATM   30  N   UNK N   1      29.901  17.510   5.917  0.00  0.00    -0.346 N 
HETATM   31  C   UNK N   1      29.564  17.800   7.186  0.00  0.00     0.122 A 
ATOM     32  HN  UNK N   1      29.332  17.628   5.077  1.00  0.00     0.167 HD
HETATM   33  C   UNK N   1      28.398  18.352   7.695  0.00  0.00     0.131 A 
HETATM   34  C   UNK N   1      30.583  17.489   8.011  0.00  0.00     0.142 A 
HETATM   35  N   UNK N   1      28.328  18.576   9.041  0.00  0.00    -0.337 N 
HETATM   36  C   UNK N   1      29.379  18.259   9.864  0.00  0.00     0.183 A 
ATOM     37  HN  UNK N   1      27.482  18.983   9.440  1.00  0.00     0.168 HD
HETATM   38  N   UNK N   1      30.521  17.709   9.347  0.00  0.00    -0.336 N 
ATOM     39  HN  UNK N   1      31.306  17.470   9.954  1.00  0.00     0.168 HD
BRANCH  33  40
HETATM   40  N   UNK N   1      27.318  18.688   6.855  0.00  0.00    -0.383 N 
HETATM   41  H   UNK N   1      26.429  18.292   7.009  0.00  0.00     0.157 HD
HETATM   42  H   UNK N   1      27.450  19.321   6.112  0.00  0.00     0.157 HD
ENDBRANCH  33  40
ENDBRANCH   4  28
TORSDOF 15
ENDMDL
MODEL 3
REMARK VINA RESULT:      -7.1      2.294      3.567
REMARK  15 active torsions:
REMARK  status: ('A' for Active; 'I' for Inactive)
REMARK    1  A    between atoms: C_4  and  C_1 
REMARK    2  A    between atoms: O_27  and  C_1 
REMARK    3  A    between atoms: C_6  and  O_19 
REMARK    4  A    between atoms: C_7  and  O_20 
REMARK    5  A    between atoms: N_11  and  C_8 
REMARK    6  A    between atoms: C_10  and  N_18 
REMARK    7  A    between atoms: P_31  and  O_21 
REMARK    8  A    between atoms: P_32  and  O_23 
REMARK    9  A    between atoms: P_33  and  O_25 
REMARK   10  A    between atoms: P_33  and  O_26 
REMARK   11  A    between atoms: P_31  and  O_27 
REMARK   12  A    between atoms: P_31  and  O_29 
REMARK   13  A    between atoms: P_32  and  O_29 
REMARK   14  A    between atoms: P_32  and  O_30 
REMARK   15  A    between atoms: P_33  and  O_30 
ROOT
HETATM    1  C   UNK N   1      31.625  17.185   6.734  0.00  0.00     0.180 C 
HETATM    2  C   UNK N   1      32.344  17.124   5.398  0.00  0.00     0.182 C 
HETATM    3  C   UNK N   1      31.242  17.578   4.512  0.00  0.00     0.198 C 
HETATM    4  C   UNK N   1      30.102  16.744   5.097  0.00  0.00     0.262 C 
HETATM    5  O   UNK N   1      30.292  16.747   6.507  0.00  0.00    -0.353 OA
ENDROOT
BRANCH   1   6
HETATM    6  C   UNK N   1      32.383  16.304   7.721  0.00  0.00     0.215 C 
BRANCH   6   7
HETATM    7  O   UNK N   1      32.732  16.998   8.875  0.00  0.00    -0.294 OA
BRANCH   7   8
HETATM    8  P   UNK N   1      34.435  17.319   8.681  0.00  0.00     0.401 P 
HETATM    9  O   UNK N   1      34.569  18.809   8.265  0.00  0.00    -0.631 OA
BRANCH   8  10
HETATM   10  O   UNK N   1      35.129  16.377   7.397  0.00  0.00    -0.307 OA
HETATM   11  H   UNK N   1      35.433  15.505   7.100  0.00  0.00     0.222 HD
ENDBRANCH   8  10
BRANCH   8  12
HETATM   12  O   UNK N   1      35.364  17.147  10.147  0.00  0.00    -0.195 OA
BRANCH  12  13
HETATM   13  P   UNK N   1      35.144  15.516  10.731  0.00  0.00     0.409 P 
HETATM   14  O   UNK N   1      35.556  14.531   9.604  0.00  0.00    -0.631 OA
BRANCH  13  15
HETATM   15  O   UNK N   1      33.485  15.204  11.135  0.00  0.00    -0.307 OA
HETATM   16  H   UNK N   1      32.806  14.742  11.651  0.00  0.00     0.222 HD
ENDBRANCH  13  15
BRANCH  13  17
HETATM   17  O   UNK N   1      36.141  15.158  12.124  0.00  0.00    -0.213 OA
BRANCH  17  18
HETATM   18  P   UNK N   1      36.158  13.427  12.320  0.00  0.00     0.332 P 
HETATM   19  S   UNK N   1      36.248  13.996  13.991  0.00  0.00    -0.007 SA
BRANCH  18  20
HETATM   20  O   UNK N   1      37.565  12.617  12.934  0.00  0.00    -0.324 OA
HETATM   21  H   UNK N   1      38.008  12.942  13.732  0.00  0.00     0.220 HD
ENDBRANCH  18  20
BRANCH  18  22
HETATM   22  O   UNK N   1      37.595  13.898  11.464  0.00  0.00    -0.324 OA
HETATM   23  H   UNK N   1      38.456  14.338  11.557  0.00  0.00     0.220 HD
ENDBRANCH  18  22
ENDBRANCH  17  18
ENDBRANCH  13  17
ENDBRANCH  12  13
ENDBRANCH   8  12
ENDBRANCH   7   8
ENDBRANCH   6   7
ENDBRANCH   1   6
BRANCH   2  24
HETATM   24  O   UNK N   1      33.468  17.950   5.348  0.00  0.00    -0.390 OA
HETATM   25  H   UNK N   1      33.723  18.608   4.683  0.00  0.00     0.210 HD
ENDBRANCH   2  24
BRANCH   3  26
HETATM   26  O   UNK N   1      31.496  17.302   3.166  0.00  0.00    -0.388 OA
HETATM   27  H   UNK N   1      31.693  16.492   2.670  0.00  0.00     0.210 HD
ENDBRANCH   3  26
BRANCH   4  28
HETATM   28  N   UNK N   1      28.765  17.246   4.734  0.00  0.00    -0.297 N 
HETATM   29  C   UNK N   1      28.034  16.818   3.670  0.00  0.00     0.188 A 
HETATM   30  N   UNK N   1      26.845  17.480   3.579  0.00  0.00    -0.346 N 
HETATM   31  C   UNK N   1      26.863  18.346   4.607  0.00  0.00     0.122 A 
ATOM     32  HN  UNK N   1      26.107  17.347   2.886  1.00  0.00     0.167 HD
HETATM   33  C   UNK N   1      25.927  19.297   4.987  0.00  0.00     0.131 A 
HETATM   34  C   UNK N   1      28.010  18.208   5.300  0.00  0.00     0.142 A 
HETATM   35  N   UNK N   1      26.213  20.082   6.068  0.00  0.00    -0.337 N 
HETATM   36  C   UNK N   1      27.390  19.930   6.758  0.00  0.00     0.183 A 
ATOM     37  HN  UNK N   1      25.542  20.789   6.367  1.00  0.00     0.168 HD
HETATM   38  N   UNK N   1      28.300  18.984   6.374  0.00  0.00    -0.336 N 
ATOM     39  HN  UNK N   1      29.176  18.866   6.883  1.00  0.00     0.168 HD
BRANCH  33  40
HETATM   40  N   UNK N   1      24.721  19.464   4.279  0.00  0.00    -0.383 N 
HETATM   41  H   UNK N   1      24.528  20.315   3.823  0.00  0.00     0.157 HD
HETATM   42  H   UNK N   1      24.069  18.727   4.238  0.00  0.00     0.157 HD
ENDBRANCH  33  40
ENDBRANCH   4  28
TORSDOF 15
ENDMDL
MODEL 4
REMARK VINA RESULT:      -7.0      2.113      2.959
REMARK  15 active torsions:
REMARK  status: ('A' for Active; 'I' for Inactive)
REMARK    1  A    between atoms: C_4  and  C_1 
REMARK    2  A    between atoms: O_27  and  C_1 
REMARK    3  A    between atoms: C_6  and  O_19 
REMARK    4  A    between atoms: C_7  and  O_20 
REMARK    5  A    between atoms: N_11  and  C_8 
REMARK    6  A    between atoms: C_10  and  N_18 
REMARK    7  A    between atoms: P_31  and  O_21 
REMARK    8  A    between atoms: P_32  and  O_23 
REMARK    9  A    between atoms: P_33  and  O_25 
REMARK   10  A    between atoms: P_33  and  O_26 
REMARK   11  A    between atoms: P_31  and  O_27 
REMARK   12  A    between atoms: P_31  and  O_29 
REMARK   13  A    between atoms: P_32  and  O_29 
REMARK   14  A    between atoms: P_32  and  O_30 
REMARK   15  A    between atoms: P_33  and  O_30 
ROOT
HETATM    1  C   UNK N   1      33.860  16.146   9.937  0.00  0.00     0.180 C 
HETATM    2  C   UNK N   1      34.823  16.978   9.108  0.00  0.00     0.182 C 
HETATM    3  C   UNK N   1      33.843  17.706   8.262  0.00  0.00     0.198 C 
HETATM    4  C   UNK N   1      32.926  16.539   7.897  0.00  0.00     0.262 C 
HETATM    5  O   UNK N   1      32.809  15.744   9.070  0.00  0.00    -0.353 OA
ENDROOT
BRANCH   1   6
HETATM    6  C   UNK N   1      34.634  14.971  10.523  0.00  0.00     0.215 C 
BRANCH   6   7
HETATM    7  O   UNK N   1      34.124  14.578  11.757  0.00  0.00    -0.294 OA
BRANCH   7   8
HETATM    8  P   UNK N   1      35.413  13.647  12.474  0.00  0.00     0.401 P 
HETATM    9  O   UNK N   1      34.909  13.173  13.864  0.00  0.00    -0.631 OA
BRANCH   8  10
HETATM   10  O   UNK N   1      36.828  14.614  12.760  0.00  0.00    -0.307 OA
HETATM   11  H   UNK N   1      37.750  14.637  13.059  0.00  0.00     0.222 HD
ENDBRANCH   8  10
BRANCH   8  12
HETATM   12  O   UNK N   1      35.822  12.198  11.594  0.00  0.00    -0.195 OA
BRANCH  12  13
HETATM   13  P   UNK N   1      37.489  11.814  11.942  0.00  0.00     0.409 P 
HETATM   14  O   UNK N   1      37.736  10.325  11.579  0.00  0.00    -0.631 OA
BRANCH  13  15
HETATM   15  O   UNK N   1      37.851  12.021  13.626  0.00  0.00    -0.307 OA
HETATM   16  H   UNK N   1      37.677  11.844  14.564  0.00  0.00     0.222 HD
ENDBRANCH  13  15
BRANCH  13  17
HETATM   17  O   UNK N   1      38.612  12.771  11.001  0.00  0.00    -0.213 OA
BRANCH  17  18
HETATM   18  P   UNK N   1      37.937  12.944   9.404  0.00  0.00     0.332 P 
HETATM   19  S   UNK N   1      39.501  12.191   9.072  0.00  0.00    -0.007 SA
BRANCH  18  20
HETATM   20  O   UNK N   1      38.654  14.023   8.249  0.00  0.00    -0.324 OA
HETATM   21  H   UNK N   1      38.123  14.722   7.836  0.00  0.00     0.220 HD
ENDBRANCH  18  20
BRANCH  18  22
HETATM   22  O   UNK N   1      38.183  14.529  10.073  0.00  0.00    -0.324 OA
HETATM   23  H   UNK N   1      37.733  15.346  10.341  0.00  0.00     0.220 HD
ENDBRANCH  18  22
ENDBRANCH  17  18
ENDBRANCH  13  17
ENDBRANCH  12  13
ENDBRANCH   8  12
ENDBRANCH   7   8
ENDBRANCH   6   7
ENDBRANCH   1   6
BRANCH   2  24
HETATM   24  O   UNK N   1      35.617  17.825   9.885  0.00  0.00    -0.390 OA
HETATM   25  H   UNK N   1      36.515  18.153   9.721  0.00  0.00     0.210 HD
ENDBRANCH   2  24
BRANCH   3  26
HETATM   26  O   UNK N   1      34.444  18.307   7.153  0.00  0.00    -0.388 OA
HETATM   27  H   UNK N   1      34.630  18.016   6.247  0.00  0.00     0.210 HD
ENDBRANCH   3  26
BRANCH   4  28
HETATM   28  N   UNK N   1      31.604  16.967   7.403  0.00  0.00    -0.297 N 
HETATM   29  C   UNK N   1      31.206  16.925   6.103  0.00  0.00     0.188 A 
HETATM   30  N   UNK N   1      29.939  17.404   5.950  0.00  0.00    -0.346 N 
HETATM   31  C   UNK N   1      29.564  17.764   7.190  0.00  0.00     0.122 A 
ATOM     32  HN  UNK N   1      29.396  17.473   5.088  1.00  0.00     0.167 HD
HETATM   33  C   UNK N   1      28.383  18.341   7.631  0.00  0.00     0.131 A 
HETATM   34  C   UNK N   1      30.558  17.502   8.061  0.00  0.00     0.142 A 
HETATM   35  N   UNK N   1      28.271  18.640   8.959  0.00  0.00    -0.337 N 
HETATM   36  C   UNK N   1      29.297  18.373   9.831  0.00  0.00     0.183 A 
ATOM     37  HN  UNK N   1      27.413  19.067   9.309  1.00  0.00     0.168 HD
HETATM   38  N   UNK N   1      30.455  17.797   9.381  0.00  0.00    -0.336 N 
ATOM     39  HN  UNK N   1      31.221  17.595  10.024  1.00  0.00     0.168 HD
BRANCH  33  40
HETATM   40  N   UNK N   1      27.328  18.627   6.741  0.00  0.00    -0.383 N 
HETATM   41  H   UNK N   1      26.986  19.546   6.657  0.00  0.00     0.157 HD
HETATM   42  H   UNK N   1      26.932  17.905   6.201  0.00  0.00     0.157 HD
ENDBRANCH  33  40
ENDBRANCH   4  28
TORSDOF 15
ENDMDL
MODEL 5
REMARK VINA RESULT:      -7.0      1.668      2.514
REMARK  15 active torsions:
REMARK  status: ('A' for Active; 'I' for Inactive)
REMARK    1  A    between atoms: C_4  and  C_1 
REMARK    2  A    between atoms: O_27  and  C_1 
REMARK    3  A    between atoms: C_6  and  O_19 
REMARK    4  A    between atoms: C_7  and  O_20 
REMARK    5  A    between atoms: N_11  and  C_8 
REMARK    6  A    between atoms: C_10  and  N_18 
REMARK    7  A    between atoms: P_31  and  O_21 
REMARK    8  A    between atoms: P_32  and  O_23 
REMARK    9  A    between atoms: P_33  and  O_25 
REMARK   10  A    between atoms: P_33  and  O_26 
REMARK   11  A    between atoms: P_31  and  O_27 
REMARK   12  A    between atoms: P_31  and  O_29 
REMARK   13  A    between atoms: P_32  and  O_29 
REMARK   14  A    between atoms: P_32  and  O_30 
REMARK   15  A    between atoms: P_33  and  O_30 
ROOT
HETATM    1  C   UNK N   1      33.981  16.205  10.017  0.00  0.00     0.180 C 
HETATM    2  C   UNK N   1      34.912  17.056   9.172  0.00  0.00     0.182 C 
HETATM    3  C   UNK N   1      33.905  17.742   8.322  0.00  0.00     0.198 C 
HETATM    4  C   UNK N   1      33.024  16.542   7.977  0.00  0.00     0.262 C 
HETATM    5  O   UNK N   1      32.938  15.758   9.162  0.00  0.00    -0.353 OA
ENDROOT
BRANCH   1   6
HETATM    6  C   UNK N   1      34.795  15.062  10.614  0.00  0.00     0.215 C 
BRANCH   6   7
HETATM    7  O   UNK N   1      35.777  15.523  11.485  0.00  0.00    -0.294 OA
BRANCH   7   8
HETATM    8  P   UNK N   1      36.036  14.190  12.579  0.00  0.00     0.401 P 
HETATM    9  O   UNK N   1      36.286  14.802  13.985  0.00  0.00    -0.631 OA
BRANCH   8  10
HETATM   10  O   UNK N   1      37.461  13.285  12.169  0.00  0.00    -0.307 OA
HETATM   11  H   UNK N   1      38.369  13.045  12.409  0.00  0.00     0.222 HD
ENDBRANCH   8  10
BRANCH   8  12
HETATM   12  O   UNK N   1      34.660  13.134  12.755  0.00  0.00    -0.195 OA
BRANCH  12  13
HETATM   13  P   UNK N   1      34.893  12.189  14.205  0.00  0.00     0.409 P 
HETATM   14  O   UNK N   1      33.924  10.977  14.163  0.00  0.00    -0.631 OA
BRANCH  13  15
HETATM   15  O   UNK N   1      34.533  13.113  15.630  0.00  0.00    -0.307 OA
HETATM   16  H   UNK N   1      34.178  13.903  16.066  0.00  0.00     0.222 HD
ENDBRANCH  13  15
BRANCH  13  17
HETATM   17  O   UNK N   1      36.517  11.552  14.341  0.00  0.00    -0.213 OA
BRANCH  17  18
HETATM   18  P   UNK N   1      36.416   9.825  14.137  0.00  0.00     0.332 P 
HETATM   19  S   UNK N   1      38.072  10.039  14.717  0.00  0.00    -0.007 SA
BRANCH  18  20
HETATM   20  O   UNK N   1      37.362   9.017  12.927  0.00  0.00    -0.324 OA
HETATM   21  H   UNK N   1      37.328   8.052  12.840  0.00  0.00     0.220 HD
ENDBRANCH  18  20
BRANCH  18  22
HETATM   22  O   UNK N   1      36.241  10.575  12.579  0.00  0.00    -0.324 OA
HETATM   23  H   UNK N   1      35.594  10.867  11.917  0.00  0.00     0.220 HD
ENDBRANCH  18  22
ENDBRANCH  17  18
ENDBRANCH  13  17
ENDBRANCH  12  13
ENDBRANCH   8  12
ENDBRANCH   7   8
ENDBRANCH   6   7
ENDBRANCH   1   6
BRANCH   2  24
HETATM   24  O   UNK N   1      35.684  17.937   9.933  0.00  0.00    -0.390 OA
HETATM   25  H   UNK N   1      36.452  18.470   9.673  0.00  0.00     0.210 HD
ENDBRANCH   2  24
BRANCH   3  26
HETATM   26  O   UNK N   1      34.480  18.347   7.203  0.00  0.00    -0.388 OA
HETATM   27  H   UNK N   1      35.031  18.026   6.471  0.00  0.00     0.210 HD
ENDBRANCH   3  26
BRANCH   4  28
HETATM   28  N   UNK N   1      31.686  16.921   7.486  0.00  0.00    -0.297 N 
HETATM   29  C   UNK N   1      31.264  16.798   6.200  0.00  0.00     0.188 A 
HETATM   30  N   UNK N   1      29.987  17.249   6.044  0.00  0.00    -0.346 N 
HETATM   31  C   UNK N   1      29.630  17.675   7.269  0.00  0.00     0.122 A 
ATOM     32  HN  UNK N   1      29.427  17.260   5.191  1.00  0.00     0.167 HD
HETATM   33  C   UNK N   1      28.449  18.260   7.699  0.00  0.00     0.131 A 
HETATM   34  C   UNK N   1      30.644  17.478   8.134  0.00  0.00     0.142 A 
HETATM   35  N   UNK N   1      28.358  18.634   9.010  0.00  0.00    -0.337 N 
HETATM   36  C   UNK N   1      29.405  18.433   9.874  0.00  0.00     0.183 A 
ATOM     37  HN  UNK N   1      27.501  19.069   9.351  1.00  0.00     0.168 HD
HETATM   38  N   UNK N   1      30.562  17.848   9.436  0.00  0.00    -0.336 N 
ATOM     39  HN  UNK N   1      31.343  17.695  10.074  1.00  0.00     0.168 HD
BRANCH  33  40
HETATM   40  N   UNK N   1      27.373  18.478   6.816  0.00  0.00    -0.383 N 
HETATM   41  H   UNK N   1      27.519  18.955   5.966  0.00  0.00     0.157 HD
HETATM   42  H   UNK N   1      26.473  18.153   7.047  0.00  0.00     0.157 HD
ENDBRANCH  33  40
ENDBRANCH   4  28
TORSDOF 15
ENDMDL
MODEL 6
REMARK VINA RESULT:      -7.0      7.111      9.979
REMARK  15 active torsions:
REMARK  status: ('A' for Active; 'I' for Inactive)
REMARK    1  A    between atoms: C_4  and  C_1 
REMARK    2  A    between atoms: O_27  and  C_1 
REMARK    3  A    between atoms: C_6  and  O_19 
REMARK    4  A    between atoms: C_7  and  O_20 
REMARK    5  A    between atoms: N_11  and  C_8 
REMARK    6  A    between atoms: C_10  and  N_18 
REMARK    7  A    between atoms: P_31  and  O_21 
REMARK    8  A    between atoms: P_32  and  O_23 
REMARK    9  A    between atoms: P_33  and  O_25 
REMARK   10  A    between atoms: P_33  and  O_26 
REMARK   11  A    between atoms: P_31  and  O_27 
REMARK   12  A    between atoms: P_31  and  O_29 
REMARK   13  A    between atoms: P_32  and  O_29 
REMARK   14  A    between atoms: P_32  and  O_30 
REMARK   15  A    between atoms: P_33  and  O_30 
ROOT
HETATM    1  C   UNK N   1      35.289  12.683  12.658  0.00  0.00     0.180 C 
HETATM    2  C   UNK N   1      36.416  13.601  13.097  0.00  0.00     0.182 C 
HETATM    3  C   UNK N   1      36.741  12.975  14.404  0.00  0.00     0.198 C 
HETATM    4  C   UNK N   1      35.322  12.775  14.934  0.00  0.00     0.262 C 
HETATM    5  O   UNK N   1      34.535  12.370  13.821  0.00  0.00    -0.353 OA
ENDROOT
BRANCH   1   6
HETATM    6  C   UNK N   1      34.473  13.409  11.595  0.00  0.00     0.215 C 
BRANCH   6   7
HETATM    7  O   UNK N   1      34.492  14.788  11.778  0.00  0.00    -0.294 OA
BRANCH   7   8
HETATM    8  P   UNK N   1      34.491  15.434  10.158  0.00  0.00     0.401 P 
HETATM    9  O   UNK N   1      33.042  15.295   9.617  0.00  0.00    -0.631 OA
BRANCH   8  10
HETATM   10  O   UNK N   1      35.510  14.513   9.094  0.00  0.00    -0.307 OA
HETATM   11  H   UNK N   1      35.657  13.672   8.635  0.00  0.00     0.222 HD
ENDBRANCH   8  10
BRANCH   8  12
HETATM   12  O   UNK N   1      34.875  17.132  10.066  0.00  0.00    -0.195 OA
BRANCH  12  13
HETATM   13  P   UNK N   1      34.373  17.710   8.496  0.00  0.00     0.409 P 
HETATM   14  O   UNK N   1      35.000  19.111   8.265  0.00  0.00    -0.631 OA
BRANCH  13  15
HETATM   15  O   UNK N   1      32.648  17.874   8.401  0.00  0.00    -0.307 OA
HETATM   16  H   UNK N   1      31.779  17.574   8.091  0.00  0.00     0.222 HD
ENDBRANCH  13  15
BRANCH  13  17
HETATM   17  O   UNK N   1      34.915  16.676   7.192  0.00  0.00    -0.213 OA
BRANCH  17  18
HETATM   18  P   UNK N   1      33.529  16.327   6.196  0.00  0.00     0.332 P 
HETATM   19  S   UNK N   1      34.726  15.173   5.595  0.00  0.00    -0.007 SA
BRANCH  18  20
HETATM   20  O   UNK N   1      33.558  16.647   4.491  0.00  0.00    -0.324 OA
HETATM   21  H   UNK N   1      32.741  16.609   3.970  0.00  0.00     0.220 HD
ENDBRANCH  18  20
BRANCH  18  22
HETATM   22  O   UNK N   1      34.058  17.947   5.856  0.00  0.00    -0.324 OA
HETATM   23  H   UNK N   1      34.102  18.630   5.168  0.00  0.00     0.220 HD
ENDBRANCH  18  22
ENDBRANCH  17  18
ENDBRANCH  13  17
ENDBRANCH  12  13
ENDBRANCH   8  12
ENDBRANCH   7   8
ENDBRANCH   6   7
ENDBRANCH   1   6
BRANCH   2  24
HETATM   24  O   UNK N   1      37.491  13.606  12.205  0.00  0.00    -0.390 OA
HETATM   25  H   UNK N   1      38.208  14.252  12.104  0.00  0.00     0.210 HD
ENDBRANCH   2  24
BRANCH   3  26
HETATM   26  O   UNK N   1      37.522  13.806  15.210  0.00  0.00    -0.388 OA
HETATM   27  H   UNK N   1      37.321  14.503  15.855  0.00  0.00     0.210 HD
ENDBRANCH   3  26
BRANCH   4  28
HETATM   28  N   UNK N   1      35.242  11.795  16.034  0.00  0.00    -0.297 N 
HETATM   29  C   UNK N   1      35.128  10.450  15.873  0.00  0.00     0.188 A 
HETATM   30  N   UNK N   1      35.056   9.805  17.072  0.00  0.00    -0.346 N 
HETATM   31  C   UNK N   1      35.110  10.789  17.986  0.00  0.00     0.122 A 
ATOM     32  HN  UNK N   1      34.980   8.801  17.239  1.00  0.00     0.167 HD
HETATM   33  C   UNK N   1      35.047  10.724  19.371  0.00  0.00     0.131 A 
HETATM   34  C   UNK N   1      35.222  11.981  17.368  0.00  0.00     0.142 A 
HETATM   35  N   UNK N   1      35.092  11.896  20.071  0.00  0.00    -0.337 N 
HETATM   36  C   UNK N   1      35.200  13.101  19.423  0.00  0.00     0.183 A 
ATOM     37  HN  UNK N   1      35.046  11.875  21.090  1.00  0.00     0.168 HD
HETATM   38  N   UNK N   1      35.266  13.148  18.057  0.00  0.00    -0.336 N 
ATOM     39  HN  UNK N   1      35.347  14.041  17.570  1.00  0.00     0.168 HD
BRANCH  33  40
HETATM   40  N   UNK N   1      34.928   9.491  20.042  0.00  0.00    -0.383 N 
HETATM   41  H   UNK N   1      35.288   8.669  19.637  0.00  0.00     0.157 HD
HETATM   42  H   UNK N   1      34.484   9.451  20.921  0.00  0.00     0.157 HD
ENDBRANCH  33  40
ENDBRANCH   4  28
TORSDOF 15
ENDMDL
MODEL 7
REMARK VINA RESULT:      -7.0     10.311     13.028
REMARK  15 active torsions:
REMARK  status: ('A' for Active; 'I' for Inactive)
REMARK    1  A    between atoms: C_4  and  C_1 
REMARK    2  A    between atoms: O_27  and  C_1 
REMARK    3  A    between atoms: C_6  and  O_19 
REMARK    4  A    between atoms: C_7  and  O_20 
REMARK    5  A    between atoms: N_11  and  C_8 
REMARK    6  A    between atoms: C_10  and  N_18 
REMARK    7  A    between atoms: P_31  and  O_21 
REMARK    8  A    between atoms: P_32  and  O_23 
REMARK    9  A    between atoms: P_33  and  O_25 
REMARK   10  A    between atoms: P_33  and  O_26 
REMARK   11  A    between atoms: P_31  and  O_27 
REMARK   12  A    between atoms: P_31  and  O_29 
REMARK   13  A    between atoms: P_32  and  O_29 
REMARK   14  A    between atoms: P_32  and  O_30 
REMARK   15  A    between atoms: P_33  and  O_30 
ROOT
HETATM    1  C   UNK N   1      20.628  17.091   3.218  0.00  0.00     0.180 C 
HETATM    2  C   UNK N   1      19.842  18.386   3.321  0.00  0.00     0.182 C 
HETATM    3  C   UNK N   1      20.957  19.355   3.173  0.00  0.00     0.198 C 
HETATM    4  C   UNK N   1      21.972  18.700   4.109  0.00  0.00     0.262 C 
HETATM    5  O   UNK N   1      21.857  17.298   3.901  0.00  0.00    -0.353 OA
ENDROOT
BRANCH   1   6
HETATM    6  C   UNK N   1      19.786  15.976   3.830  0.00  0.00     0.215 C 
BRANCH   6   7
HETATM    7  O   UNK N   1      18.838  16.471   4.720  0.00  0.00    -0.294 OA
BRANCH   7   8
HETATM    8  P   UNK N   1      19.448  16.015   6.289  0.00  0.00     0.401 P 
HETATM    9  O   UNK N   1      18.283  16.202   7.298  0.00  0.00    -0.631 OA
BRANCH   8  10
HETATM   10  O   UNK N   1      20.733  17.061   6.812  0.00  0.00    -0.307 OA
HETATM   11  H   UNK N   1      21.614  17.421   6.629  0.00  0.00     0.222 HD
ENDBRANCH   8  10
BRANCH   8  12
HETATM   12  O   UNK N   1      19.923  14.342   6.412  0.00  0.00    -0.195 OA
BRANCH  12  13
HETATM   13  P   UNK N   1      20.949  14.179   7.816  0.00  0.00     0.409 P 
HETATM   14  O   UNK N   1      20.935  12.693   8.264  0.00  0.00    -0.631 OA
BRANCH  13  15
HETATM   15  O   UNK N   1      20.373  15.143   9.139  0.00  0.00    -0.307 OA
HETATM   16  H   UNK N   1      20.272  15.994   9.593  0.00  0.00     0.222 HD
ENDBRANCH  13  15
BRANCH  13  17
HETATM   17  O   UNK N   1      22.614  14.608   7.488  0.00  0.00    -0.213 OA
BRANCH  17  18
HETATM   18  P   UNK N   1      23.113  13.714   6.079  0.00  0.00     0.332 P 
HETATM   19  S   UNK N   1      24.550  13.632   7.105  0.00  0.00    -0.007 SA
BRANCH  18  20
HETATM   20  O   UNK N   1      24.368  14.317   5.043  0.00  0.00    -0.324 OA
HETATM   21  H   UNK N   1      25.006  14.969   5.374  0.00  0.00     0.220 HD
ENDBRANCH  18  20
BRANCH  18  22
HETATM   22  O   UNK N   1      22.822  15.362   5.611  0.00  0.00    -0.324 OA
HETATM   23  H   UNK N   1      22.604  15.938   4.861  0.00  0.00     0.220 HD
ENDBRANCH  18  22
ENDBRANCH  17  18
ENDBRANCH  13  17
ENDBRANCH  12  13
ENDBRANCH   8  12
ENDBRANCH   7   8
ENDBRANCH   6   7
ENDBRANCH   1   6
BRANCH   2  24
HETATM   24  O   UNK N   1      18.868  18.510   2.328  0.00  0.00    -0.390 OA
HETATM   25  H   UNK N   1      18.773  19.182   1.635  0.00  0.00     0.210 HD
ENDBRANCH   2  24
BRANCH   3  26
HETATM   26  O   UNK N   1      20.594  20.646   3.565  0.00  0.00    -0.388 OA
HETATM   27  H   UNK N   1      19.864  21.010   4.091  0.00  0.00     0.210 HD
ENDBRANCH   3  26
BRANCH   4  28
HETATM   28  N   UNK N   1      23.354  19.165   3.890  0.00  0.00    -0.297 N 
HETATM   29  C   UNK N   1      23.708  20.223   3.114  0.00  0.00     0.188 A 
HETATM   30  N   UNK N   1      25.059  20.399   3.087  0.00  0.00    -0.346 N 
HETATM   31  C   UNK N   1      25.541  19.407   3.856  0.00  0.00     0.122 A 
ATOM     32  HN  UNK N   1      25.587  21.122   2.596  1.00  0.00     0.167 HD
HETATM   33  C   UNK N   1      26.853  19.075   4.164  0.00  0.00     0.131 A 
HETATM   34  C   UNK N   1      24.524  18.668   4.339  0.00  0.00     0.142 A 
HETATM   35  N   UNK N   1      27.070  17.982   4.954  0.00  0.00    -0.337 N 
HETATM   36  C   UNK N   1      26.020  17.237   5.430  0.00  0.00     0.183 A 
ATOM     37  HN  UNK N   1      28.025  17.716   5.193  1.00  0.00     0.168 HD
HETATM   38  N   UNK N   1      24.732  17.580   5.122  0.00  0.00    -0.336 N 
ATOM     39  HN  UNK N   1      23.947  17.031   5.474  1.00  0.00     0.168 HD
BRANCH  33  40
HETATM   40  N   UNK N   1      27.935  19.830   3.672  0.00  0.00    -0.383 N 
HETATM   41  H   UNK N   1      28.394  20.477   4.256  0.00  0.00     0.157 HD
HETATM   42  H   UNK N   1      28.235  19.711   2.741  0.00  0.00     0.157 HD
ENDBRANCH  33  40
ENDBRANCH   4  28
TORSDOF 15
ENDMDL
MODEL 8
REMARK VINA RESULT:      -7.0      2.671      4.581
REMARK  15 active torsions:
REMARK  status: ('A' for Active; 'I' for Inactive)
REMARK    1  A    between atoms: C_4  and  C_1 
REMARK    2  A    between atoms: O_27  and  C_1 
REMARK    3  A    between atoms: C_6  and  O_19 
REMARK    4  A    between atoms: C_7  and  O_20 
REMARK    5  A    between atoms: N_11  and  C_8 
REMARK    6  A    between atoms: C_10  and  N_18 
REMARK    7  A    between atoms: P_31  and  O_21 
REMARK    8  A    between atoms: P_32  and  O_23 
REMARK    9  A    between atoms: P_33  and  O_25 
REMARK   10  A    between atoms: P_33  and  O_26 
REMARK   11  A    between atoms: P_31  and  O_27 
REMARK   12  A    between atoms: P_31  and  O_29 
REMARK   13  A    between atoms: P_32  and  O_29 
REMARK   14  A    between atoms: P_32  and  O_30 
REMARK   15  A    between atoms: P_33  and  O_30 
ROOT
HETATM    1  C   UNK N   1      30.644  16.797   7.575  0.00  0.00     0.180 C 
HETATM    2  C   UNK N   1      30.091  17.439   8.835  0.00  0.00     0.182 C 
HETATM    3  C   UNK N   1      28.642  17.388   8.514  0.00  0.00     0.198 C 
HETATM    4  C   UNK N   1      28.699  17.868   7.064  0.00  0.00     0.262 C 
HETATM    5  O   UNK N   1      29.852  17.264   6.491  0.00  0.00    -0.353 OA
ENDROOT
BRANCH   1   6
HETATM    6  C   UNK N   1      32.113  17.183   7.451  0.00  0.00     0.215 C 
BRANCH   6   7
HETATM    7  O   UNK N   1      32.574  17.844   8.586  0.00  0.00    -0.294 OA
BRANCH   7   8
HETATM    8  P   UNK N   1      34.311  17.775   8.443  0.00  0.00     0.401 P 
HETATM    9  O   UNK N   1      34.808  19.236   8.273  0.00  0.00    -0.631 OA
BRANCH   8  10
HETATM   10  O   UNK N   1      34.810  16.909   7.023  0.00  0.00    -0.307 OA
HETATM   11  H   UNK N   1      35.547  16.628   6.459  0.00  0.00     0.222 HD
ENDBRANCH   8  10
BRANCH   8  12
HETATM   12  O   UNK N   1      35.119  17.158   9.860  0.00  0.00    -0.195 OA
BRANCH  12  13
HETATM   13  P   UNK N   1      34.625  15.497  10.076  0.00  0.00     0.409 P 
HETATM   14  O   UNK N   1      34.817  14.748   8.729  0.00  0.00    -0.631 OA
BRANCH  13  15
HETATM   15  O   UNK N   1      32.949  15.384  10.516  0.00  0.00    -0.307 OA
HETATM   16  H   UNK N   1      32.154  14.866  10.718  0.00  0.00     0.222 HD
ENDBRANCH  13  15
BRANCH  13  17
HETATM   17  O   UNK N   1      35.582  14.659  11.278  0.00  0.00    -0.213 OA
BRANCH  17  18
HETATM   18  P   UNK N   1      36.747  13.683  10.426  0.00  0.00     0.332 P 
HETATM   19  S   UNK N   1      36.847  13.041  12.070  0.00  0.00    -0.007 SA
BRANCH  18  20
HETATM   20  O   UNK N   1      38.439  13.801  10.791  0.00  0.00    -0.324 OA
HETATM   21  H   UNK N   1      38.752  14.415  11.473  0.00  0.00     0.220 HD
ENDBRANCH  18  20
BRANCH  18  22
HETATM   22  O   UNK N   1      37.293  15.333  10.410  0.00  0.00    -0.324 OA
HETATM   23  H   UNK N   1      38.055  15.905  10.226  0.00  0.00     0.220 HD
ENDBRANCH  18  22
ENDBRANCH  17  18
ENDBRANCH  13  17
ENDBRANCH  12  13
ENDBRANCH   8  12
ENDBRANCH   7   8
ENDBRANCH   6   7
ENDBRANCH   1   6
BRANCH   2  24
HETATM   24  O   UNK N   1      30.425  16.735   9.994  0.00  0.00    -0.390 OA
HETATM   25  H   UNK N   1      30.519  15.780  10.133  0.00  0.00     0.210 HD
ENDBRANCH   2  24
BRANCH   3  26
HETATM   26  O   UNK N   1      27.886  18.219   9.344  0.00  0.00    -0.388 OA
HETATM   27  H   UNK N   1      27.317  18.989   9.189  0.00  0.00     0.210 HD
ENDBRANCH   3  26
BRANCH   4  28
HETATM   28  N   UNK N   1      27.484  17.545   6.294  0.00  0.00    -0.297 N 
HETATM   29  C   UNK N   1      26.995  16.292   6.099  0.00  0.00     0.188 A 
HETATM   30  N   UNK N   1      25.869  16.305   5.329  0.00  0.00    -0.346 N 
HETATM   31  C   UNK N   1      25.681  17.604   5.034  0.00  0.00     0.122 A 
ATOM     32  HN  UNK N   1      25.298  15.510   5.042  1.00  0.00     0.167 HD
HETATM   33  C   UNK N   1      24.705  18.208   4.255  0.00  0.00     0.131 A 
HETATM   34  C   UNK N   1      26.644  18.348   5.611  0.00  0.00     0.142 A 
HETATM   35  N   UNK N   1      24.764  19.562   4.089  0.00  0.00    -0.337 N 
HETATM   36  C   UNK N   1      25.757  20.302   4.679  0.00  0.00     0.183 A 
ATOM     37  HN  UNK N   1      24.059  20.030   3.519  1.00  0.00     0.168 HD
HETATM   38  N   UNK N   1      26.710  19.693   5.450  0.00  0.00    -0.336 N 
ATOM     39  HN  UNK N   1      27.450  20.237   5.892  1.00  0.00     0.168 HD
BRANCH  33  40
HETATM   40  N   UNK N   1      23.687  17.454   3.639  0.00  0.00    -0.383 N 
HETATM   41  H   UNK N   1      23.305  17.746   2.780  0.00  0.00     0.157 HD
HETATM   42  H   UNK N   1      23.356  16.631   4.068  0.00  0.00     0.157 HD
ENDBRANCH  33  40
ENDBRANCH   4  28
TORSDOF 15
ENDMDL
MODEL 9
REMARK VINA RESULT:      -7.0      1.555      2.050
REMARK  15 active torsions:
REMARK  status: ('A' for Active; 'I' for Inactive)
REMARK    1  A    between atoms: C_4  and  C_1 
REMARK    2  A    between atoms: O_27  and  C_1 
REMARK    3  A    between atoms: C_6  and  O_19 
REMARK    4  A    between atoms: C_7  and  O_20 
REMARK    5  A    between atoms: N_11  and  C_8 
REMARK    6  A    between atoms: C_10  and  N_18 
REMARK    7  A    between atoms: P_31  and  O_21 
REMARK    8  A    between atoms: P_32  and  O_23 
REMARK    9  A    between atoms: P_33  and  O_25 
REMARK   10  A    between atoms: P_33  and  O_26 
REMARK   11  A    between atoms: P_31  and  O_27 
REMARK   12  A    between atoms: P_31  and  O_29 
REMARK   13  A    between atoms: P_32  and  O_29 
REMARK   14  A    between atoms: P_32  and  O_30 
REMARK   15  A    between atoms: P_33  and  O_30 
ROOT
HETATM    1  C   UNK N   1      33.401  15.971   7.736  0.00  0.00     0.180 C 
HETATM    2  C   UNK N   1      33.794  15.674   6.300  0.00  0.00     0.182 C 
HETATM    3  C   UNK N   1      32.749  16.463   5.598  0.00  0.00     0.198 C 
HETATM    4  C   UNK N   1      31.535  16.050   6.431  0.00  0.00     0.262 C 
HETATM    5  O   UNK N   1      31.981  15.993   7.780  0.00  0.00    -0.353 OA
ENDROOT
BRANCH   1   6
HETATM    6  C   UNK N   1      34.009  14.892   8.625  0.00  0.00     0.215 C 
BRANCH   6   7
HETATM    7  O   UNK N   1      35.372  15.090   8.825  0.00  0.00    -0.294 OA
BRANCH   7   8
HETATM    8  P   UNK N   1      35.463  15.901  10.366  0.00  0.00     0.401 P 
HETATM    9  O   UNK N   1      34.953  17.351  10.145  0.00  0.00    -0.631 OA
BRANCH   8  10
HETATM   10  O   UNK N   1      37.100  16.029  10.934  0.00  0.00    -0.307 OA
HETATM   11  H   UNK N   1      37.776  15.700  11.546  0.00  0.00     0.222 HD
ENDBRANCH   8  10
BRANCH   8  12
HETATM   12  O   UNK N   1      34.434  15.215  11.595  0.00  0.00    -0.195 OA
BRANCH  12  13
HETATM   13  P   UNK N   1      35.080  13.649  12.021  0.00  0.00     0.409 P 
HETATM   14  O   UNK N   1      36.533  13.555  11.483  0.00  0.00    -0.631 OA
BRANCH  13  15
HETATM   15  O   UNK N   1      34.160  12.365  11.302  0.00  0.00    -0.307 OA
HETATM   16  H   UNK N   1      33.715  11.504  11.351  0.00  0.00     0.222 HD
ENDBRANCH  13  15
BRANCH  13  17
HETATM   17  O   UNK N   1      35.148  13.395  13.751  0.00  0.00    -0.213 OA
BRANCH  17  18
HETATM   18  P   UNK N   1      36.828  13.243  14.188  0.00  0.00     0.332 P 
HETATM   19  S   UNK N   1      36.007  12.797  15.688  0.00  0.00    -0.007 SA
BRANCH  18  20
HETATM   20  O   UNK N   1      37.541  14.309  15.356  0.00  0.00    -0.324 OA
HETATM   21  H   UNK N   1      38.470  14.203  15.614  0.00  0.00     0.220 HD
ENDBRANCH  18  20
BRANCH  18  22
HETATM   22  O   UNK N   1      36.504  14.909  13.817  0.00  0.00    -0.324 OA
HETATM   23  H   UNK N   1      36.639  15.607  13.156  0.00  0.00     0.220 HD
ENDBRANCH  18  22
ENDBRANCH  17  18
ENDBRANCH  13  17
ENDBRANCH  12  13
ENDBRANCH   8  12
ENDBRANCH   7   8
ENDBRANCH   6   7
ENDBRANCH   1   6
BRANCH   2  24
HETATM   24  O   UNK N   1      35.093  16.087   5.996  0.00  0.00    -0.390 OA
HETATM   25  H   UNK N   1      35.563  16.894   6.257  0.00  0.00     0.210 HD
ENDBRANCH   2  24
BRANCH   3  26
HETATM   26  O   UNK N   1      32.639  16.116   4.249  0.00  0.00    -0.388 OA
HETATM   27  H   UNK N   1      33.271  16.053   3.516  0.00  0.00     0.210 HD
ENDBRANCH   3  26
BRANCH   4  28
HETATM   28  N   UNK N   1      30.386  16.962   6.282  0.00  0.00    -0.297 N 
HETATM   29  C   UNK N   1      29.949  17.479   5.103  0.00  0.00     0.188 A 
HETATM   30  N   UNK N   1      28.880  18.306   5.282  0.00  0.00    -0.346 N 
HETATM   31  C   UNK N   1      28.673  18.303   6.611  0.00  0.00     0.122 A 
ATOM     32  HN  UNK N   1      28.353  18.811   4.569  1.00  0.00     0.167 HD
HETATM   33  C   UNK N   1      27.736  18.990   7.368  0.00  0.00     0.131 A 
HETATM   34  C   UNK N   1      29.572  17.499   7.211  0.00  0.00     0.142 A 
HETATM   35  N   UNK N   1      27.765  18.832   8.724  0.00  0.00    -0.337 N 
HETATM   36  C   UNK N   1      28.694  18.014   9.318  0.00  0.00     0.183 A 
ATOM     37  HN  UNK N   1      27.088  19.327   9.304  1.00  0.00     0.168 HD
HETATM   38  N   UNK N   1      29.608  17.338   8.557  0.00  0.00    -0.336 N 
ATOM     39  HN  UNK N   1      30.300  16.728   8.993  1.00  0.00     0.168 HD
BRANCH  33  40
HETATM   40  N   UNK N   1      26.785  19.838   6.766  0.00  0.00    -0.383 N 
HETATM   41  H   UNK N   1      26.925  20.166   5.848  0.00  0.00     0.157 HD
HETATM   42  H   UNK N   1      25.979  20.105   7.264  0.00  0.00     0.157 HD
ENDBRANCH  33  40
ENDBRANCH   4  28
TORSDOF 15
ENDMDL
