MODEL 1
REMARK VINA RESULT:      -3.7      0.000      0.000
REMARK  2 active torsions:
REMARK  status: ('A' for Active; 'I' for Inactive)
REMARK    1  A    between atoms: C_2  and  C_4 
REMARK    2  A    between atoms: C_4  and  O_5 
ROOT
HETATM    1  C   UNK N   1      23.608  12.019  12.054  0.00  0.00     0.143 C 
HETATM    2  O   UNK N   1      23.196  11.890  13.194  0.00  0.00    -0.650 OA
ENDROOT
BRANCH   1   3
HETATM    3  C   UNK N   1      22.655  11.936  10.897  0.00  0.00     0.075 C 
HETATM    4  C   UNK N   1      21.194  12.290  11.095  0.00  0.00     0.020 C 
HETATM    5  C   UNK N   1      23.126  11.503   9.521  0.00  0.00     0.020 C 
ENDBRANCH   1   3
BRANCH   1   6
HETATM    6  O   UNK N   1      24.920  12.234  11.840  0.00  0.00    -0.776 OA
HETATM    7  H   UNK N   1      25.375  12.887  12.335  0.00  0.00     0.167 HD
ENDBRANCH   1   6
TORSDOF 2
ENDMDL
MODEL 2
REMARK VINA RESULT:      -3.7      0.242      1.526
REMARK  2 active torsions:
REMARK  status: ('A' for Active; 'I' for Inactive)
REMARK    1  A    between atoms: C_2  and  C_4 
REMARK    2  A    between atoms: C_4  and  O_5 
ROOT
HETATM    1  C   UNK N   1      23.822  12.091  12.020  0.00  0.00     0.143 C 
HETATM    2  O   UNK N   1      23.548  11.995  13.205  0.00  0.00    -0.650 OA
ENDROOT
BRANCH   1   3
HETATM    3  C   UNK N   1      22.748  11.927  10.985  0.00  0.00     0.075 C 
HETATM    4  C   UNK N   1      23.111  11.472   9.585  0.00  0.00     0.020 C 
HETATM    5  C   UNK N   1      21.293  12.209  11.312  0.00  0.00     0.020 C 
ENDBRANCH   1   3
BRANCH   1   6
HETATM    6  O   UNK N   1      25.092  12.343  11.649  0.00  0.00    -0.776 OA
HETATM    7  H   UNK N   1      25.608  11.668  11.254  0.00  0.00     0.167 HD
ENDBRANCH   1   6
TORSDOF 2
ENDMDL
MODEL 3
REMARK VINA RESULT:      -3.7      1.639      2.295
REMARK  2 active torsions:
REMARK  status: ('A' for Active; 'I' for Inactive)
REMARK    1  A    between atoms: C_2  and  C_4 
REMARK    2  A    between atoms: C_4  and  O_5 
ROOT
HETATM    1  C   UNK N   1      24.407  12.262  10.740  0.00  0.00     0.143 C 
HETATM    2  O   UNK N   1      24.460  11.857   9.591  0.00  0.00    -0.650 OA
ENDROOT
BRANCH   1   3
HETATM    3  C   UNK N   1      23.145  12.102  11.535  0.00  0.00     0.075 C 
HETATM    4  C   UNK N   1      21.799  12.184  10.841  0.00  0.00     0.020 C 
HETATM    5  C   UNK N   1      23.185  11.859  13.033  0.00  0.00     0.020 C 
ENDBRANCH   1   3
BRANCH   1   6
HETATM    6  O   UNK N   1      25.487  12.850  11.289  0.00  0.00    -0.776 OA
HETATM    7  H   UNK N   1      25.530  13.784  11.355  0.00  0.00     0.167 HD
ENDBRANCH   1   6
TORSDOF 2
ENDMDL
MODEL 4
REMARK VINA RESULT:      -3.5     12.251     12.939
REMARK  2 active torsions:
REMARK  status: ('A' for Active; 'I' for Inactive)
REMARK    1  A    between atoms: C_2  and  C_4 
REMARK    2  A    between atoms: C_4  and  O_5 
ROOT
HETATM    1  C   UNK N   1      34.624  18.203   8.596  0.00  0.00     0.143 C 
HETATM    2  O   UNK N   1      35.275  19.212   8.386  0.00  0.00    -0.650 OA
ENDROOT
BRANCH   1   3
HETATM    3  C   UNK N   1      33.481  17.845   7.692  0.00  0.00     0.075 C 
HETATM    4  C   UNK N   1      32.068  17.803   8.240  0.00  0.00     0.020 C 
HETATM    5  C   UNK N   1      33.710  17.520   6.227  0.00  0.00     0.020 C 
ENDBRANCH   1   3
BRANCH   1   6
HETATM    6  O   UNK N   1      34.937  17.414   9.642  0.00  0.00    -0.776 OA
HETATM    7  H   UNK N   1      35.546  16.711   9.534  0.00  0.00     0.167 HD
ENDBRANCH   1   6
TORSDOF 2
ENDMDL
MODEL 5
REMARK VINA RESULT:      -3.5     12.025     12.780
REMARK  2 active torsions:
REMARK  status: ('A' for Active; 'I' for Inactive)
REMARK    1  A    between atoms: C_2  and  C_4 
REMARK    2  A    between atoms: C_4  and  O_5 
ROOT
HETATM    1  C   UNK N   1      34.311  18.191   7.761  0.00  0.00     0.143 C 
HETATM    2  O   UNK N   1      34.503  17.995   6.573  0.00  0.00    -0.650 OA
ENDROOT
BRANCH   1   3
HETATM    3  C   UNK N   1      33.261  17.407   8.492  0.00  0.00     0.075 C 
HETATM    4  C   UNK N   1      33.643  16.140   9.233  0.00  0.00     0.020 C 
HETATM    5  C   UNK N   1      31.812  17.856   8.506  0.00  0.00     0.020 C 
ENDBRANCH   1   3
BRANCH   1   6
HETATM    6  O   UNK N   1      35.045  19.115   8.411  0.00  0.00    -0.776 OA
HETATM    7  H   UNK N   1      34.999  20.015   8.156  0.00  0.00     0.167 HD
ENDBRANCH   1   6
TORSDOF 2
ENDMDL
MODEL 6
REMARK VINA RESULT:      -3.4     22.268     22.962
REMARK  2 active torsions:
REMARK  status: ('A' for Active; 'I' for Inactive)
REMARK    1  A    between atoms: C_2  and  C_4 
REMARK    2  A    between atoms: C_4  and  O_5 
ROOT
HETATM    1  C   UNK N   1      25.866  28.442  -3.780  0.00  0.00     0.143 C 
HETATM    2  O   UNK N   1      25.762  27.699  -2.819  0.00  0.00    -0.650 OA
ENDROOT
BRANCH   1   3
HETATM    3  C   UNK N   1      25.884  27.876  -5.169  0.00  0.00     0.075 C 
HETATM    4  C   UNK N   1      27.081  28.117  -6.068  0.00  0.00     0.020 C 
HETATM    5  C   UNK N   1      24.721  27.059  -5.699  0.00  0.00     0.020 C 
ENDBRANCH   1   3
BRANCH   1   6
HETATM    6  O   UNK N   1      25.965  29.771  -3.586  0.00  0.00    -0.776 OA
HETATM    7  H   UNK N   1      26.579  30.274  -4.085  0.00  0.00     0.167 HD
ENDBRANCH   1   6
TORSDOF 2
ENDMDL
MODEL 7
REMARK VINA RESULT:      -3.4     12.339     12.947
REMARK  2 active torsions:
REMARK  status: ('A' for Active; 'I' for Inactive)
REMARK    1  A    between atoms: C_2  and  C_4 
REMARK    2  A    between atoms: C_4  and  O_5 
ROOT
HETATM    1  C   UNK N   1      20.894  20.417   1.257  0.00  0.00     0.143 C 
HETATM    2  O   UNK N   1      21.382  21.434   1.720  0.00  0.00    -0.650 OA
ENDROOT
BRANCH   1   3
HETATM    3  C   UNK N   1      20.635  19.236   2.146  0.00  0.00     0.075 C 
HETATM    4  C   UNK N   1      20.178  17.922   1.544  0.00  0.00     0.020 C 
HETATM    5  C   UNK N   1      20.822  19.329   3.649  0.00  0.00     0.020 C 
ENDBRANCH   1   3
BRANCH   1   6
HETATM    6  O   UNK N   1      20.590  20.361  -0.053  0.00  0.00    -0.776 OA
HETATM    7  H   UNK N   1      19.982  20.973  -0.420  0.00  0.00     0.167 HD
ENDBRANCH   1   6
TORSDOF 2
ENDMDL
MODEL 8
REMARK VINA RESULT:      -3.4      2.192      2.889
REMARK  2 active torsions:
REMARK  status: ('A' for Active; 'I' for Inactive)
REMARK    1  A    between atoms: C_2  and  C_4 
REMARK    2  A    between atoms: C_4  and  O_5 
ROOT
HETATM    1  C   UNK N   1      21.637  12.155  11.086  0.00  0.00     0.143 C 
HETATM    2  O   UNK N   1      21.440  12.522   9.940  0.00  0.00    -0.650 OA
ENDROOT
BRANCH   1   3
HETATM    3  C   UNK N   1      23.037  12.073  11.619  0.00  0.00     0.075 C 
HETATM    4  C   UNK N   1      23.270  11.887  13.106  0.00  0.00     0.020 C 
HETATM    5  C   UNK N   1      24.236  12.174  10.695  0.00  0.00     0.020 C 
ENDBRANCH   1   3
BRANCH   1   6
HETATM    6  O   UNK N   1      20.591  11.823  11.867  0.00  0.00    -0.776 OA
HETATM    7  H   UNK N   1      20.701  11.757  12.795  0.00  0.00     0.167 HD
ENDBRANCH   1   6
TORSDOF 2
ENDMDL
MODEL 9
REMARK VINA RESULT:      -3.3     19.090     19.503
REMARK  2 active torsions:
REMARK  status: ('A' for Active; 'I' for Inactive)
REMARK    1  A    between atoms: C_2  and  C_4 
REMARK    2  A    between atoms: C_4  and  O_5 
ROOT
HETATM    1  C   UNK N   1      31.304  22.091  -2.574  0.00  0.00     0.143 C 
HETATM    2  O   UNK N   1      30.827  22.941  -1.840  0.00  0.00    -0.650 OA
ENDROOT
BRANCH   1   3
HETATM    3  C   UNK N   1      30.689  21.829  -3.917  0.00  0.00     0.075 C 
HETATM    4  C   UNK N   1      31.082  20.591  -4.699  0.00  0.00     0.020 C 
HETATM    5  C   UNK N   1      29.674  22.784  -4.517  0.00  0.00     0.020 C 
ENDBRANCH   1   3
BRANCH   1   6
HETATM    6  O   UNK N   1      32.382  21.392  -2.171  0.00  0.00    -0.776 OA
HETATM    7  H   UNK N   1      33.120  21.838  -1.803  0.00  0.00     0.167 HD
ENDBRANCH   1   6
TORSDOF 2
ENDMDL
