REMARK  1 active torsions:
REMARK  status: ('A' for Active; 'I' for Inactive)
REMARK    1  A    between atoms: C_4  and  C_2 
ROOT
HETATM    1  C   UNK N   1       3.124   1.853   0.347  0.00  0.00     0.016 C 
HETATM    2  C   UNK N   1       3.044   0.751  -0.700  0.00  0.00     0.012 C 
HETATM    3  C   UNK N   1       1.987  -0.266  -0.295  0.00  0.00     0.041 C 
HETATM    4  C   UNK N   1       0.652   0.368   0.102  0.00  0.00     0.084 A 
HETATM    5  C   UNK N   1      -0.490  -0.531   0.519  0.00  0.00     0.049 C 
HETATM    6  O   UNK N   1       0.205   1.335  -0.811  0.00  0.00    -0.370 OA
HETATM    7  C   UNK N   1       0.551   1.811   0.481  0.00  0.00     0.157 A 
HETATM    8  C   UNK N   1       1.819   2.655   0.322  0.00  0.00     0.044 C 
ENDROOT
BRANCH   1   9
HETATM    9  C   UNK N   1       4.333   2.720   0.092  0.00  0.00    -0.089 C 
HETATM   10  C   UNK N   1       4.207   4.179  -0.211  0.00  0.00     0.043 C 
HETATM   11  C   UNK N   1       5.552   2.186   0.156  0.00  0.00     0.014 C 
ENDBRANCH   1   9
TORSDOF 1
