MODEL 1
REMARK VINA RESULT:      -6.6      0.000      0.000
REMARK  7 active torsions:
REMARK  status: ('A' for Active; 'I' for Inactive)
REMARK    1  A    between atoms: C_8  and  C_5 
REMARK    2  A    between atoms: O_14  and  C_5 
REMARK    3  A    between atoms: N_13  and  C_6 
REMARK    4  A    between atoms: O_20  and  C_7 
REMARK    5  A    between atoms: C_9  and  O_15 
REMARK    6  A    between atoms: C_10  and  O_16 
REMARK    7  A    between atoms: C_12  and  O_20 
ROOT
HETATM    1  C   UNK N   1      33.450  16.166   9.302  0.00  0.00     0.179 C 
HETATM    2  C   UNK N   1      34.720  17.024   9.080  0.00  0.00     0.180 C 
HETATM    3  C   UNK N   1      34.316  18.328   8.399  0.00  0.00     0.183 C 
HETATM    4  C   UNK N   1      33.553  18.011   7.118  0.00  0.00     0.205 C 
HETATM    5  C   UNK N   1      32.346  17.091   7.442  0.00  0.00     0.298 C 
HETATM    6  O   UNK N   1      34.397  17.382   6.195  0.00  0.00    -0.388 OA
HETATM    7  O   UNK N   1      32.804  15.897   8.063  0.00  0.00    -0.348 OA
HETATM    8  H   UNK N   1      35.013  16.888   5.631  0.00  0.00     0.210 HD
ENDROOT
BRANCH   3   9
HETATM    9  O   UNK N   1      35.442  19.103   8.109  0.00  0.00    -0.390 OA
HETATM   10  H   UNK N   1      36.281  19.005   8.585  0.00  0.00     0.210 HD
ENDBRANCH   3   9
BRANCH   5  11
HETATM   11  O   UNK N   1      31.597  16.735   6.317  0.00  0.00    -0.318 OA
BRANCH  11  12
HETATM   12  C   UNK N   1      30.354  17.202   6.028  0.00  0.00     0.072 A 
HETATM   13  C   UNK N   1      29.473  17.561   7.057  0.00  0.00     0.039 A 
HETATM   14  C   UNK N   1      28.218  18.106   6.745  0.00  0.00     0.039 A 
HETATM   15  C   UNK N   1      27.833  18.281   5.401  0.00  0.00     0.103 A 
HETATM   16  C   UNK N   1      28.695  17.862   4.386  0.00  0.00     0.039 A 
HETATM   17  C   UNK N   1      29.931  17.321   4.700  0.00  0.00     0.039 A 
BRANCH  15  18
HETATM   18  N   UNK N   1      26.599  18.905   5.064  0.00  0.00    -0.116 N 
HETATM   19  O   UNK N   1      25.899  18.438   4.220  0.00  0.00    -0.532 OA
HETATM   20  O   UNK N   1      26.226  19.864   5.674  0.00  0.00    -0.532 OA
ENDBRANCH  15  18
ENDBRANCH  11  12
ENDBRANCH   5  11
BRANCH   2  21
HETATM   21  O   UNK N   1      35.349  17.317  10.293  0.00  0.00    -0.390 OA
HETATM   22  H   UNK N   1      35.415  16.723  11.058  0.00  0.00     0.210 HD
ENDBRANCH   2  21
BRANCH   1  23
HETATM   23  C   UNK N   1      33.809  14.822   9.930  0.00  0.00     0.198 C 
BRANCH  23  24
HETATM   24  O   UNK N   1      33.677  14.861  11.320  0.00  0.00    -0.398 OA
HETATM   25  H   UNK N   1      33.757  14.116  11.936  0.00  0.00     0.209 HD
ENDBRANCH  23  24
ENDBRANCH   1  23
TORSDOF 7
ENDMDL
MODEL 2
REMARK VINA RESULT:      -6.5      4.772      7.801
REMARK  7 active torsions:
REMARK  status: ('A' for Active; 'I' for Inactive)
REMARK    1  A    between atoms: C_8  and  C_5 
REMARK    2  A    between atoms: O_14  and  C_5 
REMARK    3  A    between atoms: N_13  and  C_6 
REMARK    4  A    between atoms: O_20  and  C_7 
REMARK    5  A    between atoms: C_9  and  O_15 
REMARK    6  A    between atoms: C_10  and  O_16 
REMARK    7  A    between atoms: C_12  and  O_20 
ROOT
HETATM    1  C   UNK N   1      36.707  13.099  14.156  0.00  0.00     0.179 C 
HETATM    2  C   UNK N   1      36.618  11.553  14.179  0.00  0.00     0.180 C 
HETATM    3  C   UNK N   1      36.403  11.055  12.753  0.00  0.00     0.183 C 
HETATM    4  C   UNK N   1      35.172  11.735  12.163  0.00  0.00     0.205 C 
HETATM    5  C   UNK N   1      35.333  13.277  12.255  0.00  0.00     0.298 C 
HETATM    6  O   UNK N   1      34.021  11.335  12.851  0.00  0.00    -0.388 OA
HETATM    7  O   UNK N   1      35.519  13.661  13.611  0.00  0.00    -0.348 OA
HETATM    8  H   UNK N   1      33.274  11.073  13.412  0.00  0.00     0.210 HD
ENDROOT
BRANCH   3   9
HETATM    9  O   UNK N   1      36.240   9.667  12.734  0.00  0.00    -0.390 OA
HETATM   10  H   UNK N   1      36.961   9.059  12.508  0.00  0.00     0.210 HD
ENDBRANCH   3   9
BRANCH   5  11
HETATM   11  O   UNK N   1      34.237  13.984  11.751  0.00  0.00    -0.318 OA
BRANCH  11  12
HETATM   12  C   UNK N   1      34.318  15.051  10.913  0.00  0.00     0.072 A 
HETATM   13  C   UNK N   1      35.243  16.075  11.155  0.00  0.00     0.039 A 
HETATM   14  C   UNK N   1      35.363  17.138  10.245  0.00  0.00     0.039 A 
HETATM   15  C   UNK N   1      34.547  17.187   9.097  0.00  0.00     0.103 A 
HETATM   16  C   UNK N   1      33.587  16.193   8.901  0.00  0.00     0.039 A 
HETATM   17  C   UNK N   1      33.471  15.149   9.804  0.00  0.00     0.039 A 
BRANCH  15  18
HETATM   18  N   UNK N   1      34.708  18.212   8.123  0.00  0.00    -0.116 N 
HETATM   19  O   UNK N   1      35.162  19.271   8.432  0.00  0.00    -0.532 OA
HETATM   20  O   UNK N   1      34.452  17.993   6.976  0.00  0.00    -0.532 OA
ENDBRANCH  15  18
ENDBRANCH  11  12
ENDBRANCH   5  11
BRANCH   2  21
HETATM   21  O   UNK N   1      37.790  10.988  14.689  0.00  0.00    -0.390 OA
HETATM   22  H   UNK N   1      38.413  11.419  15.296  0.00  0.00     0.210 HD
ENDBRANCH   2  21
BRANCH   1  23
HETATM   23  C   UNK N   1      36.866  13.652  15.571  0.00  0.00     0.198 C 
BRANCH  23  24
HETATM   24  O   UNK N   1      37.611  14.833  15.572  0.00  0.00    -0.398 OA
HETATM   25  H   UNK N   1      37.409  15.651  16.054  0.00  0.00     0.209 HD
ENDBRANCH  23  24
ENDBRANCH   1  23
TORSDOF 7
ENDMDL
MODEL 3
REMARK VINA RESULT:      -6.4      5.623     11.295
REMARK  7 active torsions:
REMARK  status: ('A' for Active; 'I' for Inactive)
REMARK    1  A    between atoms: C_8  and  C_5 
REMARK    2  A    between atoms: O_14  and  C_5 
REMARK    3  A    between atoms: N_13  and  C_6 
REMARK    4  A    between atoms: O_20  and  C_7 
REMARK    5  A    between atoms: C_9  and  O_15 
REMARK    6  A    between atoms: C_10  and  O_16 
REMARK    7  A    between atoms: C_12  and  O_20 
ROOT
HETATM    1  C   UNK N   1      20.818  18.299   3.392  0.00  0.00     0.179 C 
HETATM    2  C   UNK N   1      19.926  19.257   2.563  0.00  0.00     0.180 C 
HETATM    3  C   UNK N   1      20.789  19.928   1.497  0.00  0.00     0.183 C 
HETATM    4  C   UNK N   1      21.975  20.613   2.168  0.00  0.00     0.205 C 
HETATM    5  C   UNK N   1      22.755  19.583   3.029  0.00  0.00     0.298 C 
HETATM    6  O   UNK N   1      21.532  21.668   2.974  0.00  0.00    -0.388 OA
HETATM    7  O   UNK N   1      21.888  19.012   4.000  0.00  0.00    -0.348 OA
HETATM    8  H   UNK N   1      21.155  22.336   3.568  0.00  0.00     0.210 HD
ENDROOT
BRANCH   3   9
HETATM    9  O   UNK N   1      20.042  20.860   0.772  0.00  0.00    -0.390 OA
HETATM   10  H   UNK N   1      19.518  20.618  -0.007  0.00  0.00     0.210 HD
ENDBRANCH   3   9
BRANCH   5  11
HETATM   11  O   UNK N   1      23.854  20.132   3.697  0.00  0.00    -0.318 OA
BRANCH  11  12
HETATM   12  C   UNK N   1      25.082  19.554   3.782  0.00  0.00     0.072 A 
HETATM   13  C   UNK N   1      26.224  20.341   3.983  0.00  0.00     0.039 A 
HETATM   14  C   UNK N   1      27.477  19.727   4.138  0.00  0.00     0.039 A 
HETATM   15  C   UNK N   1      27.594  18.324   4.079  0.00  0.00     0.103 A 
HETATM   16  C   UNK N   1      26.457  17.557   3.817  0.00  0.00     0.039 A 
HETATM   17  C   UNK N   1      25.224  18.168   3.661  0.00  0.00     0.039 A 
BRANCH  15  18
HETATM   18  N   UNK N   1      28.840  17.679   4.313  0.00  0.00    -0.116 N 
HETATM   19  O   UNK N   1      29.288  16.924   3.506  0.00  0.00    -0.532 OA
HETATM   20  O   UNK N   1      29.477  17.943   5.290  0.00  0.00    -0.532 OA
ENDBRANCH  15  18
ENDBRANCH  11  12
ENDBRANCH   5  11
BRANCH   2  21
HETATM   21  O   UNK N   1      18.886  18.565   1.939  0.00  0.00    -0.390 OA
HETATM   22  H   UNK N   1      18.976  17.754   1.412  0.00  0.00     0.210 HD
ENDBRANCH   2  21
BRANCH   1  23
HETATM   23  C   UNK N   1      20.011  17.645   4.511  0.00  0.00     0.198 C 
BRANCH  23  24
HETATM   24  O   UNK N   1      19.012  16.816   3.997  0.00  0.00    -0.398 OA
HETATM   25  H   UNK N   1      19.132  16.034   3.437  0.00  0.00     0.209 HD
ENDBRANCH  23  24
ENDBRANCH   1  23
TORSDOF 7
ENDMDL
MODEL 4
REMARK VINA RESULT:      -6.4      5.066      7.681
REMARK  7 active torsions:
REMARK  status: ('A' for Active; 'I' for Inactive)
REMARK    1  A    between atoms: C_8  and  C_5 
REMARK    2  A    between atoms: O_14  and  C_5 
REMARK    3  A    between atoms: N_13  and  C_6 
REMARK    4  A    between atoms: O_20  and  C_7 
REMARK    5  A    between atoms: C_9  and  O_15 
REMARK    6  A    between atoms: C_10  and  O_16 
REMARK    7  A    between atoms: C_12  and  O_20 
ROOT
HETATM    1  C   UNK N   1      34.439  12.169  14.336  0.00  0.00     0.179 C 
HETATM    2  C   UNK N   1      35.783  12.391  15.073  0.00  0.00     0.180 C 
HETATM    3  C   UNK N   1      36.357  13.740  14.646  0.00  0.00     0.183 C 
HETATM    4  C   UNK N   1      36.472  13.779  13.126  0.00  0.00     0.205 C 
HETATM    5  C   UNK N   1      35.090  13.473  12.489  0.00  0.00     0.298 C 
HETATM    6  O   UNK N   1      37.416  12.842  12.688  0.00  0.00    -0.388 OA
HETATM    7  O   UNK N   1      34.629  12.201  12.926  0.00  0.00    -0.348 OA
HETATM    8  H   UNK N   1      38.027  12.129  12.446  0.00  0.00     0.210 HD
ENDROOT
BRANCH   3   9
HETATM    9  O   UNK N   1      37.610  13.950  15.228  0.00  0.00    -0.390 OA
HETATM   10  H   UNK N   1      37.934  14.832  15.469  0.00  0.00     0.210 HD
ENDBRANCH   3   9
BRANCH   5  11
HETATM   11  O   UNK N   1      35.107  13.471  11.091  0.00  0.00    -0.318 OA
BRANCH  11  12
HETATM   12  C   UNK N   1      35.074  14.583  10.310  0.00  0.00     0.072 A 
HETATM   13  C   UNK N   1      34.930  14.471   8.921  0.00  0.00     0.039 A 
HETATM   14  C   UNK N   1      34.829  15.629   8.133  0.00  0.00     0.039 A 
HETATM   15  C   UNK N   1      34.884  16.903   8.731  0.00  0.00     0.103 A 
HETATM   16  C   UNK N   1      35.088  17.000  10.108  0.00  0.00     0.039 A 
HETATM   17  C   UNK N   1      35.192  15.855  10.881  0.00  0.00     0.039 A 
BRANCH  15  18
HETATM   18  N   UNK N   1      34.702  18.086   7.961  0.00  0.00    -0.116 N 
HETATM   19  O   UNK N   1      34.261  18.024   6.855  0.00  0.00    -0.532 OA
HETATM   20  O   UNK N   1      34.928  19.156   8.445  0.00  0.00    -0.532 OA
ENDBRANCH  15  18
ENDBRANCH  11  12
ENDBRANCH   5  11
BRANCH   2  21
HETATM   21  O   UNK N   1      35.605  12.388  16.458  0.00  0.00    -0.390 OA
HETATM   22  H   UNK N   1      35.984  11.746  17.080  0.00  0.00     0.210 HD
ENDBRANCH   2  21
BRANCH   1  23
HETATM   23  C   UNK N   1      33.851  10.804  14.686  0.00  0.00     0.198 C 
BRANCH  23  24
HETATM   24  O   UNK N   1      34.796   9.993  15.318  0.00  0.00    -0.398 OA
HETATM   25  H   UNK N   1      35.757  10.124  15.342  0.00  0.00     0.209 HD
ENDBRANCH  23  24
ENDBRANCH   1  23
TORSDOF 7
ENDMDL
MODEL 5
REMARK VINA RESULT:      -6.4      2.677      6.885
REMARK  7 active torsions:
REMARK  status: ('A' for Active; 'I' for Inactive)
REMARK    1  A    between atoms: C_8  and  C_5 
REMARK    2  A    between atoms: O_14  and  C_5 
REMARK    3  A    between atoms: N_13  and  C_6 
REMARK    4  A    between atoms: O_20  and  C_7 
REMARK    5  A    between atoms: C_9  and  O_15 
REMARK    6  A    between atoms: C_10  and  O_16 
REMARK    7  A    between atoms: C_12  and  O_20 
ROOT
HETATM    1  C   UNK N   1      28.622  17.731   7.278  0.00  0.00     0.179 C 
HETATM    2  C   UNK N   1      28.137  18.551   6.057  0.00  0.00     0.180 C 
HETATM    3  C   UNK N   1      28.256  17.683   4.807  0.00  0.00     0.183 C 
HETATM    4  C   UNK N   1      29.688  17.176   4.681  0.00  0.00     0.205 C 
HETATM    5  C   UNK N   1      30.096  16.434   5.982  0.00  0.00     0.298 C 
HETATM    6  O   UNK N   1      30.561  18.244   4.449  0.00  0.00    -0.388 OA
HETATM    7  O   UNK N   1      29.968  17.309   7.095  0.00  0.00    -0.348 OA
HETATM    8  H   UNK N   1      31.119  19.033   4.360  0.00  0.00     0.210 HD
ENDROOT
BRANCH   3   9
HETATM    9  O   UNK N   1      27.901  18.409   3.666  0.00  0.00    -0.390 OA
HETATM   10  H   UNK N   1      28.448  19.126   3.312  0.00  0.00     0.210 HD
ENDBRANCH   3   9
BRANCH   5  11
HETATM   11  O   UNK N   1      31.406  15.947   5.960  0.00  0.00    -0.318 OA
BRANCH  11  12
HETATM   12  C   UNK N   1      32.326  16.140   6.943  0.00  0.00     0.072 A 
HETATM   13  C   UNK N   1      33.234  17.204   6.867  0.00  0.00     0.039 A 
HETATM   14  C   UNK N   1      34.133  17.432   7.921  0.00  0.00     0.039 A 
HETATM   15  C   UNK N   1      34.135  16.588   9.049  0.00  0.00     0.103 A 
HETATM   16  C   UNK N   1      33.267  15.495   9.083  0.00  0.00     0.039 A 
HETATM   17  C   UNK N   1      32.385  15.272   8.039  0.00  0.00     0.039 A 
BRANCH  15  18
HETATM   18  N   UNK N   1      34.982  16.849  10.162  0.00  0.00    -0.116 N 
HETATM   19  O   UNK N   1      35.051  16.070  11.063  0.00  0.00    -0.532 OA
HETATM   20  O   UNK N   1      35.682  17.819  10.168  0.00  0.00    -0.532 OA
ENDBRANCH  15  18
ENDBRANCH  11  12
ENDBRANCH   5  11
BRANCH   2  21
HETATM   21  O   UNK N   1      26.808  18.950   6.213  0.00  0.00    -0.390 OA
HETATM   22  H   UNK N   1      26.233  19.302   5.514  0.00  0.00     0.210 HD
ENDBRANCH   2  21
BRANCH   1  23
HETATM   23  C   UNK N   1      28.578  18.576   8.548  0.00  0.00     0.198 C 
BRANCH  23  24
HETATM   24  O   UNK N   1      27.417  18.325   9.284  0.00  0.00    -0.398 OA
HETATM   25  H   UNK N   1      26.779  17.608   9.142  0.00  0.00     0.209 HD
ENDBRANCH  23  24
ENDBRANCH   1  23
TORSDOF 7
ENDMDL
MODEL 6
REMARK VINA RESULT:      -6.3      9.997     12.307
REMARK  7 active torsions:
REMARK  status: ('A' for Active; 'I' for Inactive)
REMARK    1  A    between atoms: C_8  and  C_5 
REMARK    2  A    between atoms: O_14  and  C_5 
REMARK    3  A    between atoms: N_13  and  C_6 
REMARK    4  A    between atoms: O_20  and  C_7 
REMARK    5  A    between atoms: C_9  and  O_15 
REMARK    6  A    between atoms: C_10  and  O_16 
REMARK    7  A    between atoms: C_12  and  O_20 
ROOT
HETATM    1  C   UNK N   1      21.368  19.385   3.451  0.00  0.00     0.179 C 
HETATM    2  C   UNK N   1      20.712  18.472   2.385  0.00  0.00     0.180 C 
HETATM    3  C   UNK N   1      19.898  17.396   3.099  0.00  0.00     0.183 C 
HETATM    4  C   UNK N   1      20.797  16.652   4.080  0.00  0.00     0.205 C 
HETATM    5  C   UNK N   1      21.458  17.665   5.053  0.00  0.00     0.298 C 
HETATM    6  O   UNK N   1      21.785  15.942   3.389  0.00  0.00    -0.388 OA
HETATM    7  O   UNK N   1      22.204  18.625   4.316  0.00  0.00    -0.348 OA
HETATM    8  H   UNK N   1      22.484  15.532   2.856  0.00  0.00     0.210 HD
ENDROOT
BRANCH   3   9
HETATM    9  O   UNK N   1      19.348  16.500   2.177  0.00  0.00    -0.390 OA
HETATM   10  H   UNK N   1      19.525  15.547   2.204  0.00  0.00     0.210 HD
ENDBRANCH   3   9
BRANCH   5  11
HETATM   11  O   UNK N   1      22.317  17.069   5.981  0.00  0.00    -0.318 OA
BRANCH  11  12
HETATM   12  C   UNK N   1      21.938  16.168   6.927  0.00  0.00     0.072 A 
HETATM   13  C   UNK N   1      22.586  14.930   7.029  0.00  0.00     0.039 A 
HETATM   14  C   UNK N   1      22.231  14.037   8.053  0.00  0.00     0.039 A 
HETATM   15  C   UNK N   1      21.217  14.375   8.971  0.00  0.00     0.103 A 
HETATM   16  C   UNK N   1      20.538  15.585   8.820  0.00  0.00     0.039 A 
HETATM   17  C   UNK N   1      20.889  16.461   7.806  0.00  0.00     0.039 A 
BRANCH  15  18
HETATM   18  N   UNK N   1      20.898  13.520  10.062  0.00  0.00    -0.116 N 
HETATM   19  O   UNK N   1      19.761  13.263  10.314  0.00  0.00    -0.532 OA
HETATM   20  O   UNK N   1      21.772  13.001  10.692  0.00  0.00    -0.532 OA
ENDBRANCH  15  18
ENDBRANCH  11  12
ENDBRANCH   5  11
BRANCH   2  21
HETATM   21  O   UNK N   1      19.869  19.203   1.545  0.00  0.00    -0.390 OA
HETATM   22  H   UNK N   1      18.958  18.966   1.307  0.00  0.00     0.210 HD
ENDBRANCH   2  21
BRANCH   1  23
HETATM   23  C   UNK N   1      22.243  20.446   2.787  0.00  0.00     0.198 C 
BRANCH  23  24
HETATM   24  O   UNK N   1      21.547  21.645   2.622  0.00  0.00    -0.398 OA
HETATM   25  H   UNK N   1      21.825  22.415   2.103  0.00  0.00     0.209 HD
ENDBRANCH  23  24
ENDBRANCH   1  23
TORSDOF 7
ENDMDL
MODEL 7
REMARK VINA RESULT:      -6.3      2.762      4.823
REMARK  7 active torsions:
REMARK  status: ('A' for Active; 'I' for Inactive)
REMARK    1  A    between atoms: C_8  and  C_5 
REMARK    2  A    between atoms: O_14  and  C_5 
REMARK    3  A    between atoms: N_13  and  C_6 
REMARK    4  A    between atoms: O_20  and  C_7 
REMARK    5  A    between atoms: C_9  and  O_15 
REMARK    6  A    between atoms: C_10  and  O_16 
REMARK    7  A    between atoms: C_12  and  O_20 
ROOT
HETATM    1  C   UNK N   1      30.369  17.028   7.392  0.00  0.00     0.179 C 
HETATM    2  C   UNK N   1      29.689  17.658   8.633  0.00  0.00     0.180 C 
HETATM    3  C   UNK N   1      28.177  17.630   8.427  0.00  0.00     0.183 C 
HETATM    4  C   UNK N   1      27.835  18.328   7.115  0.00  0.00     0.205 C 
HETATM    5  C   UNK N   1      28.623  17.668   5.952  0.00  0.00     0.298 C 
HETATM    6  O   UNK N   1      28.154  19.688   7.193  0.00  0.00    -0.388 OA
HETATM    7  O   UNK N   1      30.019  17.741   6.212  0.00  0.00    -0.348 OA
HETATM    8  H   UNK N   1      28.461  20.604   7.287  0.00  0.00     0.210 HD
ENDROOT
BRANCH   3   9
HETATM    9  O   UNK N   1      27.523  18.259   9.490  0.00  0.00    -0.390 OA
HETATM   10  H   UNK N   1      27.368  17.822  10.342  0.00  0.00     0.210 HD
ENDBRANCH   3   9
BRANCH   5  11
HETATM   11  O   UNK N   1      28.382  18.258   4.708  0.00  0.00    -0.318 OA
BRANCH  11  12
HETATM   12  C   UNK N   1      27.169  18.690   4.272  0.00  0.00     0.072 A 
HETATM   13  C   UNK N   1      26.065  17.828   4.276  0.00  0.00     0.039 A 
HETATM   14  C   UNK N   1      24.804  18.306   3.887  0.00  0.00     0.039 A 
HETATM   15  C   UNK N   1      24.645  19.646   3.480  0.00  0.00     0.103 A 
HETATM   16  C   UNK N   1      25.765  20.477   3.422  0.00  0.00     0.039 A 
HETATM   17  C   UNK N   1      27.009  19.999   3.803  0.00  0.00     0.039 A 
BRANCH  15  18
HETATM   18  N   UNK N   1      23.362  20.171   3.159  0.00  0.00    -0.116 N 
HETATM   19  O   UNK N   1      23.244  21.308   2.820  0.00  0.00    -0.532 OA
HETATM   20  O   UNK N   1      22.404  19.455   3.164  0.00  0.00    -0.532 OA
ENDBRANCH  15  18
ENDBRANCH  11  12
ENDBRANCH   5  11
BRANCH   2  21
HETATM   21  O   UNK N   1      30.005  16.950   9.795  0.00  0.00    -0.390 OA
HETATM   22  H   UNK N   1      29.961  15.986   9.905  0.00  0.00     0.210 HD
ENDBRANCH   2  21
BRANCH   1  23
HETATM   23  C   UNK N   1      31.889  17.084   7.524  0.00  0.00     0.198 C 
BRANCH  23  24
HETATM   24  O   UNK N   1      32.281  18.026   8.478  0.00  0.00    -0.398 OA
HETATM   25  H   UNK N   1      32.097  18.978   8.468  0.00  0.00     0.209 HD
ENDBRANCH  23  24
ENDBRANCH   1  23
TORSDOF 7
ENDMDL
MODEL 8
REMARK VINA RESULT:      -6.3      6.999     11.391
REMARK  7 active torsions:
REMARK  status: ('A' for Active; 'I' for Inactive)
REMARK    1  A    between atoms: C_8  and  C_5 
REMARK    2  A    between atoms: O_14  and  C_5 
REMARK    3  A    between atoms: N_13  and  C_6 
REMARK    4  A    between atoms: O_20  and  C_7 
REMARK    5  A    between atoms: C_9  and  O_15 
REMARK    6  A    between atoms: C_10  and  O_16 
REMARK    7  A    between atoms: C_12  and  O_20 
ROOT
HETATM    1  C   UNK N   1      34.704  13.667  10.939  0.00  0.00     0.179 C 
HETATM    2  C   UNK N   1      36.208  13.912  10.656  0.00  0.00     0.180 C 
HETATM    3  C   UNK N   1      37.029  12.972  11.535  0.00  0.00     0.183 C 
HETATM    4  C   UNK N   1      36.634  13.174  12.993  0.00  0.00     0.205 C 
HETATM    5  C   UNK N   1      35.103  12.977  13.152  0.00  0.00     0.298 C 
HETATM    6  O   UNK N   1      36.995  14.457  13.420  0.00  0.00    -0.388 OA
HETATM    7  O   UNK N   1      34.410  13.891  12.312  0.00  0.00    -0.348 OA
HETATM    8  H   UNK N   1      37.206  15.380  13.631  0.00  0.00     0.210 HD
ENDROOT
BRANCH   3   9
HETATM    9  O   UNK N   1      38.396  13.212  11.370  0.00  0.00    -0.390 OA
HETATM   10  H   UNK N   1      38.835  14.003  11.719  0.00  0.00     0.210 HD
ENDBRANCH   3   9
BRANCH   5  11
HETATM   11  O   UNK N   1      34.648  13.160  14.461  0.00  0.00    -0.318 OA
BRANCH  11  12
HETATM   12  C   UNK N   1      34.788  12.258  15.469  0.00  0.00     0.072 A 
HETATM   13  C   UNK N   1      35.206  12.672  16.740  0.00  0.00     0.039 A 
HETATM   14  C   UNK N   1      35.281  11.742  17.789  0.00  0.00     0.039 A 
HETATM   15  C   UNK N   1      34.951  10.390  17.566  0.00  0.00     0.103 A 
HETATM   16  C   UNK N   1      34.595   9.980  16.280  0.00  0.00     0.039 A 
HETATM   17  C   UNK N   1      34.527  10.901  15.247  0.00  0.00     0.039 A 
BRANCH  15  18
HETATM   18  N   UNK N   1      34.942   9.449  18.632  0.00  0.00    -0.116 N 
HETATM   19  O   UNK N   1      35.967   9.012  19.058  0.00  0.00    -0.532 OA
HETATM   20  O   UNK N   1      33.910   9.142  19.153  0.00  0.00    -0.532 OA
ENDBRANCH  15  18
ENDBRANCH  11  12
ENDBRANCH   5  11
BRANCH   2  21
HETATM   21  O   UNK N   1      36.515  13.670   9.315  0.00  0.00    -0.390 OA
HETATM   22  H   UNK N   1      35.928  13.256   8.662  0.00  0.00     0.210 HD
ENDBRANCH   2  21
BRANCH   1  23
HETATM   23  C   UNK N   1      33.839  14.625  10.124  0.00  0.00     0.198 C 
BRANCH  23  24
HETATM   24  O   UNK N   1      32.764  15.102  10.878  0.00  0.00    -0.398 OA
HETATM   25  H   UNK N   1      32.767  15.331  11.821  0.00  0.00     0.209 HD
ENDBRANCH  23  24
ENDBRANCH   1  23
TORSDOF 7
ENDMDL
MODEL 9
REMARK VINA RESULT:      -6.3      2.639      7.626
REMARK  7 active torsions:
REMARK  status: ('A' for Active; 'I' for Inactive)
REMARK    1  A    between atoms: C_8  and  C_5 
REMARK    2  A    between atoms: O_14  and  C_5 
REMARK    3  A    between atoms: N_13  and  C_6 
REMARK    4  A    between atoms: O_20  and  C_7 
REMARK    5  A    between atoms: C_9  and  O_15 
REMARK    6  A    between atoms: C_10  and  O_16 
REMARK    7  A    between atoms: C_12  and  O_20 
ROOT
HETATM    1  C   UNK N   1      26.941  18.185   4.247  0.00  0.00     0.179 C 
HETATM    2  C   UNK N   1      26.185  19.029   5.303  0.00  0.00     0.180 C 
HETATM    3  C   UNK N   1      27.209  19.741   6.183  0.00  0.00     0.183 C 
HETATM    4  C   UNK N   1      28.161  18.711   6.781  0.00  0.00     0.205 C 
HETATM    5  C   UNK N   1      28.807  17.874   5.645  0.00  0.00     0.298 C 
HETATM    6  O   UNK N   1      27.471  17.867   7.660  0.00  0.00    -0.388 OA
HETATM    7  O   UNK N   1      27.793  17.237   4.879  0.00  0.00    -0.348 OA
HETATM    8  H   UNK N   1      26.923  17.275   8.198  0.00  0.00     0.210 HD
ENDROOT
BRANCH   3   9
HETATM    9  O   UNK N   1      26.573  20.456   7.201  0.00  0.00    -0.390 OA
HETATM   10  H   UNK N   1      26.065  20.023   7.905  0.00  0.00     0.210 HD
ENDBRANCH   3   9
BRANCH   5  11
HETATM   11  O   UNK N   1      29.686  16.889   6.107  0.00  0.00    -0.318 OA
BRANCH  11  12
HETATM   12  C   UNK N   1      30.892  17.130   6.685  0.00  0.00     0.072 A 
HETATM   13  C   UNK N   1      32.038  17.297   5.896  0.00  0.00     0.039 A 
HETATM   14  C   UNK N   1      33.264  17.612   6.501  0.00  0.00     0.039 A 
HETATM   15  C   UNK N   1      33.352  17.749   7.901  0.00  0.00     0.103 A 
HETATM   16  C   UNK N   1      32.217  17.519   8.680  0.00  0.00     0.039 A 
HETATM   17  C   UNK N   1      31.010  17.204   8.077  0.00  0.00     0.039 A 
BRANCH  15  18
HETATM   18  N   UNK N   1      34.566  18.146   8.527  0.00  0.00    -0.116 N 
HETATM   19  O   UNK N   1      35.060  19.201   8.270  0.00  0.00    -0.532 OA
HETATM   20  O   UNK N   1      35.062  17.453   9.367  0.00  0.00    -0.532 OA
ENDBRANCH  15  18
ENDBRANCH  11  12
ENDBRANCH   5  11
BRANCH   2  21
HETATM   21  O   UNK N   1      25.365  19.981   4.694  0.00  0.00    -0.390 OA
HETATM   22  H   UNK N   1      24.460  19.832   4.374  0.00  0.00     0.210 HD
ENDBRANCH   2  21
BRANCH   1  23
HETATM   23  C   UNK N   1      25.959  17.405   3.375  0.00  0.00     0.198 C 
BRANCH  23  24
HETATM   24  O   UNK N   1      24.664  17.468   3.893  0.00  0.00    -0.398 OA
HETATM   25  H   UNK N   1      23.932  18.017   3.571  0.00  0.00     0.209 HD
ENDBRANCH  23  24
ENDBRANCH   1  23
TORSDOF 7
ENDMDL
