REMARK  15 active torsions:
REMARK  status: ('A' for Active; 'I' for Inactive)
REMARK    1  A    between atoms: C_23  and  C_16 
REMARK    2  A    between atoms: O_52  and  C_16 
REMARK    3  A    between atoms: C_20  and  N_39 
REMARK    4  A    between atoms: C_22  and  C_32 
REMARK    5  A    between atoms: C_33  and  C_23 
REMARK    6  A    between atoms: C_23  and  N_43 
REMARK    7  A    between atoms: C_26  and  C_25 
REMARK    8  A    between atoms: C_35  and  C_25 
REMARK    9  A    between atoms: C_25  and  N_46 
REMARK   10  A    between atoms: C_29  and  C_26 
REMARK   11  A    between atoms: C_26  and  O_53 
REMARK   12  A    between atoms: C_27  and  O_54 
REMARK   13  A    between atoms: C_28  and  O_55 
REMARK       I    between atoms: N_43  and  C_32 
REMARK       I    between atoms: N_46  and  C_33 
REMARK   14  A    between atoms: C_34  and  N_48 
REMARK   15  A    between atoms: O_60  and  C_35 
REMARK       I    between atoms: N_40  and  C_36 
REMARK       I    between atoms: N_44  and  C_36 
ROOT
HETATM    1  C   UNK N   1       4.433   2.455  -2.185  0.00  0.00     0.241 C 
HETATM    2  N   UNK N   1       3.814   3.434  -1.534  0.00  0.00    -0.344 N 
HETATM    3  O   UNK N   1       5.536   2.712  -2.639  0.00  0.00    -0.271 OA
HETATM    4  H   UNK N   1       4.329   4.234  -1.279  0.00  0.00     0.163 HD
ENDROOT
BRANCH   2   5
HETATM    5  C   UNK N   1       2.465   3.369  -1.200  0.00  0.00     0.200 C 
BRANCH   5   6
HETATM    6  C   UNK N   1       1.611   3.026  -2.467  0.00  0.00     0.199 C 
BRANCH   6   7
HETATM    7  O   UNK N   1       0.229   3.185  -2.347  0.00  0.00    -0.398 OA
HETATM    8  H   UNK N   1      -0.156   4.071  -2.263  0.00  0.00     0.209 HD
ENDBRANCH   6   7
ENDBRANCH   5   6
BRANCH   5   9
HETATM    9  C   UNK N   1       2.328   3.084   0.361  0.00  0.00     0.243 C 
HETATM   10  N   UNK N   1       1.432   3.714   1.148  0.00  0.00    -0.343 N 
HETATM   11  H   UNK N   1       1.328   3.482   2.099  0.00  0.00     0.163 HD
HETATM   12  O   UNK N   1       3.187   2.478   0.929  0.00  0.00    -0.271 OA
BRANCH  10  13
HETATM   13  C   UNK N   1       0.658   4.714   0.550  0.00  0.00     0.212 C 
BRANCH  13  14
HETATM   14  C   UNK N   1      -0.837   4.726   0.945  0.00  0.00     0.167 C 
BRANCH  14  15
HETATM   15  C   UNK N   1      -1.711   4.686  -0.365  0.00  0.00     0.111 C 
HETATM   16  C   UNK N   1      -3.152   4.968  -0.156  0.00  0.00     0.165 C 
HETATM   17  C   UNK N   1      -3.230   6.498  -0.096  0.00  0.00     0.176 C 
HETATM   18  C   UNK N   1      -1.884   7.162  -0.563  0.00  0.00     0.165 C 
HETATM   19  S   UNK N   1      -1.182   5.900  -1.643  0.00  0.00    -0.135 SA
BRANCH  16  20
HETATM   20  O   UNK N   1      -3.837   4.510  -1.292  0.00  0.00    -0.392 OA
HETATM   21  H   UNK N   1      -4.347   4.762  -2.078  0.00  0.00     0.210 HD
ENDBRANCH  16  20
BRANCH  17  22
HETATM   22  O   UNK N   1      -3.698   6.922   1.145  0.00  0.00    -0.391 OA
HETATM   23  H   UNK N   1      -3.604   7.352   2.009  0.00  0.00     0.210 HD
ENDBRANCH  17  22
BRANCH  18  24
HETATM   24  N   UNK N   1      -0.911   7.624   0.483  0.00  0.00    -0.194 NA
HETATM   25  C   UNK N   1      -1.546   8.319   1.454  0.00  0.00     0.075 C 
HETATM   26  C   UNK N   1      -1.370   9.691   1.530  0.00  0.00     0.061 C 
HETATM   27  C   UNK N   1      -0.601  10.324   0.534  0.00  0.00     0.115 C 
HETATM   28  N   UNK N   1      -0.423  11.588   0.697  0.00  0.00    -0.295 N 
HETATM   29  N   UNK N   1       0.042   9.540  -0.411  0.00  0.00    -0.294 N 
HETATM   30  C   UNK N   1       0.491  12.460   0.201  0.00  0.00     0.319 C 
ATOM     31  HN  UNK N   1      -1.103  12.020   1.323  1.00  0.00     0.172 HD
HETATM   32  N   UNK N   1       0.442  13.729   0.624  0.00  0.00    -0.352 N 
HETATM   33  O   UNK N   1       1.461  12.099  -0.435  0.00  0.00    -0.247 OA
HETATM   34  H   UNK N   1       1.233  14.227   0.936  0.00  0.00     0.160 HD
HETATM   35  H   UNK N   1      -0.428  14.189   0.624  0.00  0.00     0.160 HD
HETATM   36  C   UNK N   1       0.905   9.949  -1.511  0.00  0.00     0.162 C 
HETATM   37  C   UNK N   1       0.210   8.284   0.007  0.00  0.00     0.309 C 
HETATM   38  O   UNK N   1       1.230   8.177   0.675  0.00  0.00    -0.253 OA
ENDBRANCH  18  24
ENDBRANCH  14  15
BRANCH  14  39
HETATM   39  O   UNK N   1      -1.136   3.561   1.665  0.00  0.00    -0.392 OA
HETATM   40  H   UNK N   1      -1.937   3.336   2.163  0.00  0.00     0.210 HD
ENDBRANCH  14  39
ENDBRANCH  13  14
BRANCH  13  41
HETATM   41  C   UNK N   1       1.610   5.830   0.128  0.00  0.00     0.166 C 
HETATM   42  O   UNK N   1       1.531   6.319  -0.997  0.00  0.00    -0.648 OA
BRANCH  41  43
HETATM   43  O   UNK N   1       2.757   6.025   0.819  0.00  0.00    -0.775 OA
HETATM   44  H   UNK N   1       3.272   5.405   1.297  0.00  0.00     0.167 HD
ENDBRANCH  41  43
ENDBRANCH  13  41
ENDBRANCH  10  13
ENDBRANCH   5   9
ENDBRANCH   2   5
BRANCH   1  45
HETATM   45  C   UNK N   1       3.881   1.014  -2.323  0.00  0.00     0.176 C 
HETATM   46  C   UNK N   1       2.655   0.530  -1.419  0.00  0.00     0.037 C 
HETATM   47  C   UNK N   1       1.070   0.731  -1.378  0.00  0.00     0.025 C 
HETATM   48  C   UNK N   1       0.394   0.629   0.045  0.00  0.00     0.161 C 
HETATM   49  N   UNK N   1       1.253  -0.181   0.861  0.00  0.00    -0.204 N 
HETATM   50  C   UNK N   1       1.636  -1.366   0.292  0.00  0.00     0.175 C 
HETATM   51  O   UNK N   1       2.074   0.444   1.753  0.00  0.00    -0.084 OA
HETATM   52  C   UNK N   1       0.772  -2.098  -0.698  0.00  0.00     0.102 C 
HETATM   53  O   UNK N   1       2.806  -1.645   0.370  0.00  0.00    -0.175 OA
HETATM   54 Fe   UNK N   1       3.649  -0.622   1.690  0.00  0.00     0.000 Fe
HETATM   55  O   UNK N   1       4.462   0.380   0.447  0.00  0.00    -0.175 OA
HETATM   56  O   UNK N   1       2.807  -1.781   2.871  0.00  0.00    -0.175 OA
HETATM   57  O   UNK N   1       4.570   0.442   3.029  0.00  0.00    -0.084 OA
HETATM   58  O   UNK N   1       5.051  -1.779   1.631  0.00  0.00    -0.084 OA
HETATM   59  C   UNK N   1       5.303   1.116   0.906  0.00  0.00     0.175 C 
HETATM   60  C   UNK N   1       6.092   1.939  -0.041  0.00  0.00     0.102 C 
HETATM   61  N   UNK N   1       5.486   1.124   2.260  0.00  0.00    -0.204 N 
HETATM   62  C   UNK N   1       6.482   2.006   2.889  0.00  0.00     0.161 C 
HETATM   63  C   UNK N   1       7.651   2.513   1.985  0.00  0.00     0.025 C 
HETATM   64  C   UNK N   1       8.736   1.442   1.751  0.00  0.00     0.036 C 
HETATM   65  C   UNK N   1       8.985   0.834   0.341  0.00  0.00     0.167 C 
HETATM   66  C   UNK N   1       8.439  -0.585   0.150  0.00  0.00     0.240 C 
HETATM   67  N   UNK N   1       7.132  -0.712  -0.213  0.00  0.00    -0.346 N 
HETATM   68  O   UNK N   1       9.212  -1.526   0.026  0.00  0.00    -0.271 OA
HETATM   69  C   UNK N   1       6.584  -1.636  -1.207  0.00  0.00     0.176 C 
HETATM   70  H   UNK N   1       6.489  -0.121   0.241  0.00  0.00     0.163 HD
HETATM   71  C   UNK N   1       6.635  -3.164  -0.881  0.00  0.00     0.037 C 
HETATM   72  C   UNK N   1       5.212  -1.125  -1.678  0.00  0.00     0.241 C 
HETATM   73  C   UNK N   1       6.266  -3.777   0.492  0.00  0.00     0.025 C 
HETATM   74  C   UNK N   1       4.783  -4.014   0.886  0.00  0.00     0.161 C 
HETATM   75  N   UNK N   1       4.355  -2.923   1.729  0.00  0.00    -0.204 N 
HETATM   76  C   UNK N   1       3.181  -2.896   2.481  0.00  0.00     0.175 C 
HETATM   77  C   UNK N   1       2.305  -4.095   2.652  0.00  0.00     0.102 C 
HETATM   78  N   UNK N   1       5.077   0.190  -2.044  0.00  0.00    -0.346 N 
HETATM   79  O   UNK N   1       4.250  -1.871  -1.688  0.00  0.00    -0.271 OA
HETATM   80  H   UNK N   1       5.930   0.672  -2.138  0.00  0.00     0.163 HD
BRANCH  65  81
HETATM   81  N   UNK N   1      10.422   0.840   0.109  0.00  0.00    -0.418 N 
HETATM   82  H   UNK N   1      10.929  -0.030  -0.054  0.00  0.00     0.150 HD
HETATM   83  H   UNK N   1      10.928   1.725   0.109  0.00  0.00     0.150 HD
ENDBRANCH  65  81
ENDBRANCH   1  45
TORSDOF 15
