MODEL 1
REMARK VINA RESULT:      -8.6      0.000      0.000
REMARK  4 active torsions:
REMARK  status: ('A' for Active; 'I' for Inactive)
REMARK    1  A    between atoms: C_2  and  C_13 
REMARK    2  A    between atoms: C_3  and  C_4 
REMARK    3  A    between atoms: C_7  and  C_10 
REMARK    4  A    between atoms: C_10  and  O_11 
ROOT
HETATM    1  C   UNK N   1      28.645  18.459   6.486  0.00  0.00    -0.030 A 
HETATM    2  C   UNK N   1      28.951  18.489   7.854  0.00  0.00     0.012 A 
HETATM    3  C   UNK N   1      30.107  17.859   8.332  0.00  0.00     0.009 A 
HETATM    4  C   UNK N   1      30.985  17.193   7.454  0.00  0.00    -0.043 A 
HETATM    5  C   UNK N   1      30.705  17.205   6.064  0.00  0.00    -0.042 A 
HETATM    6  C   UNK N   1      29.532  17.820   5.611  0.00  0.00     0.020 A 
HETATM    7  C   UNK N   1      31.655  16.599   5.042  0.00  0.00    -0.020 C 
HETATM    8  C   UNK N   1      31.937  17.604   3.935  0.00  0.00     0.020 C 
HETATM    9  C   UNK N   1      31.031  15.362   4.418  0.00  0.00     0.020 C 
HETATM   10  C   UNK N   1      33.014  16.254   5.649  0.00  0.00     0.015 C 
HETATM   11  C   UNK N   1      32.848  15.541   6.972  0.00  0.00     0.015 C 
HETATM   12  C   UNK N   1      32.196  16.454   8.012  0.00  0.00    -0.020 C 
HETATM   13  C   UNK N   1      33.217  17.446   8.544  0.00  0.00     0.020 C 
HETATM   14  C   UNK N   1      31.771  15.543   9.151  0.00  0.00     0.020 C 
ENDROOT
BRANCH   1  15
HETATM   15  C   UNK N   1      27.422  19.102   5.929  0.00  0.00    -0.051 C 
HETATM   16  C   UNK N   1      26.974  20.396   6.549  0.00  0.00     0.049 C 
HETATM   17  C   UNK N   1      26.740  18.541   4.900  0.00  0.00     0.019 C 
BRANCH  17  18
HETATM   18  C   UNK N   1      25.498  19.070   4.261  0.00  0.00    -0.036 A 
HETATM   19  C   UNK N   1      25.597  20.123   3.339  0.00  0.00     0.012 A 
HETATM   20  C   UNK N   1      24.445  20.635   2.721  0.00  0.00     0.019 A 
HETATM   21  C   UNK N   1      23.182  20.095   3.017  0.00  0.00     0.037 A 
HETATM   22  C   UNK N   1      23.086  19.045   3.932  0.00  0.00     0.019 A 
HETATM   23  C   UNK N   1      24.231  18.541   4.545  0.00  0.00     0.012 A 
BRANCH  21  24
HETATM   24  C   UNK N   1      21.960  20.619   2.376  0.00  0.00     0.176 C 
HETATM   25  O   UNK N   1      21.780  20.482   1.177  0.00  0.00    -0.646 OA
BRANCH  24  26
HETATM   26  O   UNK N   1      21.030  21.257   3.117  0.00  0.00    -0.773 OA
HETATM   27  H   UNK N   1      21.011  22.194   3.141  0.00  0.00     0.167 HD
ENDBRANCH  24  26
ENDBRANCH  21  24
ENDBRANCH  17  18
ENDBRANCH   1  15
TORSDOF 4
ENDMDL
MODEL 2
REMARK VINA RESULT:      -8.4      1.143      2.917
REMARK  4 active torsions:
REMARK  status: ('A' for Active; 'I' for Inactive)
REMARK    1  A    between atoms: C_2  and  C_13 
REMARK    2  A    between atoms: C_3  and  C_4 
REMARK    3  A    between atoms: C_7  and  C_10 
REMARK    4  A    between atoms: C_10  and  O_11 
ROOT
HETATM    1  C   UNK N   1      28.087  18.472   5.587  0.00  0.00    -0.030 A 
HETATM    2  C   UNK N   1      28.954  17.911   4.639  0.00  0.00     0.012 A 
HETATM    3  C   UNK N   1      30.156  17.318   5.046  0.00  0.00     0.009 A 
HETATM    4  C   UNK N   1      30.513  17.267   6.409  0.00  0.00    -0.043 A 
HETATM    5  C   UNK N   1      29.615  17.788   7.374  0.00  0.00    -0.042 A 
HETATM    6  C   UNK N   1      28.430  18.397   6.942  0.00  0.00     0.020 A 
HETATM    7  C   UNK N   1      29.880  17.678   8.867  0.00  0.00    -0.020 C 
HETATM    8  C   UNK N   1      28.660  17.099   9.569  0.00  0.00     0.020 C 
HETATM    9  C   UNK N   1      30.159  19.053   9.451  0.00  0.00     0.020 C 
HETATM   10  C   UNK N   1      31.033  16.727   9.182  0.00  0.00     0.015 C 
HETATM   11  C   UNK N   1      32.212  16.990   8.272  0.00  0.00     0.015 C 
HETATM   12  C   UNK N   1      31.861  16.682   6.815  0.00  0.00    -0.020 C 
HETATM   13  C   UNK N   1      31.872  15.180   6.585  0.00  0.00     0.020 C 
HETATM   14  C   UNK N   1      32.971  17.303   5.984  0.00  0.00     0.020 C 
ENDROOT
BRANCH   1  15
HETATM   15  C   UNK N   1      26.804  19.125   5.205  0.00  0.00    -0.051 C 
HETATM   16  C   UNK N   1      26.436  20.399   5.912  0.00  0.00     0.049 C 
HETATM   17  C   UNK N   1      25.999  18.589   4.254  0.00  0.00     0.019 C 
BRANCH  17  18
HETATM   18  C   UNK N   1      24.686  19.131   3.790  0.00  0.00    -0.036 A 
HETATM   19  C   UNK N   1      23.504  18.471   4.158  0.00  0.00     0.012 A 
HETATM   20  C   UNK N   1      22.258  18.963   3.740  0.00  0.00     0.019 A 
HETATM   21  C   UNK N   1      22.182  20.124   2.952  0.00  0.00     0.037 A 
HETATM   22  C   UNK N   1      23.359  20.781   2.590  0.00  0.00     0.019 A 
HETATM   23  C   UNK N   1      24.594  20.289   3.004  0.00  0.00     0.012 A 
BRANCH  21  24
HETATM   24  C   UNK N   1      20.880  20.657   2.503  0.00  0.00     0.176 C 
HETATM   25  O   UNK N   1      19.841  20.102   2.818  0.00  0.00    -0.646 OA
BRANCH  24  26
HETATM   26  O   UNK N   1      20.833  21.767   1.737  0.00  0.00    -0.773 OA
HETATM   27  H   UNK N   1      21.497  21.922   1.095  0.00  0.00     0.167 HD
ENDBRANCH  24  26
ENDBRANCH  21  24
ENDBRANCH  17  18
ENDBRANCH   1  15
TORSDOF 4
ENDMDL
MODEL 3
REMARK VINA RESULT:      -7.9     10.508     14.509
REMARK  4 active torsions:
REMARK  status: ('A' for Active; 'I' for Inactive)
REMARK    1  A    between atoms: C_2  and  C_13 
REMARK    2  A    between atoms: C_3  and  C_4 
REMARK    3  A    between atoms: C_7  and  C_10 
REMARK    4  A    between atoms: C_10  and  O_11 
ROOT
HETATM    1  C   UNK N   1      28.817  24.341  -4.018  0.00  0.00    -0.030 A 
HETATM    2  C   UNK N   1      27.531  24.393  -3.463  0.00  0.00     0.012 A 
HETATM    3  C   UNK N   1      26.676  25.461  -3.764  0.00  0.00     0.009 A 
HETATM    4  C   UNK N   1      27.085  26.494  -4.632  0.00  0.00    -0.043 A 
HETATM    5  C   UNK N   1      28.365  26.417  -5.235  0.00  0.00    -0.042 A 
HETATM    6  C   UNK N   1      29.213  25.353  -4.901  0.00  0.00     0.020 A 
HETATM    7  C   UNK N   1      28.840  27.436  -6.260  0.00  0.00    -0.020 C 
HETATM    8  C   UNK N   1      29.363  26.722  -7.497  0.00  0.00     0.020 C 
HETATM    9  C   UNK N   1      29.966  28.275  -5.680  0.00  0.00     0.020 C 
HETATM   10  C   UNK N   1      27.706  28.338  -6.746  0.00  0.00     0.015 C 
HETATM   11  C   UNK N   1      26.878  28.836  -5.583  0.00  0.00     0.015 C 
HETATM   12  C   UNK N   1      26.161  27.681  -4.882  0.00  0.00    -0.020 C 
HETATM   13  C   UNK N   1      24.957  27.244  -5.701  0.00  0.00     0.020 C 
HETATM   14  C   UNK N   1      25.665  28.244  -3.561  0.00  0.00     0.020 C 
ENDROOT
BRANCH   1  15
HETATM   15  C   UNK N   1      29.769  23.234  -3.720  0.00  0.00    -0.051 C 
HETATM   16  C   UNK N   1      29.832  22.736  -2.304  0.00  0.00     0.049 C 
HETATM   17  C   UNK N   1      30.548  22.697  -4.691  0.00  0.00     0.019 C 
BRANCH  17  18
HETATM   18  C   UNK N   1      31.549  21.601  -4.525  0.00  0.00    -0.036 A 
HETATM   19  C   UNK N   1      31.236  20.312  -4.981  0.00  0.00     0.012 A 
HETATM   20  C   UNK N   1      32.162  19.266  -4.841  0.00  0.00     0.019 A 
HETATM   21  C   UNK N   1      33.413  19.501  -4.246  0.00  0.00     0.037 A 
HETATM   22  C   UNK N   1      33.724  20.784  -3.796  0.00  0.00     0.019 A 
HETATM   23  C   UNK N   1      32.803  21.820  -3.934  0.00  0.00     0.012 A 
BRANCH  21  24
HETATM   24  C   UNK N   1      34.400  18.413  -4.091  0.00  0.00     0.176 C 
HETATM   25  O   UNK N   1      35.543  18.552  -4.494  0.00  0.00    -0.646 OA
BRANCH  24  26
HETATM   26  O   UNK N   1      34.040  17.254  -3.503  0.00  0.00    -0.773 OA
HETATM   27  H   UNK N   1      34.341  17.053  -2.639  0.00  0.00     0.167 HD
ENDBRANCH  24  26
ENDBRANCH  21  24
ENDBRANCH  17  18
ENDBRANCH   1  15
TORSDOF 4
ENDMDL
MODEL 4
REMARK VINA RESULT:      -7.7     11.061     14.569
REMARK  4 active torsions:
REMARK  status: ('A' for Active; 'I' for Inactive)
REMARK    1  A    between atoms: C_2  and  C_13 
REMARK    2  A    between atoms: C_3  and  C_4 
REMARK    3  A    between atoms: C_7  and  C_10 
REMARK    4  A    between atoms: C_10  and  O_11 
ROOT
HETATM    1  C   UNK N   1      29.777  25.024  -4.633  0.00  0.00    -0.030 A 
HETATM    2  C   UNK N   1      29.909  26.250  -3.966  0.00  0.00     0.012 A 
HETATM    3  C   UNK N   1      28.855  27.173  -3.973  0.00  0.00     0.009 A 
HETATM    4  C   UNK N   1      27.647  26.888  -4.640  0.00  0.00    -0.043 A 
HETATM    5  C   UNK N   1      27.492  25.629  -5.271  0.00  0.00    -0.042 A 
HETATM    6  C   UNK N   1      28.567  24.731  -5.273  0.00  0.00     0.020 A 
HETATM    7  C   UNK N   1      26.184  25.205  -5.923  0.00  0.00    -0.020 C 
HETATM    8  C   UNK N   1      25.772  23.832  -5.414  0.00  0.00     0.020 C 
HETATM    9  C   UNK N   1      26.353  25.125  -7.431  0.00  0.00     0.020 C 
HETATM   10  C   UNK N   1      25.032  26.144  -5.570  0.00  0.00     0.015 C 
HETATM   11  C   UNK N   1      25.455  27.590  -5.706  0.00  0.00     0.015 C 
HETATM   12  C   UNK N   1      26.546  27.942  -4.693  0.00  0.00    -0.020 C 
HETATM   13  C   UNK N   1      25.933  28.131  -3.315  0.00  0.00     0.020 C 
HETATM   14  C   UNK N   1      27.119  29.272  -5.151  0.00  0.00     0.020 C 
ENDROOT
BRANCH   1  15
HETATM   15  C   UNK N   1      30.872  24.014  -4.666  0.00  0.00    -0.051 C 
HETATM   16  C   UNK N   1      32.184  24.431  -5.268  0.00  0.00     0.049 C 
HETATM   17  C   UNK N   1      30.690  22.765  -4.170  0.00  0.00     0.019 C 
BRANCH  17  18
HETATM   18  C   UNK N   1      31.693  21.659  -4.155  0.00  0.00    -0.036 A 
HETATM   19  C   UNK N   1      31.640  20.672  -5.150  0.00  0.00     0.012 A 
HETATM   20  C   UNK N   1      32.574  19.624  -5.162  0.00  0.00     0.019 A 
HETATM   21  C   UNK N   1      33.575  19.557  -4.178  0.00  0.00     0.037 A 
HETATM   22  C   UNK N   1      33.629  20.541  -3.190  0.00  0.00     0.019 A 
HETATM   23  C   UNK N   1      32.699  21.578  -3.180  0.00  0.00     0.012 A 
BRANCH  21  24
HETATM   24  C   UNK N   1      34.568  18.463  -4.174  0.00  0.00     0.176 C 
HETATM   25  O   UNK N   1      35.719  18.670  -4.521  0.00  0.00    -0.646 OA
BRANCH  24  26
HETATM   26  O   UNK N   1      34.204  17.223  -3.787  0.00  0.00    -0.773 OA
HETATM   27  H   UNK N   1      34.776  16.714  -3.246  0.00  0.00     0.167 HD
ENDBRANCH  24  26
ENDBRANCH  21  24
ENDBRANCH  17  18
ENDBRANCH   1  15
TORSDOF 4
ENDMDL
MODEL 5
REMARK VINA RESULT:      -7.6      3.990      9.415
REMARK  4 active torsions:
REMARK  status: ('A' for Active; 'I' for Inactive)
REMARK    1  A    between atoms: C_2  and  C_13 
REMARK    2  A    between atoms: C_3  and  C_4 
REMARK    3  A    between atoms: C_7  and  C_10 
REMARK    4  A    between atoms: C_10  and  O_11 
ROOT
HETATM    1  C   UNK N   1      25.089  19.273   4.182  0.00  0.00    -0.030 A 
HETATM    2  C   UNK N   1      24.672  20.428   3.507  0.00  0.00     0.012 A 
HETATM    3  C   UNK N   1      23.359  20.530   3.028  0.00  0.00     0.009 A 
HETATM    4  C   UNK N   1      22.435  19.483   3.220  0.00  0.00    -0.043 A 
HETATM    5  C   UNK N   1      22.839  18.335   3.947  0.00  0.00    -0.042 A 
HETATM    6  C   UNK N   1      24.163  18.244   4.395  0.00  0.00     0.020 A 
HETATM    7  C   UNK N   1      21.874  17.210   4.285  0.00  0.00    -0.020 C 
HETATM    8  C   UNK N   1      21.944  16.894   5.771  0.00  0.00     0.020 C 
HETATM    9  C   UNK N   1      22.243  15.955   3.511  0.00  0.00     0.020 C 
HETATM   10  C   UNK N   1      20.421  17.592   4.008  0.00  0.00     0.015 C 
HETATM   11  C   UNK N   1      20.287  18.257   2.656  0.00  0.00     0.015 C 
HETATM   12  C   UNK N   1      21.036  19.591   2.623  0.00  0.00    -0.020 C 
HETATM   13  C   UNK N   1      20.234  20.655   3.355  0.00  0.00     0.020 C 
HETATM   14  C   UNK N   1      21.123  19.978   1.157  0.00  0.00     0.020 C 
ENDROOT
BRANCH   1  15
HETATM   15  C   UNK N   1      26.476  19.110   4.699  0.00  0.00    -0.051 C 
HETATM   16  C   UNK N   1      27.494  20.138   4.292  0.00  0.00     0.049 C 
HETATM   17  C   UNK N   1      26.807  18.073   5.508  0.00  0.00     0.019 C 
BRANCH  17  18
HETATM   18  C   UNK N   1      28.157  17.786   6.081  0.00  0.00    -0.036 A 
HETATM   19  C   UNK N   1      28.451  18.206   7.386  0.00  0.00     0.012 A 
HETATM   20  C   UNK N   1      29.710  17.944   7.949  0.00  0.00     0.019 A 
HETATM   21  C   UNK N   1      30.687  17.254   7.211  0.00  0.00     0.037 A 
HETATM   22  C   UNK N   1      30.391  16.834   5.913  0.00  0.00     0.019 A 
HETATM   23  C   UNK N   1      29.142  17.097   5.357  0.00  0.00     0.012 A 
BRANCH  21  24
HETATM   24  C   UNK N   1      32.016  16.968   7.786  0.00  0.00     0.176 C 
HETATM   25  O   UNK N   1      32.857  16.368   7.137  0.00  0.00    -0.646 OA
BRANCH  24  26
HETATM   26  O   UNK N   1      32.310  17.370   9.041  0.00  0.00    -0.773 OA
HETATM   27  H   UNK N   1      32.452  18.278   9.221  0.00  0.00     0.167 HD
ENDBRANCH  24  26
ENDBRANCH  21  24
ENDBRANCH  17  18
ENDBRANCH   1  15
TORSDOF 4
ENDMDL
MODEL 6
REMARK VINA RESULT:      -7.5     12.722     17.343
REMARK  4 active torsions:
REMARK  status: ('A' for Active; 'I' for Inactive)
REMARK    1  A    between atoms: C_2  and  C_13 
REMARK    2  A    between atoms: C_3  and  C_4 
REMARK    3  A    between atoms: C_7  and  C_10 
REMARK    4  A    between atoms: C_10  and  O_11 
ROOT
HETATM    1  C   UNK N   1      34.671  10.069  19.062  0.00  0.00    -0.030 A 
HETATM    2  C   UNK N   1      35.224  10.573  20.247  0.00  0.00     0.012 A 
HETATM    3  C   UNK N   1      34.761  10.120  21.490  0.00  0.00     0.009 A 
HETATM    4  C   UNK N   1      33.743   9.149  21.573  0.00  0.00    -0.043 A 
HETATM    5  C   UNK N   1      33.218   8.601  20.376  0.00  0.00    -0.042 A 
HETATM    6  C   UNK N   1      33.677   9.086  19.146  0.00  0.00     0.020 A 
HETATM    7  C   UNK N   1      32.192   7.477  20.382  0.00  0.00    -0.020 C 
HETATM    8  C   UNK N   1      32.650   6.351  19.468  0.00  0.00     0.020 C 
HETATM    9  C   UNK N   1      30.853   7.989  19.877  0.00  0.00     0.020 C 
HETATM   10  C   UNK N   1      32.028   6.852  21.766  0.00  0.00     0.015 C 
HETATM   11  C   UNK N   1      31.915   7.920  22.831  0.00  0.00     0.015 C 
HETATM   12  C   UNK N   1      33.208   8.730  22.938  0.00  0.00    -0.020 C 
HETATM   13  C   UNK N   1      34.260   7.930  23.689  0.00  0.00     0.020 C 
HETATM   14  C   UNK N   1      32.859   9.957  23.761  0.00  0.00     0.020 C 
ENDROOT
BRANCH   1  15
HETATM   15  C   UNK N   1      35.118  10.528  17.717  0.00  0.00    -0.051 C 
HETATM   16  C   UNK N   1      35.837   9.534  16.849  0.00  0.00     0.049 C 
HETATM   17  C   UNK N   1      34.883  11.794  17.292  0.00  0.00     0.019 C 
BRANCH  17  18
HETATM   18  C   UNK N   1      35.289  12.383  15.981  0.00  0.00    -0.036 A 
HETATM   19  C   UNK N   1      34.617  11.989  14.815  0.00  0.00     0.012 A 
HETATM   20  C   UNK N   1      34.976  12.531  13.571  0.00  0.00     0.019 A 
HETATM   21  C   UNK N   1      36.010  13.477  13.482  0.00  0.00     0.037 A 
HETATM   22  C   UNK N   1      36.677  13.871  14.644  0.00  0.00     0.019 A 
HETATM   23  C   UNK N   1      36.320  13.329  15.876  0.00  0.00     0.012 A 
BRANCH  21  24
HETATM   24  C   UNK N   1      36.402  14.060  12.183  0.00  0.00     0.176 C 
HETATM   25  O   UNK N   1      35.681  14.871  11.625  0.00  0.00    -0.646 OA
BRANCH  24  26
HETATM   26  O   UNK N   1      37.564  13.695  11.602  0.00  0.00    -0.773 OA
HETATM   27  H   UNK N   1      38.341  14.197  11.752  0.00  0.00     0.167 HD
ENDBRANCH  24  26
ENDBRANCH  21  24
ENDBRANCH  17  18
ENDBRANCH   1  15
TORSDOF 4
ENDMDL
MODEL 7
REMARK VINA RESULT:      -7.3      5.145      9.126
REMARK  4 active torsions:
REMARK  status: ('A' for Active; 'I' for Inactive)
REMARK    1  A    between atoms: C_2  and  C_13 
REMARK    2  A    between atoms: C_3  and  C_4 
REMARK    3  A    between atoms: C_7  and  C_10 
REMARK    4  A    between atoms: C_10  and  O_11 
ROOT
HETATM    1  C   UNK N   1      27.864  16.181   4.403  0.00  0.00    -0.030 A 
HETATM    2  C   UNK N   1      28.080  15.191   3.434  0.00  0.00     0.012 A 
HETATM    3  C   UNK N   1      26.993  14.579   2.796  0.00  0.00     0.009 A 
HETATM    4  C   UNK N   1      25.669  14.949   3.107  0.00  0.00    -0.043 A 
HETATM    5  C   UNK N   1      25.449  15.986   4.048  0.00  0.00    -0.042 A 
HETATM    6  C   UNK N   1      26.549  16.567   4.691  0.00  0.00     0.020 A 
HETATM    7  C   UNK N   1      24.056  16.513   4.361  0.00  0.00    -0.020 C 
HETATM    8  C   UNK N   1      24.038  18.029   4.248  0.00  0.00     0.020 C 
HETATM    9  C   UNK N   1      23.660  16.133   5.778  0.00  0.00     0.020 C 
HETATM   10  C   UNK N   1      23.011  16.008   3.368  0.00  0.00     0.015 C 
HETATM   11  C   UNK N   1      23.169  14.523   3.127  0.00  0.00     0.015 C 
HETATM   12  C   UNK N   1      24.506  14.214   2.451  0.00  0.00    -0.020 C 
HETATM   13  C   UNK N   1      24.432  14.562   0.973  0.00  0.00     0.020 C 
HETATM   14  C   UNK N   1      24.696  12.713   2.582  0.00  0.00     0.020 C 
ENDROOT
BRANCH   1  15
HETATM   15  C   UNK N   1      28.984  16.854   5.119  0.00  0.00    -0.051 C 
HETATM   16  C   UNK N   1      28.946  18.353   5.216  0.00  0.00     0.049 C 
HETATM   17  C   UNK N   1      29.999  16.138   5.663  0.00  0.00     0.019 C 
BRANCH  17  18
HETATM   18  C   UNK N   1      31.184  16.685   6.390  0.00  0.00    -0.036 A 
HETATM   19  C   UNK N   1      31.076  16.972   7.758  0.00  0.00     0.012 A 
HETATM   20  C   UNK N   1      32.176  17.482   8.465  0.00  0.00     0.019 A 
HETATM   21  C   UNK N   1      33.398  17.706   7.809  0.00  0.00     0.037 A 
HETATM   22  C   UNK N   1      33.505  17.417   6.448  0.00  0.00     0.019 A 
HETATM   23  C   UNK N   1      32.411  16.913   5.749  0.00  0.00     0.012 A 
BRANCH  21  24
HETATM   24  C   UNK N   1      34.567  18.241   8.536  0.00  0.00     0.176 C 
HETATM   25  O   UNK N   1      35.011  19.346   8.270  0.00  0.00    -0.646 OA
BRANCH  24  26
HETATM   26  O   UNK N   1      35.155  17.506   9.503  0.00  0.00    -0.773 OA
HETATM   27  H   UNK N   1      35.957  17.796   9.891  0.00  0.00     0.167 HD
ENDBRANCH  24  26
ENDBRANCH  21  24
ENDBRANCH  17  18
ENDBRANCH   1  15
TORSDOF 4
ENDMDL
MODEL 8
REMARK VINA RESULT:      -7.2      4.549      8.998
REMARK  4 active torsions:
REMARK  status: ('A' for Active; 'I' for Inactive)
REMARK    1  A    between atoms: C_2  and  C_13 
REMARK    2  A    between atoms: C_3  and  C_4 
REMARK    3  A    between atoms: C_7  and  C_10 
REMARK    4  A    between atoms: C_10  and  O_11 
ROOT
HETATM    1  C   UNK N   1      26.040  17.950   4.580  0.00  0.00    -0.030 A 
HETATM    2  C   UNK N   1      25.084  18.940   4.848  0.00  0.00     0.012 A 
HETATM    3  C   UNK N   1      23.730  18.705   4.571  0.00  0.00     0.009 A 
HETATM    4  C   UNK N   1      23.304  17.477   4.029  0.00  0.00    -0.043 A 
HETATM    5  C   UNK N   1      24.262  16.456   3.805  0.00  0.00    -0.042 A 
HETATM    6  C   UNK N   1      25.612  16.720   4.066  0.00  0.00     0.020 A 
HETATM    7  C   UNK N   1      23.868  15.069   3.320  0.00  0.00    -0.020 C 
HETATM    8  C   UNK N   1      24.485  14.010   4.221  0.00  0.00     0.020 C 
HETATM    9  C   UNK N   1      24.373  14.848   1.905  0.00  0.00     0.020 C 
HETATM   10  C   UNK N   1      22.358  14.842   3.383  0.00  0.00     0.015 C 
HETATM   11  C   UNK N   1      21.611  16.028   2.816  0.00  0.00     0.015 C 
HETATM   12  C   UNK N   1      21.835  17.278   3.670  0.00  0.00    -0.020 C 
HETATM   13  C   UNK N   1      20.992  17.203   4.932  0.00  0.00     0.020 C 
HETATM   14  C   UNK N   1      21.341  18.444   2.830  0.00  0.00     0.020 C 
ENDROOT
BRANCH   1  15
HETATM   15  C   UNK N   1      27.492  18.154   4.844  0.00  0.00    -0.051 C 
HETATM   16  C   UNK N   1      28.031  19.551   4.719  0.00  0.00     0.049 C 
HETATM   17  C   UNK N   1      28.296  17.116   5.185  0.00  0.00     0.019 C 
BRANCH  17  18
HETATM   18  C   UNK N   1      29.763  17.180   5.459  0.00  0.00    -0.036 A 
HETATM   19  C   UNK N   1      30.214  17.133   6.786  0.00  0.00     0.012 A 
HETATM   20  C   UNK N   1      31.588  17.186   7.070  0.00  0.00     0.019 A 
HETATM   21  C   UNK N   1      32.524  17.282   6.027  0.00  0.00     0.037 A 
HETATM   22  C   UNK N   1      32.074  17.326   4.707  0.00  0.00     0.019 A 
HETATM   23  C   UNK N   1      30.710  17.275   4.428  0.00  0.00     0.012 A 
BRANCH  21  24
HETATM   24  C   UNK N   1      33.974  17.338   6.306  0.00  0.00     0.176 C 
HETATM   25  O   UNK N   1      34.440  18.235   6.989  0.00  0.00    -0.646 OA
BRANCH  24  26
HETATM   26  O   UNK N   1      34.794  16.392   5.803  0.00  0.00    -0.773 OA
HETATM   27  H   UNK N   1      35.723  16.510   5.839  0.00  0.00     0.167 HD
ENDBRANCH  24  26
ENDBRANCH  21  24
ENDBRANCH  17  18
ENDBRANCH   1  15
TORSDOF 4
ENDMDL
MODEL 9
REMARK VINA RESULT:      -7.2      8.394     12.835
REMARK  4 active torsions:
REMARK  status: ('A' for Active; 'I' for Inactive)
REMARK    1  A    between atoms: C_2  and  C_13 
REMARK    2  A    between atoms: C_3  and  C_4 
REMARK    3  A    between atoms: C_7  and  C_10 
REMARK    4  A    between atoms: C_10  and  O_11 
ROOT
HETATM    1  C   UNK N   1      36.899  11.732  12.423  0.00  0.00    -0.030 A 
HETATM    2  C   UNK N   1      37.804  10.686  12.195  0.00  0.00     0.012 A 
HETATM    3  C   UNK N   1      37.892   9.619  13.099  0.00  0.00     0.009 A 
HETATM    4  C   UNK N   1      37.072   9.572  14.245  0.00  0.00    -0.043 A 
HETATM    5  C   UNK N   1      36.121  10.603  14.451  0.00  0.00    -0.042 A 
HETATM    6  C   UNK N   1      36.067  11.671  13.548  0.00  0.00     0.020 A 
HETATM    7  C   UNK N   1      35.131  10.571  15.606  0.00  0.00    -0.020 C 
HETATM    8  C   UNK N   1      33.720  10.799  15.087  0.00  0.00     0.020 C 
HETATM    9  C   UNK N   1      35.457  11.670  16.604  0.00  0.00     0.020 C 
HETATM   10  C   UNK N   1      35.104   9.214  16.307  0.00  0.00     0.015 C 
HETATM   11  C   UNK N   1      36.507   8.711  16.563  0.00  0.00     0.015 C 
HETATM   12  C   UNK N   1      37.242   8.438  15.249  0.00  0.00    -0.020 C 
HETATM   13  C   UNK N   1      36.759   7.128  14.647  0.00  0.00     0.020 C 
HETATM   14  C   UNK N   1      38.707   8.285  15.621  0.00  0.00     0.020 C 
ENDROOT
BRANCH   1  15
HETATM   15  C   UNK N   1      36.776  12.894  11.499  0.00  0.00    -0.051 C 
HETATM   16  C   UNK N   1      37.990  13.279  10.702  0.00  0.00     0.049 C 
HETATM   17  C   UNK N   1      35.611  13.579  11.383  0.00  0.00     0.019 C 
BRANCH  17  18
HETATM   18  C   UNK N   1      35.359  14.765  10.511  0.00  0.00    -0.036 A 
HETATM   19  C   UNK N   1      34.967  14.566   9.180  0.00  0.00     0.012 A 
HETATM   20  C   UNK N   1      34.718  15.664   8.341  0.00  0.00     0.019 A 
HETATM   21  C   UNK N   1      34.857  16.974   8.829  0.00  0.00     0.037 A 
HETATM   22  C   UNK N   1      35.245  17.171  10.155  0.00  0.00     0.019 A 
HETATM   23  C   UNK N   1      35.493  16.079  10.984  0.00  0.00     0.012 A 
BRANCH  21  24
HETATM   24  C   UNK N   1      34.600  18.142   7.963  0.00  0.00     0.176 C 
HETATM   25  O   UNK N   1      34.763  19.275   8.385  0.00  0.00    -0.646 OA
BRANCH  24  26
HETATM   26  O   UNK N   1      34.178  17.961   6.694  0.00  0.00    -0.773 OA
HETATM   27  H   UNK N   1      34.763  17.609   6.052  0.00  0.00     0.167 HD
ENDBRANCH  24  26
ENDBRANCH  21  24
ENDBRANCH  17  18
ENDBRANCH   1  15
TORSDOF 4
ENDMDL
