MODEL 1
REMARK VINA RESULT:      -5.3      0.000      0.000
REMARK  1 active torsions:
REMARK  status: ('A' for Active; 'I' for Inactive)
REMARK    1  A    between atoms: O_15  and  C_3 
ROOT
HETATM    1  C   UNK N   1      34.418  14.910  11.005  0.00  0.00     0.131 A 
HETATM    2  C   UNK N   1      35.371  15.833  11.241  0.00  0.00     0.154 A 
HETATM    3  C   UNK N   1      33.509  15.092   9.979  0.00  0.00     0.186 A 
HETATM    4  C   UNK N   1      35.597  14.265  12.647  0.00  0.00     0.150 A 
HETATM    5  C   UNK N   1      34.595  17.157   9.481  0.00  0.00     0.679 A 
HETATM    6  I   UNK N   1      36.325  13.099  14.238  0.00  0.00    -0.003 I 
HETATM    7  N   UNK N   1      34.672  18.211   8.762  0.00  0.00    -0.234 N 
ATOM      8  HN  UNK N   1      34.009  18.360   8.001  1.00  0.00     0.174 HD
HETATM    9  N   UNK N   1      34.535  13.902  11.880  0.00  0.00    -0.331 N 
ATOM     10  HN  UNK N   1      33.962  13.061  11.955  1.00  0.00     0.168 HD
HETATM   11  N   UNK N   1      36.136  15.456  12.274  0.00  0.00    -0.321 N 
HETATM   12  N   UNK N   1      35.487  16.962  10.503  0.00  0.00    -0.174 N 
HETATM   13  N   UNK N   1      33.615  16.227   9.225  0.00  0.00    -0.168 N 
ATOM     14  HN  UNK N   1      32.957  16.386   8.462  1.00  0.00     0.186 HD
HETATM   15  H   UNK N   1      35.373  18.880   8.943  0.00  0.00     0.174 HD
HETATM   16  H   UNK N   1      36.904  15.930  12.669  0.00  0.00     0.169 HD
HETATM   17  H   UNK N   1      36.192  17.622  10.693  0.00  0.00     0.186 HD
ENDROOT
BRANCH   3  18
HETATM   18  O   UNK N   1      32.552  14.185   9.727  0.00  0.00    -0.344 OA
HETATM   19  H   UNK N   1      31.796  14.135  10.279  0.00  0.00     0.219 HD
ENDBRANCH   3  18
TORSDOF 1
ENDMDL
MODEL 2
REMARK VINA RESULT:      -5.3      4.381      5.822
REMARK  1 active torsions:
REMARK  status: ('A' for Active; 'I' for Inactive)
REMARK    1  A    between atoms: O_15  and  C_3 
ROOT
HETATM    1  C   UNK N   1      33.934  17.301   7.398  0.00  0.00     0.131 A 
HETATM    2  C   UNK N   1      33.404  16.068   7.526  0.00  0.00     0.154 A 
HETATM    3  C   UNK N   1      34.524  17.922   8.483  0.00  0.00     0.186 A 
HETATM    4  C   UNK N   1      33.136  16.706   5.524  0.00  0.00     0.150 A 
HETATM    5  C   UNK N   1      34.001  15.991   9.782  0.00  0.00     0.679 A 
HETATM    6  I   UNK N   1      32.582  16.739   3.496  0.00  0.00    -0.003 I 
HETATM    7  N   UNK N   1      34.036  15.381  10.905  0.00  0.00    -0.234 N 
ATOM      8  HN  UNK N   1      34.468  15.827  11.715  1.00  0.00     0.174 HD
HETATM    9  N   UNK N   1      33.779  17.733   6.140  0.00  0.00    -0.331 N 
ATOM     10  HN  UNK N   1      34.075  18.623   5.737  1.00  0.00     0.168 HD
HETATM   11  N   UNK N   1      32.890  15.661   6.358  0.00  0.00    -0.321 N 
HETATM   12  N   UNK N   1      33.421  15.389   8.697  0.00  0.00    -0.174 N 
HETATM   13  N   UNK N   1      34.547  17.248   9.672  0.00  0.00    -0.168 N 
ATOM     14  HN  UNK N   1      34.976  17.684  10.488  1.00  0.00     0.186 HD
HETATM   15  H   UNK N   1      33.646  14.481  10.988  0.00  0.00     0.174 HD
HETATM   16  H   UNK N   1      32.441  14.808   6.154  0.00  0.00     0.169 HD
HETATM   17  H   UNK N   1      33.027  14.489   8.767  0.00  0.00     0.186 HD
ENDROOT
BRANCH   3  18
HETATM   18  O   UNK N   1      35.057  19.150   8.378  0.00  0.00    -0.344 OA
HETATM   19  H   UNK N   1      35.831  19.368   8.860  0.00  0.00     0.219 HD
ENDBRANCH   3  18
TORSDOF 1
ENDMDL
MODEL 3
REMARK VINA RESULT:      -5.2     14.297     15.626
REMARK  1 active torsions:
REMARK  status: ('A' for Active; 'I' for Inactive)
REMARK    1  A    between atoms: O_15  and  C_3 
ROOT
HETATM    1  C   UNK N   1      22.384  20.051   2.968  0.00  0.00     0.131 A 
HETATM    2  C   UNK N   1      22.486  18.825   3.518  0.00  0.00     0.154 A 
HETATM    3  C   UNK N   1      21.172  20.493   2.470  0.00  0.00     0.186 A 
HETATM    4  C   UNK N   1      24.387  19.757   3.604  0.00  0.00     0.150 A 
HETATM    5  C   UNK N   1      20.224  18.403   3.121  0.00  0.00     0.679 A 
HETATM    6  I   UNK N   1      26.427  20.101   3.978  0.00  0.00    -0.003 I 
HETATM    7  N   UNK N   1      19.206  17.633   3.189  0.00  0.00    -0.234 N 
ATOM      8  HN  UNK N   1      18.305  17.945   2.826  1.00  0.00     0.174 HD
HETATM    9  N   UNK N   1      23.573  20.667   3.008  0.00  0.00    -0.331 N 
ATOM     10  HN  UNK N   1      23.811  21.601   2.671  1.00  0.00     0.168 HD
HETATM   11  N   UNK N   1      23.741  18.606   3.931  0.00  0.00    -0.321 N 
HETATM   12  N   UNK N   1      21.432  17.980   3.609  0.00  0.00    -0.174 N 
HETATM   13  N   UNK N   1      20.100  19.650   2.556  0.00  0.00    -0.168 N 
ATOM     14  HN  UNK N   1      19.194  19.952   2.196  1.00  0.00     0.186 HD
HETATM   15  H   UNK N   1      19.291  16.739   3.593  0.00  0.00     0.174 HD
HETATM   16  H   UNK N   1      24.108  17.802   4.368  0.00  0.00     0.169 HD
HETATM   17  H   UNK N   1      21.531  17.088   4.015  0.00  0.00     0.186 HD
ENDROOT
BRANCH   3  18
HETATM   18  O   UNK N   1      21.048  21.711   1.918  0.00  0.00    -0.344 OA
HETATM   19  H   UNK N   1      20.764  22.435   2.441  0.00  0.00     0.219 HD
ENDBRANCH   3  18
TORSDOF 1
ENDMDL
MODEL 4
REMARK VINA RESULT:      -5.1      2.673      4.151
REMARK  1 active torsions:
REMARK  status: ('A' for Active; 'I' for Inactive)
REMARK    1  A    between atoms: O_15  and  C_3 
ROOT
HETATM    1  C   UNK N   1      34.737  14.876  10.617  0.00  0.00     0.131 A 
HETATM    2  C   UNK N   1      35.373  15.901  11.219  0.00  0.00     0.154 A 
HETATM    3  C   UNK N   1      34.796  13.605  11.157  0.00  0.00     0.186 A 
HETATM    4  C   UNK N   1      34.405  16.641   9.486  0.00  0.00     0.150 A 
HETATM    5  C   UNK N   1      36.155  14.489  12.907  0.00  0.00     0.679 A 
HETATM    6  I   UNK N   1      33.720  17.942   7.984  0.00  0.00    -0.003 I 
HETATM    7  N   UNK N   1      36.819  14.301  13.983  0.00  0.00    -0.234 N 
ATOM      8  HN  UNK N   1      36.872  13.368  14.393  1.00  0.00     0.174 HD
HETATM    9  N   UNK N   1      34.114  15.313   9.515  0.00  0.00    -0.331 N 
ATOM     10  HN  UNK N   1      33.553  14.777   8.853  1.00  0.00     0.168 HD
HETATM   11  N   UNK N   1      35.184  17.033  10.530  0.00  0.00    -0.321 N 
HETATM   12  N   UNK N   1      36.087  15.743  12.359  0.00  0.00    -0.174 N 
HETATM   13  N   UNK N   1      35.513  13.431  12.308  0.00  0.00    -0.168 N 
ATOM     14  HN  UNK N   1      35.572  12.503  12.727  1.00  0.00     0.186 HD
HETATM   15  H   UNK N   1      37.280  15.056  14.415  0.00  0.00     0.174 HD
HETATM   16  H   UNK N   1      35.527  17.934  10.731  0.00  0.00     0.169 HD
HETATM   17  H   UNK N   1      36.543  16.506  12.781  0.00  0.00     0.186 HD
ENDROOT
BRANCH   3  18
HETATM   18  O   UNK N   1      34.170  12.570  10.574  0.00  0.00    -0.344 OA
HETATM   19  H   UNK N   1      33.733  11.929  11.100  0.00  0.00     0.219 HD
ENDBRANCH   3  18
TORSDOF 1
ENDMDL
MODEL 5
REMARK VINA RESULT:      -5.1     16.363     17.022
REMARK  1 active torsions:
REMARK  status: ('A' for Active; 'I' for Inactive)
REMARK    1  A    between atoms: O_15  and  C_3 
ROOT
HETATM    1  C   UNK N   1      20.405  18.125   3.278  0.00  0.00     0.131 A 
HETATM    2  C   UNK N   1      20.139  17.808   1.995  0.00  0.00     0.154 A 
HETATM    3  C   UNK N   1      20.749  19.420   3.620  0.00  0.00     0.186 A 
HETATM    4  C   UNK N   1      19.922  16.061   3.173  0.00  0.00     0.150 A 
HETATM    5  C   UNK N   1      20.534  20.008   1.319  0.00  0.00     0.679 A 
HETATM    6  I   UNK N   1      19.559  14.070   3.745  0.00  0.00    -0.003 I 
HETATM    7  N   UNK N   1      20.596  20.898   0.403  0.00  0.00    -0.234 N 
ATOM      8  HN  UNK N   1      20.848  21.857   0.639  1.00  0.00     0.174 HD
HETATM    9  N   UNK N   1      20.276  17.037   4.050  0.00  0.00    -0.331 N 
ATOM     10  HN  UNK N   1      20.411  16.960   5.059  1.00  0.00     0.168 HD
HETATM   11  N   UNK N   1      19.830  16.509   1.892  0.00  0.00    -0.321 N 
HETATM   12  N   UNK N   1      20.194  18.721   0.996  0.00  0.00    -0.174 N 
HETATM   13  N   UNK N   1      20.808  20.351   2.622  0.00  0.00    -0.168 N 
ATOM     14  HN  UNK N   1      21.060  21.313   2.847  1.00  0.00     0.186 HD
HETATM   15  H   UNK N   1      20.400  20.656  -0.532  0.00  0.00     0.174 HD
HETATM   16  H   UNK N   1      19.592  16.001   1.082  0.00  0.00     0.169 HD
HETATM   17  H   UNK N   1      19.996  18.466   0.066  0.00  0.00     0.186 HD
ENDROOT
BRANCH   3  18
HETATM   18  O   UNK N   1      21.018  19.756   4.892  0.00  0.00    -0.344 OA
HETATM   19  H   UNK N   1      21.836  19.514   5.278  0.00  0.00     0.219 HD
ENDBRANCH   3  18
TORSDOF 1
ENDMDL
MODEL 6
REMARK VINA RESULT:      -5.0      1.665      2.460
REMARK  1 active torsions:
REMARK  status: ('A' for Active; 'I' for Inactive)
REMARK    1  A    between atoms: O_15  and  C_3 
ROOT
HETATM    1  C   UNK N   1      34.981  15.588  11.047  0.00  0.00     0.131 A 
HETATM    2  C   UNK N   1      34.140  14.541  10.941  0.00  0.00     0.154 A 
HETATM    3  C   UNK N   1      34.860  16.670  10.195  0.00  0.00     0.186 A 
HETATM    4  C   UNK N   1      35.495  14.151  12.522  0.00  0.00     0.150 A 
HETATM    5  C   UNK N   1      33.019  15.558   9.163  0.00  0.00     0.679 A 
HETATM    6  I   UNK N   1      36.480  13.205  14.120  0.00  0.00    -0.003 I 
HETATM    7  N   UNK N   1      32.099  15.549   8.275  0.00  0.00    -0.234 N 
ATOM      8  HN  UNK N   1      31.997  16.340   7.639  1.00  0.00     0.174 HD
HETATM    9  N   UNK N   1      35.853  15.371  12.041  0.00  0.00    -0.331 N 
ATOM     10  HN  UNK N   1      36.608  15.978  12.362  1.00  0.00     0.168 HD
HETATM   11  N   UNK N   1      34.437  13.612  11.860  0.00  0.00    -0.321 N 
HETATM   12  N   UNK N   1      33.153  14.493  10.015  0.00  0.00    -0.174 N 
HETATM   13  N   UNK N   1      33.868  16.635   9.255  0.00  0.00    -0.168 N 
ATOM     14  HN  UNK N   1      33.757  17.420   8.614  1.00  0.00     0.186 HD
HETATM   15  H   UNK N   1      31.489  14.779   8.206  0.00  0.00     0.174 HD
HETATM   16  H   UNK N   1      33.994  12.747  12.018  0.00  0.00     0.169 HD
HETATM   17  H   UNK N   1      32.550  13.717   9.957  0.00  0.00     0.186 HD
ENDROOT
BRANCH   3  18
HETATM   18  O   UNK N   1      35.688  17.723  10.283  0.00  0.00    -0.344 OA
HETATM   19  H   UNK N   1      35.339  18.583  10.417  0.00  0.00     0.219 HD
ENDBRANCH   3  18
TORSDOF 1
ENDMDL
MODEL 7
REMARK VINA RESULT:      -4.9      4.709      6.058
REMARK  1 active torsions:
REMARK  status: ('A' for Active; 'I' for Inactive)
REMARK    1  A    between atoms: O_15  and  C_3 
ROOT
HETATM    1  C   UNK N   1      32.254  17.284   6.936  0.00  0.00     0.131 A 
HETATM    2  C   UNK N   1      31.809  17.009   8.178  0.00  0.00     0.154 A 
HETATM    3  C   UNK N   1      33.596  17.538   6.717  0.00  0.00     0.186 A 
HETATM    4  C   UNK N   1      30.159  16.959   6.849  0.00  0.00     0.150 A 
HETATM    5  C   UNK N   1      33.964  17.217   9.051  0.00  0.00     0.679 A 
HETATM    6  I   UNK N   1      28.205  16.764   6.099  0.00  0.00    -0.003 I 
HETATM    7  N   UNK N   1      34.773  17.186  10.041  0.00  0.00    -0.234 N 
ATOM      8  HN  UNK N   1      35.765  17.371   9.895  1.00  0.00     0.174 HD
HETATM    9  N   UNK N   1      31.232  17.260   6.071  0.00  0.00    -0.331 N 
ATOM     10  HN  UNK N   1      31.252  17.427   5.064  1.00  0.00     0.168 HD
HETATM   11  N   UNK N   1      30.486  16.798   8.160  0.00  0.00    -0.321 N 
HETATM   12  N   UNK N   1      32.632  16.968   9.252  0.00  0.00    -0.174 N 
HETATM   13  N   UNK N   1      34.438  17.499   7.792  0.00  0.00    -0.168 N 
ATOM     14  HN  UNK N   1      35.432  17.682   7.657  1.00  0.00     0.186 HD
HETATM   15  H   UNK N   1      34.437  16.984  10.944  0.00  0.00     0.174 HD
HETATM   16  H   UNK N   1      29.893  16.578   8.915  0.00  0.00     0.169 HD
HETATM   17  H   UNK N   1      32.284  16.765  10.150  0.00  0.00     0.186 HD
ENDROOT
BRANCH   3  18
HETATM   18  O   UNK N   1      34.061  17.814   5.487  0.00  0.00    -0.344 OA
HETATM   19  H   UNK N   1      34.012  18.688   5.153  0.00  0.00     0.219 HD
ENDBRANCH   3  18
TORSDOF 1
ENDMDL
MODEL 8
REMARK VINA RESULT:      -4.9     19.894     21.043
REMARK  1 active torsions:
REMARK  status: ('A' for Active; 'I' for Inactive)
REMARK    1  A    between atoms: O_15  and  C_3 
ROOT
HETATM    1  C   UNK N   1      26.118  24.706  -4.912  0.00  0.00     0.131 A 
HETATM    2  C   UNK N   1      25.656  25.584  -5.824  0.00  0.00     0.154 A 
HETATM    3  C   UNK N   1      26.420  25.127  -3.629  0.00  0.00     0.186 A 
HETATM    4  C   UNK N   1      25.780  23.676  -6.736  0.00  0.00     0.150 A 
HETATM    5  C   UNK N   1      25.760  27.327  -4.273  0.00  0.00     0.679 A 
HETATM    6  I   UNK N   1      25.673  22.132  -8.159  0.00  0.00    -0.003 I 
HETATM    7  N   UNK N   1      25.595  28.557  -3.967  0.00  0.00    -0.234 N 
ATOM      8  HN  UNK N   1      25.812  28.882  -3.025  1.00  0.00     0.174 HD
HETATM    9  N   UNK N   1      26.208  23.487  -5.460  0.00  0.00    -0.331 N 
ATOM     10  HN  UNK N   1      26.524  22.620  -5.023  1.00  0.00     0.168 HD
HETATM   11  N   UNK N   1      25.431  24.966  -6.990  0.00  0.00    -0.321 N 
HETATM   12  N   UNK N   1      25.466  26.894  -5.540  0.00  0.00    -0.174 N 
HETATM   13  N   UNK N   1      26.233  26.446  -3.329  0.00  0.00    -0.168 N 
ATOM     14  HN  UNK N   1      26.448  26.783  -2.390  1.00  0.00     0.186 HD
HETATM   15  H   UNK N   1      25.256  29.190  -4.641  0.00  0.00     0.174 HD
HETATM   16  H   UNK N   1      25.094  25.353  -7.831  0.00  0.00     0.169 HD
HETATM   17  H   UNK N   1      25.128  27.517  -6.223  0.00  0.00     0.186 HD
ENDROOT
BRANCH   3  18
HETATM   18  O   UNK N   1      26.881  24.269  -2.705  0.00  0.00    -0.344 OA
HETATM   19  H   UNK N   1      26.378  24.095  -1.934  0.00  0.00     0.219 HD
ENDBRANCH   3  18
TORSDOF 1
ENDMDL
MODEL 9
REMARK VINA RESULT:      -4.7      3.143      4.723
REMARK  1 active torsions:
REMARK  status: ('A' for Active; 'I' for Inactive)
REMARK    1  A    between atoms: O_15  and  C_3 
ROOT
HETATM    1  C   UNK N   1      35.630  14.956  10.447  0.00  0.00     0.131 A 
HETATM    2  C   UNK N   1      34.572  14.511  11.155  0.00  0.00     0.154 A 
HETATM    3  C   UNK N   1      36.915  14.605  10.820  0.00  0.00     0.186 A 
HETATM    4  C   UNK N   1      33.855  15.709   9.561  0.00  0.00     0.150 A 
HETATM    5  C   UNK N   1      35.975  13.360  12.624  0.00  0.00     0.679 A 
HETATM    6  I   UNK N   1      32.560  16.733   8.258  0.00  0.00    -0.003 I 
HETATM    7  N   UNK N   1      36.144  12.610  13.645  0.00  0.00    -0.234 N 
ATOM      8  HN  UNK N   1      37.085  12.343  13.933  1.00  0.00     0.174 HD
HETATM    9  N   UNK N   1      35.208  15.718   9.430  0.00  0.00    -0.331 N 
ATOM     10  HN  UNK N   1      35.769  16.194   8.723  1.00  0.00     0.168 HD
HETATM   11  N   UNK N   1      33.432  14.969  10.621  0.00  0.00    -0.321 N 
HETATM   12  N   UNK N   1      34.708  13.716  12.242  0.00  0.00    -0.174 N 
HETATM   13  N   UNK N   1      37.067  13.803  11.915  0.00  0.00    -0.168 N 
ATOM     14  HN  UNK N   1      38.004  13.530  12.211  1.00  0.00     0.186 HD
HETATM   15  H   UNK N   1      35.364  12.291  14.156  0.00  0.00     0.174 HD
HETATM   16  H   UNK N   1      32.509  14.808  10.924  0.00  0.00     0.169 HD
HETATM   17  H   UNK N   1      33.921  13.403  12.743  0.00  0.00     0.186 HD
ENDROOT
BRANCH   3  18
HETATM   18  O   UNK N   1      37.982  15.037  10.129  0.00  0.00    -0.344 OA
HETATM   19  H   UNK N   1      37.905  15.222   9.214  0.00  0.00     0.219 HD
ENDBRANCH   3  18
TORSDOF 1
ENDMDL
