MODEL 1
REMARK VINA RESULT:      -7.5      0.000      0.000
REMARK  9 active torsions:
REMARK  status: ('A' for Active; 'I' for Inactive)
REMARK    1  A    between atoms: O_2  and  C_34 
REMARK    2  A    between atoms: N_4  and  C_6 
REMARK       I    between atoms: N_4  and  C_7 
REMARK    3  A    between atoms: N_4  and  C_8 
REMARK    4  A    between atoms: N_5  and  C_26 
REMARK    5  A    between atoms: C_7  and  C_10 
REMARK    6  A    between atoms: C_8  and  C_9 
REMARK    7  A    between atoms: C_11  and  C_12 
REMARK    8  A    between atoms: C_15  and  C_29 
REMARK    9  A    between atoms: C_33  and  C_34 
ROOT
HETATM    1  O   UNK N   1      26.139  29.766  -3.294  0.00  0.00    -0.273 OA
HETATM    2  N   UNK N   1      26.988  28.005  -4.405  0.00  0.00    -0.313 N 
HETATM    3  C   UNK N   1      27.109  29.070  -3.553  0.00  0.00     0.228 C 
ENDROOT
BRANCH   2   4
HETATM    4  C   UNK N   1      28.116  27.150  -4.825  0.00  0.00     0.038 A 
HETATM    5  C   UNK N   1      28.611  26.064  -4.034  0.00  0.00     0.041 A 
HETATM    6  C   UNK N   1      29.745  25.313  -4.427  0.00  0.00    -0.034 A 
HETATM    7  C   UNK N   1      30.419  25.659  -5.595  0.00  0.00     0.011 A 
HETATM    8  C   UNK N   1      29.958  26.703  -6.389  0.00  0.00     0.003 A 
HETATM    9  C   UNK N   1      28.812  27.413  -6.021  0.00  0.00     0.030 A 
BRANCH   6  10
HETATM   10  C   UNK N   1      30.245  24.123  -3.693  0.00  0.00     0.017 C 
HETATM   11  C   UNK N   1      31.165  23.246  -4.122  0.00  0.00     0.083 C 
BRANCH  11  12
HETATM   12  C   UNK N   1      31.632  22.150  -3.220  0.00  0.00     0.282 C 
HETATM   13  O   UNK N   1      31.530  22.285  -2.010  0.00  0.00    -0.260 OA
BRANCH  12  14
HETATM   14  O   UNK N   1      32.180  21.003  -3.695  0.00  0.00    -0.323 OA
HETATM   15  C   UNK N   1      31.571  20.180  -4.608  0.00  0.00     0.213 C 
ENDBRANCH  12  14
ENDBRANCH  11  12
ENDBRANCH   6  10
ENDBRANCH   2   4
BRANCH   2  16
HETATM   16  C   UNK N   1      25.597  27.752  -4.822  0.00  0.00     0.170 C 
BRANCH  16  17
HETATM   17  C   UNK N   1      25.347  26.487  -5.536  0.00  0.00    -0.040 C 
HETATM   18  C   UNK N   1      25.609  26.395  -6.903  0.00  0.00     0.010 C 
HETATM   19  C   UNK N   1      26.028  25.182  -7.420  0.00  0.00     0.013 C 
HETATM   20  C   UNK N   1      26.137  24.064  -6.580  0.00  0.00    -0.026 C 
HETATM   21  C   UNK N   1      25.673  24.125  -5.264  0.00  0.00     0.013 C 
HETATM   22  C   UNK N   1      25.303  25.348  -4.737  0.00  0.00     0.010 C 
BRANCH  20  23
HETATM   23  C   UNK N   1      26.991  22.946  -6.978  0.00  0.00    -0.026 A 
HETATM   24  C   UNK N   1      28.355  22.934  -6.662  0.00  0.00     0.014 A 
HETATM   25  C   UNK N   1      29.169  21.907  -7.136  0.00  0.00     0.030 A 
HETATM   26  C   UNK N   1      28.639  20.911  -7.973  0.00  0.00     0.029 A 
HETATM   27  C   UNK N   1      27.287  20.968  -8.338  0.00  0.00     0.030 A 
HETATM   28  C   UNK N   1      26.472  21.974  -7.842  0.00  0.00     0.014 A 
BRANCH  26  29
HETATM   29  N   UNK N   1      29.445  19.819  -8.401  0.00  0.00    -0.390 N 
HETATM   30  C   UNK N   1      29.367  18.546  -7.732  0.00  0.00     0.149 C 
HETATM   31  C   UNK N   1      30.242  19.919  -9.598  0.00  0.00     0.149 C 
ENDBRANCH  26  29
ENDBRANCH  20  23
ENDBRANCH  16  17
ENDBRANCH   2  16
BRANCH   3  32
HETATM   32  C   UNK N   1      28.375  29.366  -2.848  0.00  0.00     0.078 C 
HETATM   33  C   UNK N   1      29.426  30.146  -3.619  0.00  0.00     0.014 C 
HETATM   34  C   UNK N   1      30.771  30.049  -2.881  0.00  0.00     0.001 C 
HETATM   35  C   UNK N   1      30.664  29.417  -1.479  0.00  0.00     0.000 C 
HETATM   36  C   UNK N   1      29.504  30.017  -0.691  0.00  0.00     0.001 C 
HETATM   37  C   UNK N   1      28.171  29.846  -1.416  0.00  0.00     0.014 C 
ENDBRANCH   3  32
TORSDOF 9
ENDMDL
MODEL 2
REMARK VINA RESULT:      -7.1      2.961      5.932
REMARK  9 active torsions:
REMARK  status: ('A' for Active; 'I' for Inactive)
REMARK    1  A    between atoms: O_2  and  C_34 
REMARK    2  A    between atoms: N_4  and  C_6 
REMARK       I    between atoms: N_4  and  C_7 
REMARK    3  A    between atoms: N_4  and  C_8 
REMARK    4  A    between atoms: N_5  and  C_26 
REMARK    5  A    between atoms: C_7  and  C_10 
REMARK    6  A    between atoms: C_8  and  C_9 
REMARK    7  A    between atoms: C_11  and  C_12 
REMARK    8  A    between atoms: C_15  and  C_29 
REMARK    9  A    between atoms: C_33  and  C_34 
ROOT
HETATM    1  O   UNK N   1      25.695  27.124  -6.490  0.00  0.00    -0.273 OA
HETATM    2  N   UNK N   1      25.998  24.909  -6.253  0.00  0.00    -0.313 N 
HETATM    3  C   UNK N   1      25.961  26.050  -7.008  0.00  0.00     0.228 C 
ENDROOT
BRANCH   2   4
HETATM    4  C   UNK N   1      26.247  23.561  -6.803  0.00  0.00     0.038 A 
HETATM    5  C   UNK N   1      27.543  22.955  -6.832  0.00  0.00     0.041 A 
HETATM    6  C   UNK N   1      27.763  21.695  -7.439  0.00  0.00    -0.034 A 
HETATM    7  C   UNK N   1      26.698  21.041  -8.054  0.00  0.00     0.011 A 
HETATM    8  C   UNK N   1      25.425  21.600  -8.034  0.00  0.00     0.003 A 
HETATM    9  C   UNK N   1      25.204  22.822  -7.395  0.00  0.00     0.030 A 
BRANCH   6  10
HETATM   10  C   UNK N   1      29.065  20.981  -7.418  0.00  0.00     0.017 C 
HETATM   11  C   UNK N   1      30.251  21.489  -7.054  0.00  0.00     0.083 C 
BRANCH  11  12
HETATM   12  C   UNK N   1      31.458  20.609  -6.997  0.00  0.00     0.282 C 
HETATM   13  O   UNK N   1      31.445  19.622  -6.277  0.00  0.00    -0.260 OA
BRANCH  12  14
HETATM   14  O   UNK N   1      32.581  20.869  -7.712  0.00  0.00    -0.323 OA
HETATM   15  C   UNK N   1      33.716  20.100  -7.669  0.00  0.00     0.213 C 
ENDBRANCH  12  14
ENDBRANCH  11  12
ENDBRANCH   6  10
ENDBRANCH   2   4
BRANCH   2  16
HETATM   16  C   UNK N   1      25.825  25.162  -4.811  0.00  0.00     0.170 C 
BRANCH  16  17
HETATM   17  C   UNK N   1      27.029  25.032  -3.973  0.00  0.00    -0.040 C 
HETATM   18  C   UNK N   1      27.168  23.941  -3.115  0.00  0.00     0.010 C 
HETATM   19  C   UNK N   1      28.435  23.444  -2.868  0.00  0.00     0.013 C 
HETATM   20  C   UNK N   1      29.554  24.065  -3.442  0.00  0.00    -0.026 C 
HETATM   21  C   UNK N   1      29.413  25.275  -4.126  0.00  0.00     0.013 C 
HETATM   22  C   UNK N   1      28.143  25.741  -4.414  0.00  0.00     0.010 C 
BRANCH  20  23
HETATM   23  C   UNK N   1      30.801  23.316  -3.581  0.00  0.00    -0.026 A 
HETATM   24  C   UNK N   1      31.790  23.724  -4.484  0.00  0.00     0.014 A 
HETATM   25  C   UNK N   1      32.927  22.940  -4.671  0.00  0.00     0.030 A 
HETATM   26  C   UNK N   1      33.062  21.714  -3.997  0.00  0.00     0.029 A 
HETATM   27  C   UNK N   1      32.036  21.282  -3.147  0.00  0.00     0.030 A 
HETATM   28  C   UNK N   1      30.919  22.077  -2.939  0.00  0.00     0.014 A 
BRANCH  26  29
HETATM   29  N   UNK N   1      34.251  20.943  -4.126  0.00  0.00    -0.390 N 
HETATM   30  C   UNK N   1      34.200  19.505  -4.063  0.00  0.00     0.149 C 
HETATM   31  C   UNK N   1      35.501  21.573  -4.471  0.00  0.00     0.149 C 
ENDBRANCH  26  29
ENDBRANCH  20  23
ENDBRANCH  16  17
ENDBRANCH   2  16
BRANCH   3  32
HETATM   32  C   UNK N   1      26.326  26.050  -8.441  0.00  0.00     0.078 C 
HETATM   33  C   UNK N   1      25.188  26.163  -9.441  0.00  0.00     0.014 C 
HETATM   34  C   UNK N   1      25.705  25.793 -10.840  0.00  0.00     0.001 C 
HETATM   35  C   UNK N   1      27.237  25.643 -10.915  0.00  0.00     0.000 C 
HETATM   36  C   UNK N   1      27.939  26.807 -10.223  0.00  0.00     0.001 C 
HETATM   37  C   UNK N   1      27.524  26.938  -8.760  0.00  0.00     0.014 C 
ENDBRANCH   3  32
TORSDOF 9
ENDMDL
MODEL 3
REMARK VINA RESULT:      -7.0      2.773      5.523
REMARK  9 active torsions:
REMARK  status: ('A' for Active; 'I' for Inactive)
REMARK    1  A    between atoms: O_2  and  C_34 
REMARK    2  A    between atoms: N_4  and  C_6 
REMARK       I    between atoms: N_4  and  C_7 
REMARK    3  A    between atoms: N_4  and  C_8 
REMARK    4  A    between atoms: N_5  and  C_26 
REMARK    5  A    between atoms: C_7  and  C_10 
REMARK    6  A    between atoms: C_8  and  C_9 
REMARK    7  A    between atoms: C_11  and  C_12 
REMARK    8  A    between atoms: C_15  and  C_29 
REMARK    9  A    between atoms: C_33  and  C_34 
ROOT
HETATM    1  O   UNK N   1      30.831  26.806  -3.125  0.00  0.00    -0.273 OA
HETATM    2  N   UNK N   1      29.512  25.072  -3.682  0.00  0.00    -0.313 N 
HETATM    3  C   UNK N   1      29.891  26.384  -3.782  0.00  0.00     0.228 C 
ENDROOT
BRANCH   2   4
HETATM    4  C   UNK N   1      28.351  24.491  -4.386  0.00  0.00     0.038 A 
HETATM    5  C   UNK N   1      28.421  23.986  -5.724  0.00  0.00     0.041 A 
HETATM    6  C   UNK N   1      27.273  23.510  -6.402  0.00  0.00    -0.034 A 
HETATM    7  C   UNK N   1      26.036  23.562  -5.764  0.00  0.00     0.011 A 
HETATM    8  C   UNK N   1      25.937  24.039  -4.461  0.00  0.00     0.003 A 
HETATM    9  C   UNK N   1      27.080  24.466  -3.780  0.00  0.00     0.030 A 
BRANCH   6  10
HETATM   10  C   UNK N   1      27.304  22.894  -7.753  0.00  0.00     0.017 C 
HETATM   11  C   UNK N   1      26.559  21.865  -8.180  0.00  0.00     0.083 C 
BRANCH  11  12
HETATM   12  C   UNK N   1      26.640  21.422  -9.606  0.00  0.00     0.282 C 
HETATM   13  O   UNK N   1      27.714  21.469 -10.187  0.00  0.00    -0.260 OA
BRANCH  12  14
HETATM   14  O   UNK N   1      25.557  20.975 -10.290  0.00  0.00    -0.323 OA
HETATM   15  C   UNK N   1      25.590  20.563 -11.598  0.00  0.00     0.213 C 
ENDBRANCH  12  14
ENDBRANCH  11  12
ENDBRANCH   6  10
ENDBRANCH   2   4
BRANCH   2  16
HETATM   16  C   UNK N   1      30.418  24.269  -2.841  0.00  0.00     0.170 C 
BRANCH  16  17
HETATM   17  C   UNK N   1      30.999  23.067  -3.465  0.00  0.00    -0.040 C 
HETATM   18  C   UNK N   1      30.358  21.835  -3.336  0.00  0.00     0.010 C 
HETATM   19  C   UNK N   1      30.454  20.923  -4.372  0.00  0.00     0.013 C 
HETATM   20  C   UNK N   1      31.223  21.229  -5.504  0.00  0.00    -0.026 C 
HETATM   21  C   UNK N   1      32.021  22.375  -5.524  0.00  0.00     0.013 C 
HETATM   22  C   UNK N   1      31.885  23.307  -4.512  0.00  0.00     0.010 C 
BRANCH  20  23
HETATM   23  C   UNK N   1      30.968  20.523  -6.759  0.00  0.00    -0.026 A 
HETATM   24  C   UNK N   1      29.693  20.030  -7.063  0.00  0.00     0.014 A 
HETATM   25  C   UNK N   1      29.497  19.276  -8.217  0.00  0.00     0.030 A 
HETATM   26  C   UNK N   1      30.581  18.963  -9.053  0.00  0.00     0.029 A 
HETATM   27  C   UNK N   1      31.865  19.404  -8.706  0.00  0.00     0.030 A 
HETATM   28  C   UNK N   1      32.054  20.180  -7.573  0.00  0.00     0.014 A 
BRANCH  26  29
HETATM   29  N   UNK N   1      30.378  18.256 -10.271  0.00  0.00    -0.390 N 
HETATM   30  C   UNK N   1      29.688  18.879 -11.372  0.00  0.00     0.149 C 
HETATM   31  C   UNK N   1      30.983  16.965 -10.482  0.00  0.00     0.149 C 
ENDBRANCH  26  29
ENDBRANCH  20  23
ENDBRANCH  16  17
ENDBRANCH   2  16
BRANCH   3  32
HETATM   32  C   UNK N   1      29.252  27.310  -4.741  0.00  0.00     0.078 C 
HETATM   33  C   UNK N   1      28.144  28.199  -4.204  0.00  0.00     0.014 C 
HETATM   34  C   UNK N   1      27.374  28.816  -5.384  0.00  0.00     0.001 C 
HETATM   35  C   UNK N   1      28.045  28.581  -6.751  0.00  0.00     0.000 C 
HETATM   36  C   UNK N   1      29.539  28.880  -6.692  0.00  0.00     0.001 C 
HETATM   37  C   UNK N   1      30.250  28.034  -5.638  0.00  0.00     0.014 C 
ENDBRANCH   3  32
TORSDOF 9
ENDMDL
MODEL 4
REMARK VINA RESULT:      -7.0      2.670      8.223
REMARK  9 active torsions:
REMARK  status: ('A' for Active; 'I' for Inactive)
REMARK    1  A    between atoms: O_2  and  C_34 
REMARK    2  A    between atoms: N_4  and  C_6 
REMARK       I    between atoms: N_4  and  C_7 
REMARK    3  A    between atoms: N_4  and  C_8 
REMARK    4  A    between atoms: N_5  and  C_26 
REMARK    5  A    between atoms: C_7  and  C_10 
REMARK    6  A    between atoms: C_8  and  C_9 
REMARK    7  A    between atoms: C_11  and  C_12 
REMARK    8  A    between atoms: C_15  and  C_29 
REMARK    9  A    between atoms: C_33  and  C_34 
ROOT
HETATM    1  O   UNK N   1      29.238  21.624 -11.621  0.00  0.00    -0.273 OA
HETATM    2  N   UNK N   1      27.547  22.351 -10.329  0.00  0.00    -0.313 N 
HETATM    3  C   UNK N   1      28.618  21.533 -10.572  0.00  0.00     0.228 C 
ENDROOT
BRANCH   2   4
HETATM    4  C   UNK N   1      26.701  22.269  -9.122  0.00  0.00     0.038 A 
HETATM    5  C   UNK N   1      26.973  23.007  -7.925  0.00  0.00     0.041 A 
HETATM    6  C   UNK N   1      26.190  22.845  -6.757  0.00  0.00    -0.034 A 
HETATM    7  C   UNK N   1      25.148  21.921  -6.758  0.00  0.00     0.011 A 
HETATM    8  C   UNK N   1      24.854  21.196  -7.907  0.00  0.00     0.003 A 
HETATM    9  C   UNK N   1      25.601  21.390  -9.072  0.00  0.00     0.030 A 
BRANCH   6  10
HETATM   10  C   UNK N   1      26.370  23.648  -5.521  0.00  0.00     0.017 C 
HETATM   11  C   UNK N   1      27.535  24.014  -4.967  0.00  0.00     0.083 C 
BRANCH  11  12
HETATM   12  C   UNK N   1      27.547  24.908  -3.769  0.00  0.00     0.282 C 
HETATM   13  O   UNK N   1      26.698  24.760  -2.903  0.00  0.00    -0.260 OA
BRANCH  12  14
HETATM   14  O   UNK N   1      28.466  25.893  -3.607  0.00  0.00    -0.323 OA
HETATM   15  C   UNK N   1      29.689  25.913  -4.227  0.00  0.00     0.213 C 
ENDBRANCH  12  14
ENDBRANCH  11  12
ENDBRANCH   6  10
ENDBRANCH   2   4
BRANCH   2  16
HETATM   16  C   UNK N   1      27.351  23.374 -11.372  0.00  0.00     0.170 C 
BRANCH  16  17
HETATM   17  C   UNK N   1      27.262  24.771 -10.911  0.00  0.00    -0.040 C 
HETATM   18  C   UNK N   1      26.033  25.299 -10.516  0.00  0.00     0.010 C 
HETATM   19  C   UNK N   1      26.008  26.255  -9.516  0.00  0.00     0.013 C 
HETATM   20  C   UNK N   1      27.210  26.708  -8.952  0.00  0.00    -0.026 C 
HETATM   21  C   UNK N   1      28.435  26.322  -9.503  0.00  0.00     0.013 C 
HETATM   22  C   UNK N   1      28.457  25.330 -10.466  0.00  0.00     0.010 C 
BRANCH  20  23
HETATM   23  C   UNK N   1      27.194  27.332  -7.631  0.00  0.00    -0.026 A 
HETATM   24  C   UNK N   1      26.155  27.079  -6.727  0.00  0.00     0.014 A 
HETATM   25  C   UNK N   1      26.109  27.762  -5.513  0.00  0.00     0.030 A 
HETATM   26  C   UNK N   1      27.071  28.740  -5.212  0.00  0.00     0.029 A 
HETATM   27  C   UNK N   1      28.069  29.034  -6.151  0.00  0.00     0.030 A 
HETATM   28  C   UNK N   1      28.130  28.333  -7.346  0.00  0.00     0.014 A 
BRANCH  26  29
HETATM   29  N   UNK N   1      27.075  29.389  -3.945  0.00  0.00    -0.390 N 
HETATM   30  C   UNK N   1      27.949  28.935  -2.894  0.00  0.00     0.149 C 
HETATM   31  C   UNK N   1      26.318  30.597  -3.736  0.00  0.00     0.149 C 
ENDBRANCH  26  29
ENDBRANCH  20  23
ENDBRANCH  16  17
ENDBRANCH   2  16
BRANCH   3  32
HETATM   32  C   UNK N   1      29.121  20.583  -9.557  0.00  0.00     0.078 C 
HETATM   33  C   UNK N   1      29.787  19.318 -10.068  0.00  0.00     0.014 C 
HETATM   34  C   UNK N   1      29.917  18.312  -8.912  0.00  0.00     0.001 C 
HETATM   35  C   UNK N   1      29.577  18.907  -7.532  0.00  0.00     0.000 C 
HETATM   36  C   UNK N   1      30.258  20.257  -7.331  0.00  0.00     0.001 C 
HETATM   37  C   UNK N   1      29.869  21.261  -8.413  0.00  0.00     0.014 C 
ENDBRANCH   3  32
TORSDOF 9
ENDMDL
MODEL 5
REMARK VINA RESULT:      -6.9     13.223     17.253
REMARK  9 active torsions:
REMARK  status: ('A' for Active; 'I' for Inactive)
REMARK    1  A    between atoms: O_2  and  C_34 
REMARK    2  A    between atoms: N_4  and  C_6 
REMARK       I    between atoms: N_4  and  C_7 
REMARK    3  A    between atoms: N_4  and  C_8 
REMARK    4  A    between atoms: N_5  and  C_26 
REMARK    5  A    between atoms: C_7  and  C_10 
REMARK    6  A    between atoms: C_8  and  C_9 
REMARK    7  A    between atoms: C_11  and  C_12 
REMARK    8  A    between atoms: C_15  and  C_29 
REMARK    9  A    between atoms: C_33  and  C_34 
ROOT
HETATM    1  O   UNK N   1      36.662  16.417  10.912  0.00  0.00    -0.273 OA
HETATM    2  N   UNK N   1      35.172  15.763   9.360  0.00  0.00    -0.313 N 
HETATM    3  C   UNK N   1      36.199  15.515  10.231  0.00  0.00     0.228 C 
ENDROOT
BRANCH   2   4
HETATM    4  C   UNK N   1      34.594  14.751   8.454  0.00  0.00     0.038 A 
HETATM    5  C   UNK N   1      34.828  14.741   7.042  0.00  0.00     0.041 A 
HETATM    6  C   UNK N   1      34.195  13.806   6.188  0.00  0.00    -0.034 A 
HETATM    7  C   UNK N   1      33.295  12.891   6.730  0.00  0.00     0.011 A 
HETATM    8  C   UNK N   1      33.053  12.870   8.098  0.00  0.00     0.003 A 
HETATM    9  C   UNK N   1      33.714  13.765   8.943  0.00  0.00     0.030 A 
BRANCH   6  10
HETATM   10  C   UNK N   1      34.470  13.693   4.733  0.00  0.00     0.017 C 
HETATM   11  C   UNK N   1      33.698  14.146   3.735  0.00  0.00     0.083 C 
BRANCH  11  12
HETATM   12  C   UNK N   1      34.165  14.038   2.319  0.00  0.00     0.282 C 
HETATM   13  O   UNK N   1      34.382  15.056   1.681  0.00  0.00    -0.260 OA
BRANCH  12  14
HETATM   14  O   UNK N   1      34.349  12.842   1.705  0.00  0.00    -0.323 OA
HETATM   15  C   UNK N   1      33.558  12.368   0.690  0.00  0.00     0.213 C 
ENDBRANCH  12  14
ENDBRANCH  11  12
ENDBRANCH   6  10
ENDBRANCH   2   4
BRANCH   2  16
HETATM   16  C   UNK N   1      34.649  17.138   9.457  0.00  0.00     0.170 C 
BRANCH  16  17
HETATM   17  C   UNK N   1      33.623  17.520   8.470  0.00  0.00    -0.040 C 
HETATM   18  C   UNK N   1      33.999  17.873   7.175  0.00  0.00     0.010 C 
HETATM   19  C   UNK N   1      33.141  17.579   6.129  0.00  0.00     0.013 C 
HETATM   20  C   UNK N   1      31.901  16.979   6.390  0.00  0.00    -0.026 C 
HETATM   21  C   UNK N   1      31.457  16.825   7.705  0.00  0.00     0.013 C 
HETATM   22  C   UNK N   1      32.334  17.071   8.745  0.00  0.00     0.010 C 
BRANCH  20  23
HETATM   23  C   UNK N   1      31.213  16.257   5.322  0.00  0.00    -0.026 A 
HETATM   24  C   UNK N   1      31.033  16.835   4.059  0.00  0.00     0.014 A 
HETATM   25  C   UNK N   1      30.289  16.168   3.089  0.00  0.00     0.030 A 
HETATM   26  C   UNK N   1      29.673  14.941   3.386  0.00  0.00     0.029 A 
HETATM   27  C   UNK N   1      29.802  14.402   4.673  0.00  0.00     0.030 A 
HETATM   28  C   UNK N   1      30.568  15.052   5.629  0.00  0.00     0.014 A 
BRANCH  26  29
HETATM   29  N   UNK N   1      28.973  14.219   2.380  0.00  0.00    -0.390 N 
HETATM   30  C   UNK N   1      27.695  14.681   1.902  0.00  0.00     0.149 C 
HETATM   31  C   UNK N   1      29.590  13.099   1.715  0.00  0.00     0.149 C 
ENDBRANCH  26  29
ENDBRANCH  20  23
ENDBRANCH  16  17
ENDBRANCH   2  16
BRANCH   3  32
HETATM   32  C   UNK N   1      36.723  14.150  10.452  0.00  0.00     0.078 C 
HETATM   33  C   UNK N   1      38.027  13.793   9.759  0.00  0.00     0.014 C 
HETATM   34  C   UNK N   1      38.225  12.269   9.807  0.00  0.00     0.001 C 
HETATM   35  C   UNK N   1      37.216  11.542  10.718  0.00  0.00     0.000 C 
HETATM   36  C   UNK N   1      37.082  12.246  12.064  0.00  0.00     0.001 C 
HETATM   37  C   UNK N   1      36.648  13.702  11.907  0.00  0.00     0.014 C 
ENDBRANCH   3  32
TORSDOF 9
ENDMDL
MODEL 6
REMARK VINA RESULT:      -6.9     18.303     22.214
REMARK  9 active torsions:
REMARK  status: ('A' for Active; 'I' for Inactive)
REMARK    1  A    between atoms: O_2  and  C_34 
REMARK    2  A    between atoms: N_4  and  C_6 
REMARK       I    between atoms: N_4  and  C_7 
REMARK    3  A    between atoms: N_4  and  C_8 
REMARK    4  A    between atoms: N_5  and  C_26 
REMARK    5  A    between atoms: C_7  and  C_10 
REMARK    6  A    between atoms: C_8  and  C_9 
REMARK    7  A    between atoms: C_11  and  C_12 
REMARK    8  A    between atoms: C_15  and  C_29 
REMARK    9  A    between atoms: C_33  and  C_34 
ROOT
HETATM    1  O   UNK N   1      32.230  13.391   6.328  0.00  0.00    -0.273 OA
HETATM    2  N   UNK N   1      33.871  12.800   7.747  0.00  0.00    -0.313 N 
HETATM    3  C   UNK N   1      33.068  13.734   7.148  0.00  0.00     0.228 C 
ENDROOT
BRANCH   2   4
HETATM    4  C   UNK N   1      34.951  13.127   8.699  0.00  0.00     0.038 A 
HETATM    5  C   UNK N   1      34.725  13.331  10.098  0.00  0.00     0.041 A 
HETATM    6  C   UNK N   1      35.767  13.723  10.972  0.00  0.00    -0.034 A 
HETATM    7  C   UNK N   1      37.040  13.948  10.454  0.00  0.00     0.011 A 
HETATM    8  C   UNK N   1      37.293  13.750   9.102  0.00  0.00     0.003 A 
HETATM    9  C   UNK N   1      36.272  13.320   8.251  0.00  0.00     0.030 A 
BRANCH   6  10
HETATM   10  C   UNK N   1      35.609  13.860  12.442  0.00  0.00     0.017 C 
HETATM   11  C   UNK N   1      36.315  13.221  13.387  0.00  0.00     0.083 C 
BRANCH  11  12
HETATM   12  C   UNK N   1      36.098  13.543  14.830  0.00  0.00     0.282 C 
HETATM   13  O   UNK N   1      37.045  13.904  15.512  0.00  0.00    -0.260 OA
BRANCH  12  14
HETATM   14  O   UNK N   1      34.881  13.440  15.422  0.00  0.00    -0.323 OA
HETATM   15  C   UNK N   1      34.692  13.302  16.773  0.00  0.00     0.213 C 
ENDBRANCH  12  14
ENDBRANCH  11  12
ENDBRANCH   6  10
ENDBRANCH   2   4
BRANCH   2  16
HETATM   16  C   UNK N   1      33.513  11.415   7.393  0.00  0.00     0.170 C 
BRANCH  16  17
HETATM   17  C   UNK N   1      33.655  10.408   8.459  0.00  0.00    -0.040 C 
HETATM   18  C   UNK N   1      34.908   9.865   8.743  0.00  0.00     0.010 C 
HETATM   19  C   UNK N   1      35.196   9.499  10.046  0.00  0.00     0.013 C 
HETATM   20  C   UNK N   1      34.219   9.636  11.043  0.00  0.00    -0.026 C 
HETATM   21  C   UNK N   1      32.910   9.984  10.701  0.00  0.00     0.013 C 
HETATM   22  C   UNK N   1      32.638  10.397   9.410  0.00  0.00     0.010 C 
BRANCH  20  23
HETATM   23  C   UNK N   1      34.626   9.705  12.444  0.00  0.00    -0.026 A 
HETATM   24  C   UNK N   1      35.700   8.943  12.922  0.00  0.00     0.014 A 
HETATM   25  C   UNK N   1      36.007   8.950  14.281  0.00  0.00     0.030 A 
HETATM   26  C   UNK N   1      35.214   9.678  15.184  0.00  0.00     0.029 A 
HETATM   27  C   UNK N   1      34.102  10.384  14.706  0.00  0.00     0.030 A 
HETATM   28  C   UNK N   1      33.815  10.400  13.350  0.00  0.00     0.014 A 
BRANCH  26  29
HETATM   29  N   UNK N   1      35.564   9.750  16.561  0.00  0.00    -0.390 N 
HETATM   30  C   UNK N   1      34.543   9.727  17.577  0.00  0.00     0.149 C 
HETATM   31  C   UNK N   1      36.944   9.696  16.973  0.00  0.00     0.149 C 
ENDBRANCH  26  29
ENDBRANCH  20  23
ENDBRANCH  16  17
ENDBRANCH   2  16
BRANCH   3  32
HETATM   32  C   UNK N   1      33.113  15.162   7.529  0.00  0.00     0.078 C 
HETATM   33  C   UNK N   1      34.158  16.024   6.843  0.00  0.00     0.014 C 
HETATM   34  C   UNK N   1      34.295  17.354   7.602  0.00  0.00     0.001 C 
HETATM   35  C   UNK N   1      33.212  17.567   8.678  0.00  0.00     0.000 C 
HETATM   36  C   UNK N   1      31.824  17.241   8.136  0.00  0.00     0.001 C 
HETATM   37  C   UNK N   1      31.735  15.807   7.619  0.00  0.00     0.014 C 
ENDBRANCH   3  32
TORSDOF 9
ENDMDL
MODEL 7
REMARK VINA RESULT:      -6.8     23.570     27.401
REMARK  9 active torsions:
REMARK  status: ('A' for Active; 'I' for Inactive)
REMARK    1  A    between atoms: O_2  and  C_34 
REMARK    2  A    between atoms: N_4  and  C_6 
REMARK       I    between atoms: N_4  and  C_7 
REMARK    3  A    between atoms: N_4  and  C_8 
REMARK    4  A    between atoms: N_5  and  C_26 
REMARK    5  A    between atoms: C_7  and  C_10 
REMARK    6  A    between atoms: C_8  and  C_9 
REMARK    7  A    between atoms: C_11  and  C_12 
REMARK    8  A    between atoms: C_15  and  C_29 
REMARK    9  A    between atoms: C_33  and  C_34 
ROOT
HETATM    1  O   UNK N   1      35.770   7.280  20.321  0.00  0.00    -0.273 OA
HETATM    2  N   UNK N   1      36.087   9.155  19.121  0.00  0.00    -0.313 N 
HETATM    3  C   UNK N   1      35.436   8.431  20.084  0.00  0.00     0.228 C 
ENDROOT
BRANCH   2   4
HETATM    4  C   UNK N   1      35.712  10.526  18.722  0.00  0.00     0.038 A 
HETATM    5  C   UNK N   1      35.635  10.951  17.357  0.00  0.00     0.041 A 
HETATM    6  C   UNK N   1      35.351  12.293  17.010  0.00  0.00    -0.034 A 
HETATM    7  C   UNK N   1      35.175  13.235  18.020  0.00  0.00     0.011 A 
HETATM    8  C   UNK N   1      35.235  12.852  19.355  0.00  0.00     0.003 A 
HETATM    9  C   UNK N   1      35.470  11.517  19.694  0.00  0.00     0.030 A 
BRANCH   6  10
HETATM   10  C   UNK N   1      35.171  12.768  15.614  0.00  0.00     0.017 C 
HETATM   11  C   UNK N   1      36.141  13.053  14.734  0.00  0.00     0.083 C 
BRANCH  11  12
HETATM   12  C   UNK N   1      35.792  13.429  13.330  0.00  0.00     0.282 C 
HETATM   13  O   UNK N   1      34.623  13.631  13.037  0.00  0.00    -0.260 OA
BRANCH  12  14
HETATM   14  O   UNK N   1      36.729  13.547  12.355  0.00  0.00    -0.323 OA
HETATM   15  C   UNK N   1      37.460  12.498  11.860  0.00  0.00     0.213 C 
ENDBRANCH  12  14
ENDBRANCH  11  12
ENDBRANCH   6  10
ENDBRANCH   2   4
BRANCH   2  16
HETATM   16  C   UNK N   1      37.251   8.450  18.553  0.00  0.00     0.170 C 
BRANCH  16  17
HETATM   17  C   UNK N   1      37.163   8.080  17.130  0.00  0.00    -0.040 C 
HETATM   18  C   UNK N   1      36.019   7.450  16.642  0.00  0.00     0.010 C 
HETATM   19  C   UNK N   1      35.625   7.699  15.338  0.00  0.00     0.013 C 
HETATM   20  C   UNK N   1      36.401   8.534  14.521  0.00  0.00    -0.026 C 
HETATM   21  C   UNK N   1      37.648   8.986  14.960  0.00  0.00     0.013 C 
HETATM   22  C   UNK N   1      38.013   8.779  16.277  0.00  0.00     0.010 C 
BRANCH  20  23
HETATM   23  C   UNK N   1      35.791   9.166  13.353  0.00  0.00    -0.026 A 
HETATM   24  C   UNK N   1      34.542   9.792  13.443  0.00  0.00     0.014 A 
HETATM   25  C   UNK N   1      33.935  10.300  12.296  0.00  0.00     0.030 A 
HETATM   26  C   UNK N   1      34.547  10.143  11.041  0.00  0.00     0.029 A 
HETATM   27  C   UNK N   1      35.765   9.456  10.952  0.00  0.00     0.030 A 
HETATM   28  C   UNK N   1      36.382   8.977  12.098  0.00  0.00     0.014 A 
BRANCH  26  29
HETATM   29  N   UNK N   1      33.971  10.723   9.876  0.00  0.00    -0.390 N 
HETATM   30  C   UNK N   1      34.746  11.600   9.037  0.00  0.00     0.149 C 
HETATM   31  C   UNK N   1      32.658  10.329   9.432  0.00  0.00     0.149 C 
ENDBRANCH  26  29
ENDBRANCH  20  23
ENDBRANCH  16  17
ENDBRANCH   2  16
BRANCH   3  32
HETATM   32  C   UNK N   1      34.381   9.029  20.929  0.00  0.00     0.078 C 
HETATM   33  C   UNK N   1      32.949   8.614  20.639  0.00  0.00     0.014 C 
HETATM   34  C   UNK N   1      31.987   9.579  21.351  0.00  0.00     0.001 C 
HETATM   35  C   UNK N   1      32.688  10.536  22.336  0.00  0.00     0.000 C 
HETATM   36  C   UNK N   1      33.673   9.786  23.227  0.00  0.00     0.001 C 
HETATM   37  C   UNK N   1      34.734   9.049  22.412  0.00  0.00     0.014 C 
ENDBRANCH   3  32
TORSDOF 9
ENDMDL
MODEL 8
REMARK VINA RESULT:      -6.8     12.471     16.149
REMARK  9 active torsions:
REMARK  status: ('A' for Active; 'I' for Inactive)
REMARK    1  A    between atoms: O_2  and  C_34 
REMARK    2  A    between atoms: N_4  and  C_6 
REMARK       I    between atoms: N_4  and  C_7 
REMARK    3  A    between atoms: N_4  and  C_8 
REMARK    4  A    between atoms: N_5  and  C_26 
REMARK    5  A    between atoms: C_7  and  C_10 
REMARK    6  A    between atoms: C_8  and  C_9 
REMARK    7  A    between atoms: C_11  and  C_12 
REMARK    8  A    between atoms: C_15  and  C_29 
REMARK    9  A    between atoms: C_33  and  C_34 
ROOT
HETATM    1  O   UNK N   1      27.498  15.623   2.707  0.00  0.00    -0.273 OA
HETATM    2  N   UNK N   1      28.804  16.740   4.156  0.00  0.00    -0.313 N 
HETATM    3  C   UNK N   1      27.715  15.965   3.859  0.00  0.00     0.228 C 
ENDROOT
BRANCH   2   4
HETATM    4  C   UNK N   1      29.110  17.253   5.506  0.00  0.00     0.038 A 
HETATM    5  C   UNK N   1      30.309  16.922   6.215  0.00  0.00     0.041 A 
HETATM    6  C   UNK N   1      30.537  17.365   7.541  0.00  0.00    -0.034 A 
HETATM    7  C   UNK N   1      29.556  18.114   8.185  0.00  0.00     0.011 A 
HETATM    8  C   UNK N   1      28.385  18.460   7.520  0.00  0.00     0.003 A 
HETATM    9  C   UNK N   1      28.184  18.059   6.197  0.00  0.00     0.030 A 
BRANCH   6  10
HETATM   10  C   UNK N   1      31.797  17.127   8.289  0.00  0.00     0.017 C 
HETATM   11  C   UNK N   1      32.989  17.694   8.051  0.00  0.00     0.083 C 
BRANCH  11  12
HETATM   12  C   UNK N   1      34.143  17.421   8.960  0.00  0.00     0.282 C 
HETATM   13  O   UNK N   1      35.114  18.162   8.934  0.00  0.00    -0.260 OA
BRANCH  12  14
HETATM   14  O   UNK N   1      34.162  16.366   9.813  0.00  0.00    -0.323 OA
HETATM   15  C   UNK N   1      35.056  16.226  10.844  0.00  0.00     0.213 C 
ENDBRANCH  12  14
ENDBRANCH  11  12
ENDBRANCH   6  10
ENDBRANCH   2   4
BRANCH   2  16
HETATM   16  C   UNK N   1      29.687  16.968   2.998  0.00  0.00     0.170 C 
BRANCH  16  17
HETATM   17  C   UNK N   1      31.028  16.360   3.065  0.00  0.00    -0.040 C 
HETATM   18  C   UNK N   1      32.134  17.145   3.388  0.00  0.00     0.010 C 
HETATM   19  C   UNK N   1      33.179  16.569   4.089  0.00  0.00     0.013 C 
HETATM   20  C   UNK N   1      33.131  15.207   4.420  0.00  0.00    -0.026 C 
HETATM   21  C   UNK N   1      32.116  14.394   3.910  0.00  0.00     0.013 C 
HETATM   22  C   UNK N   1      31.049  14.981   3.254  0.00  0.00     0.010 C 
BRANCH  20  23
HETATM   23  C   UNK N   1      33.954  14.705   5.519  0.00  0.00    -0.026 A 
HETATM   24  C   UNK N   1      33.392  13.938   6.548  0.00  0.00     0.014 A 
HETATM   25  C   UNK N   1      34.175  13.554   7.634  0.00  0.00     0.030 A 
HETATM   26  C   UNK N   1      35.512  13.975   7.730  0.00  0.00     0.029 A 
HETATM   27  C   UNK N   1      36.046  14.797   6.729  0.00  0.00     0.030 A 
HETATM   28  C   UNK N   1      35.275  15.154   5.633  0.00  0.00     0.014 A 
BRANCH  26  29
HETATM   29  N   UNK N   1      36.339  13.527   8.798  0.00  0.00    -0.390 N 
HETATM   30  C   UNK N   1      35.801  12.684   9.835  0.00  0.00     0.149 C 
HETATM   31  C   UNK N   1      37.757  13.781   8.786  0.00  0.00     0.149 C 
ENDBRANCH  26  29
ENDBRANCH  20  23
ENDBRANCH  16  17
ENDBRANCH   2  16
BRANCH   3  32
HETATM   32  C   UNK N   1      26.821  15.439   4.912  0.00  0.00     0.078 C 
HETATM   33  C   UNK N   1      25.416  16.010   4.971  0.00  0.00     0.014 C 
HETATM   34  C   UNK N   1      24.767  15.623   6.310  0.00  0.00     0.001 C 
HETATM   35  C   UNK N   1      25.581  14.593   7.117  0.00  0.00     0.000 C 
HETATM   36  C   UNK N   1      26.042  13.439   6.233  0.00  0.00     0.001 C 
HETATM   37  C   UNK N   1      26.883  13.922   5.054  0.00  0.00     0.014 C 
ENDBRANCH   3  32
TORSDOF 9
ENDMDL
MODEL 9
REMARK VINA RESULT:      -6.8      3.230      6.065
REMARK  9 active torsions:
REMARK  status: ('A' for Active; 'I' for Inactive)
REMARK    1  A    between atoms: O_2  and  C_34 
REMARK    2  A    between atoms: N_4  and  C_6 
REMARK       I    between atoms: N_4  and  C_7 
REMARK    3  A    between atoms: N_4  and  C_8 
REMARK    4  A    between atoms: N_5  and  C_26 
REMARK    5  A    between atoms: C_7  and  C_10 
REMARK    6  A    between atoms: C_8  and  C_9 
REMARK    7  A    between atoms: C_11  and  C_12 
REMARK    8  A    between atoms: C_15  and  C_29 
REMARK    9  A    between atoms: C_33  and  C_34 
ROOT
HETATM    1  O   UNK N   1      27.153  27.184  -5.246  0.00  0.00    -0.273 OA
HETATM    2  N   UNK N   1      27.123  24.938  -5.354  0.00  0.00    -0.313 N 
HETATM    3  C   UNK N   1      27.141  26.177  -5.937  0.00  0.00     0.228 C 
ENDROOT
BRANCH   2   4
HETATM    4  C   UNK N   1      27.043  23.671  -6.107  0.00  0.00     0.038 A 
HETATM    5  C   UNK N   1      28.198  22.963  -6.573  0.00  0.00     0.041 A 
HETATM    6  C   UNK N   1      28.086  21.794  -7.362  0.00  0.00    -0.034 A 
HETATM    7  C   UNK N   1      26.822  21.335  -7.724  0.00  0.00     0.011 A 
HETATM    8  C   UNK N   1      25.682  21.995  -7.280  0.00  0.00     0.003 A 
HETATM    9  C   UNK N   1      25.795  23.123  -6.464  0.00  0.00     0.030 A 
BRANCH   6  10
HETATM   10  C   UNK N   1      29.245  20.972  -7.795  0.00  0.00     0.017 C 
HETATM   11  C   UNK N   1      29.310  20.189  -8.882  0.00  0.00     0.083 C 
BRANCH  11  12
HETATM   12  C   UNK N   1      30.589  19.499  -9.232  0.00  0.00     0.282 C 
HETATM   13  O   UNK N   1      31.421  20.085  -9.907  0.00  0.00    -0.260 OA
BRANCH  12  14
HETATM   14  O   UNK N   1      30.862  18.230  -8.834  0.00  0.00    -0.323 OA
HETATM   15  C   UNK N   1      31.245  17.223  -9.683  0.00  0.00     0.213 C 
ENDBRANCH  12  14
ENDBRANCH  11  12
ENDBRANCH   6  10
ENDBRANCH   2   4
BRANCH   2  16
HETATM   16  C   UNK N   1      27.255  24.986  -3.887  0.00  0.00     0.170 C 
BRANCH  16  17
HETATM   17  C   UNK N   1      28.513  24.464  -3.324  0.00  0.00    -0.040 C 
HETATM   18  C   UNK N   1      28.506  23.287  -2.576  0.00  0.00     0.010 C 
HETATM   19  C   UNK N   1      29.615  22.460  -2.625  0.00  0.00     0.013 C 
HETATM   20  C   UNK N   1      30.735  22.836  -3.380  0.00  0.00    -0.026 C 
HETATM   21  C   UNK N   1      30.803  24.110  -3.951  0.00  0.00     0.013 C 
HETATM   22  C   UNK N   1      29.676  24.911  -3.944  0.00  0.00     0.010 C 
BRANCH  20  23
HETATM   23  C   UNK N   1      31.685  21.815  -3.816  0.00  0.00    -0.026 A 
HETATM   24  C   UNK N   1      31.405  20.993  -4.916  0.00  0.00     0.014 A 
HETATM   25  C   UNK N   1      32.280  19.962  -5.252  0.00  0.00     0.030 A 
HETATM   26  C   UNK N   1      33.415  19.709  -4.464  0.00  0.00     0.029 A 
HETATM   27  C   UNK N   1      33.651  20.494  -3.328  0.00  0.00     0.030 A 
HETATM   28  C   UNK N   1      32.796  21.539  -3.011  0.00  0.00     0.014 A 
BRANCH  26  29
HETATM   29  N   UNK N   1      34.351  18.706  -4.842  0.00  0.00    -0.390 N 
HETATM   30  C   UNK N   1      34.506  17.513  -4.048  0.00  0.00     0.149 C 
HETATM   31  C   UNK N   1      35.053  18.791  -6.097  0.00  0.00     0.149 C 
ENDBRANCH  26  29
ENDBRANCH  20  23
ENDBRANCH  16  17
ENDBRANCH   2  16
BRANCH   3  32
HETATM   32  C   UNK N   1      27.237  26.348  -7.403  0.00  0.00     0.078 C 
HETATM   33  C   UNK N   1      25.941  26.274  -8.191  0.00  0.00     0.014 C 
HETATM   34  C   UNK N   1      26.266  26.116  -9.685  0.00  0.00     0.001 C 
HETATM   35  C   UNK N   1      27.759  26.310 -10.018  0.00  0.00     0.000 C 
HETATM   36  C   UNK N   1      28.320  27.552  -9.334  0.00  0.00     0.001 C 
HETATM   37  C   UNK N   1      28.153  27.495  -7.817  0.00  0.00     0.014 C 
ENDBRANCH   3  32
TORSDOF 9
ENDMDL
