REMARK  12 active torsions:
REMARK  status: ('A' for Active; 'I' for Inactive)
REMARK    1  A    between atoms: C_3  and  C_2 
REMARK    2  A    between atoms: C_4  and  C_2 
REMARK    3  A    between atoms: C_5  and  C_3 
REMARK    4  A    between atoms: C_6  and  C_4 
REMARK    5  A    between atoms: C_9  and  C_5 
REMARK    6  A    between atoms: C_10  and  C_6 
REMARK    7  A    between atoms: C_9  and  C_7 
REMARK    8  A    between atoms: C_11  and  C_7 
REMARK    9  A    between atoms: C_9  and  C_8 
REMARK   10  A    between atoms: C_8  and  N_12 
REMARK   11  A    between atoms: O_14  and  C_10 
REMARK   12  A    between atoms: O_16  and  C_11 
ROOT
HETATM    1  C   UNK N   1       0.958  -0.325  -0.028  0.00  0.00     0.017 C 
ENDROOT
BRANCH   1   2
HETATM    2  C   UNK N   1       2.180  -0.974   0.634  0.00  0.00     0.007 C 
BRANCH   2   3
HETATM    3  C   UNK N   1       3.284  -1.214  -0.388  0.00  0.00     0.000 C 
BRANCH   3   4
HETATM    4  C   UNK N   1       4.590  -1.583   0.279  0.00  0.00     0.001 C 
BRANCH   4   5
HETATM    5  C   UNK N   1       5.510  -0.381   0.239  0.00  0.00     0.010 C 
BRANCH   5   6
HETATM    6  C   UNK N   1       6.957  -0.841   0.194  0.00  0.00     0.110 C 
BRANCH   6   7
HETATM    7  C   UNK N   1       7.908   0.310   0.055  0.00  0.00     0.139 C 
HETATM    8  O   UNK N   1       9.104   0.093  -0.028  0.00  0.00    -0.650 OA
BRANCH   7   9
HETATM    9  O   UNK N   1       7.458   1.581   0.019  0.00  0.00    -0.776 OA
HETATM   10  H   UNK N   1       8.066   2.294  -0.006  0.00  0.00     0.167 HD
ENDBRANCH   7   9
ENDBRANCH   6   7
ENDBRANCH   5   6
ENDBRANCH   4   5
ENDBRANCH   3   4
ENDBRANCH   2   3
ENDBRANCH   1   2
BRANCH   1  11
HETATM   11  C   UNK N   1      -0.273  -0.714   0.803  0.00  0.00     0.116 C 
BRANCH  11  12
HETATM   12  C   UNK N   1      -1.582  -0.415   0.132  0.00  0.00     0.139 C 
HETATM   13  O   UNK N   1      -2.313  -1.333  -0.197  0.00  0.00    -0.650 OA
BRANCH  12  14
HETATM   14  O   UNK N   1      -1.976   0.857  -0.067  0.00  0.00    -0.776 OA
HETATM   15  H   UNK N   1      -1.347   1.537  -0.207  0.00  0.00     0.167 HD
ENDBRANCH  12  14
ENDBRANCH  11  12
ENDBRANCH   1  11
BRANCH   1  16
HETATM   16  C   UNK N   1       1.119   1.211  -0.165  0.00  0.00     0.074 C 
HETATM   17  C   UNK N   1       1.172   1.900   1.191  0.00  0.00     0.032 C 
BRANCH  16  18
HETATM   18  N   UNK N   1       2.324   1.544  -0.908  0.00  0.00    -0.426 N 
HETATM   19  H   UNK N   1       2.948   0.929  -1.430  0.00  0.00     0.150 HD
HETATM   20  H   UNK N   1       2.580   2.532  -0.908  0.00  0.00     0.150 HD
ENDBRANCH  16  18
ENDBRANCH   1  16
TORSDOF 12
