MODEL 1
REMARK VINA RESULT:      -3.4      0.000      0.000
REMARK  2 active torsions:
REMARK  status: ('A' for Active; 'I' for Inactive)
REMARK    1  A    between atoms: C_2  and  C_3 
REMARK    2  A    between atoms: C_3  and  O_5 
ROOT
HETATM    1  C   UNK N   1      23.749  11.994  11.738  0.00  0.00     0.113 C 
HETATM    2  C   UNK N   1      23.239  11.893  13.159  0.00  0.00     0.039 C 
ENDROOT
BRANCH   1   3
HETATM    3  C   UNK N   1      22.838  11.706  10.551  0.00  0.00     0.027 C 
HETATM    4  C   UNK N   1      21.506  12.424  10.663  0.00  0.00     0.007 C 
ENDBRANCH   1   3
BRANCH   1   5
HETATM    5  O   UNK N   1      25.081  12.360  11.538  0.00  0.00    -0.396 OA
HETATM    6  H   UNK N   1      25.793  11.738  11.757  0.00  0.00     0.210 HD
ENDBRANCH   1   5
TORSDOF 2
ENDMDL
MODEL 2
REMARK VINA RESULT:      -3.1      0.970      1.838
REMARK  2 active torsions:
REMARK  status: ('A' for Active; 'I' for Inactive)
REMARK    1  A    between atoms: C_2  and  C_3 
REMARK    2  A    between atoms: C_3  and  O_5 
ROOT
HETATM    1  C   UNK N   1      24.058  12.165  10.942  0.00  0.00     0.113 C 
HETATM    2  C   UNK N   1      24.095  11.942   9.446  0.00  0.00     0.039 C 
ENDROOT
BRANCH   1   3
HETATM    3  C   UNK N   1      22.761  12.020  11.729  0.00  0.00     0.027 C 
HETATM    4  C   UNK N   1      21.537  12.283  10.872  0.00  0.00     0.007 C 
ENDBRANCH   1   3
BRANCH   1   5
HETATM    5  O   UNK N   1      25.246  12.508  11.588  0.00  0.00    -0.396 OA
HETATM    6  H   UNK N   1      26.089  12.134  11.286  0.00  0.00     0.210 HD
ENDBRANCH   1   5
TORSDOF 2
ENDMDL
MODEL 3
REMARK VINA RESULT:      -3.0     12.789     13.047
REMARK  2 active torsions:
REMARK  status: ('A' for Active; 'I' for Inactive)
REMARK    1  A    between atoms: C_2  and  C_3 
REMARK    2  A    between atoms: C_3  and  O_5 
ROOT
HETATM    1  C   UNK N   1      34.487  18.074   8.449  0.00  0.00     0.113 C 
HETATM    2  C   UNK N   1      34.783  16.960   9.428  0.00  0.00     0.039 C 
ENDROOT
BRANCH   1   3
HETATM    3  C   UNK N   1      33.334  17.968   7.457  0.00  0.00     0.027 C 
HETATM    4  C   UNK N   1      33.771  17.378   6.130  0.00  0.00     0.007 C 
ENDBRANCH   1   3
BRANCH   1   5
HETATM    5  O   UNK N   1      35.299  19.209   8.473  0.00  0.00    -0.396 OA
HETATM    6  H   UNK N   1      35.641  19.542   9.318  0.00  0.00     0.210 HD
ENDBRANCH   1   5
TORSDOF 2
ENDMDL
MODEL 4
REMARK VINA RESULT:      -2.9     22.574     22.868
REMARK  2 active torsions:
REMARK  status: ('A' for Active; 'I' for Inactive)
REMARK    1  A    between atoms: C_2  and  C_3 
REMARK    2  A    between atoms: C_3  and  O_5 
ROOT
HETATM    1  C   UNK N   1      25.965  28.532  -3.995  0.00  0.00     0.113 C 
HETATM    2  C   UNK N   1      26.439  29.957  -3.806  0.00  0.00     0.039 C 
ENDROOT
BRANCH   1   3
HETATM    3  C   UNK N   1      26.020  27.858  -5.361  0.00  0.00     0.027 C 
HETATM    4  C   UNK N   1      24.752  27.085  -5.671  0.00  0.00     0.007 C 
ENDBRANCH   1   3
BRANCH   1   5
HETATM    5  O   UNK N   1      25.475  27.846  -2.884  0.00  0.00    -0.396 OA
HETATM    6  H   UNK N   1      25.022  28.330  -2.175  0.00  0.00     0.210 HD
ENDBRANCH   1   5
TORSDOF 2
ENDMDL
MODEL 5
REMARK VINA RESULT:      -2.9      8.801      9.452
REMARK  2 active torsions:
REMARK  status: ('A' for Active; 'I' for Inactive)
REMARK    1  A    between atoms: C_2  and  C_3 
REMARK    2  A    between atoms: C_3  and  O_5 
ROOT
HETATM    1  C   UNK N   1      28.471  18.545   8.834  0.00  0.00     0.113 C 
HETATM    2  C   UNK N   1      28.237  19.132   7.459  0.00  0.00     0.039 C 
ENDROOT
BRANCH   1   3
HETATM    3  C   UNK N   1      29.829  18.657   9.518  0.00  0.00     0.027 C 
HETATM    4  C   UNK N   1      30.941  18.045   8.688  0.00  0.00     0.007 C 
ENDBRANCH   1   3
BRANCH   1   5
HETATM    5  O   UNK N   1      27.409  17.897   9.466  0.00  0.00    -0.396 OA
HETATM    6  H   UNK N   1      27.578  17.315  10.224  0.00  0.00     0.210 HD
ENDBRANCH   1   5
TORSDOF 2
ENDMDL
MODEL 6
REMARK VINA RESULT:      -2.9     13.309     14.046
REMARK  2 active torsions:
REMARK  status: ('A' for Active; 'I' for Inactive)
REMARK    1  A    between atoms: C_2  and  C_3 
REMARK    2  A    between atoms: C_3  and  O_5 
ROOT
HETATM    1  C   UNK N   1      35.086  12.972  19.409  0.00  0.00     0.113 C 
HETATM    2  C   UNK N   1      35.472  11.510  19.373  0.00  0.00     0.039 C 
ENDROOT
BRANCH   1   3
HETATM    3  C   UNK N   1      35.247  13.861  18.181  0.00  0.00     0.027 C 
HETATM    4  C   UNK N   1      34.920  13.126  16.895  0.00  0.00     0.007 C 
ENDBRANCH   1   3
BRANCH   1   5
HETATM    5  O   UNK N   1      34.576  13.492  20.600  0.00  0.00    -0.396 OA
HETATM    6  H   UNK N   1      34.280  14.415  20.639  0.00  0.00     0.210 HD
ENDBRANCH   1   5
TORSDOF 2
ENDMDL
MODEL 7
REMARK VINA RESULT:      -2.9     18.594     19.082
REMARK  2 active torsions:
REMARK  status: ('A' for Active; 'I' for Inactive)
REMARK    1  A    between atoms: C_2  and  C_3 
REMARK    2  A    between atoms: C_3  and  O_5 
ROOT
HETATM    1  C   UNK N   1      31.367  21.767  -2.880  0.00  0.00     0.113 C 
HETATM    2  C   UNK N   1      30.852  20.836  -3.957  0.00  0.00     0.039 C 
ENDROOT
BRANCH   1   3
HETATM    3  C   UNK N   1      30.717  23.123  -2.634  0.00  0.00     0.027 C 
HETATM    4  C   UNK N   1      29.323  22.994  -2.050  0.00  0.00     0.007 C 
ENDBRANCH   1   3
BRANCH   1   5
HETATM    5  O   UNK N   1      32.457  21.352  -2.114  0.00  0.00    -0.396 OA
HETATM    6  H   UNK N   1      33.159  21.983  -1.888  0.00  0.00     0.210 HD
ENDBRANCH   1   5
TORSDOF 2
ENDMDL
MODEL 8
REMARK VINA RESULT:      -2.8     12.151     12.927
REMARK  2 active torsions:
REMARK  status: ('A' for Active; 'I' for Inactive)
REMARK    1  A    between atoms: C_2  and  C_3 
REMARK    2  A    between atoms: C_3  and  O_5 
ROOT
HETATM    1  C   UNK N   1      20.765  19.986   1.302  0.00  0.00     0.113 C 
HETATM    2  C   UNK N   1      21.269  20.891   2.405  0.00  0.00     0.039 C 
ENDROOT
BRANCH   1   3
HETATM    3  C   UNK N   1      20.397  18.533   1.580  0.00  0.00     0.027 C 
HETATM    4  C   UNK N   1      19.509  18.390   2.802  0.00  0.00     0.007 C 
ENDBRANCH   1   3
BRANCH   1   5
HETATM    5  O   UNK N   1      20.643  20.516   0.017  0.00  0.00    -0.396 OA
HETATM    6  H   UNK N   1      19.970  21.189  -0.169  0.00  0.00     0.210 HD
ENDBRANCH   1   5
TORSDOF 2
ENDMDL
MODEL 9
REMARK VINA RESULT:      -2.7      8.661      8.954
REMARK  2 active torsions:
REMARK  status: ('A' for Active; 'I' for Inactive)
REMARK    1  A    between atoms: C_2  and  C_3 
REMARK    2  A    between atoms: C_3  and  O_5 
ROOT
HETATM    1  C   UNK N   1      28.578  18.392   8.790  0.00  0.00     0.113 C 
HETATM    2  C   UNK N   1      29.800  18.683   9.634  0.00  0.00     0.039 C 
ENDROOT
BRANCH   1   3
HETATM    3  C   UNK N   1      28.643  18.432   7.268  0.00  0.00     0.027 C 
HETATM    4  C   UNK N   1      29.021  17.088   6.674  0.00  0.00     0.007 C 
ENDBRANCH   1   3
BRANCH   1   5
HETATM    5  O   UNK N   1      27.383  18.083   9.442  0.00  0.00    -0.396 OA
HETATM    6  H   UNK N   1      27.333  17.306  10.020  0.00  0.00     0.210 HD
ENDBRANCH   1   5
TORSDOF 2
ENDMDL
