REMARK  5 active torsions:
REMARK  status: ('A' for Active; 'I' for Inactive)
REMARK    1  A    between atoms: C_9  and  C_5 
REMARK    2  A    between atoms: O_16  and  C_5 
REMARK    3  A    between atoms: C_10  and  C_6 
REMARK    4  A    between atoms: C_7  and  O_16 
REMARK    5  A    between atoms: C_8  and  O_11 
ROOT
HETATM    1  C   UNK N   1       1.183  -1.889  -0.609  0.00  0.00    -0.001 C 
HETATM    2  C   UNK N   1       2.400  -1.129  -0.231  0.00  0.00     0.016 C 
HETATM    3  C   UNK N   1      -0.025  -1.317  -0.522  0.00  0.00     0.008 C 
HETATM    4  C   UNK N   1       2.346   0.202  -0.005  0.00  0.00     0.050 C 
HETATM    5  C   UNK N   1      -0.169   0.006   0.187  0.00  0.00     0.185 C 
HETATM    6  C   UNK N   1       1.015   0.931  -0.158  0.00  0.00     0.191 C 
ENDROOT
BRANCH   5   7
HETATM    7  O   UNK N   1      -1.352   0.661  -0.121  0.00  0.00    -0.333 OA
BRANCH   7   8
HETATM    8  C   UNK N   1      -2.624   0.198   0.060  0.00  0.00     0.136 C 
HETATM    9  C   UNK N   1      -2.869  -1.078   0.374  0.00  0.00     0.058 C 
BRANCH   8  10
HETATM   10  C   UNK N   1      -3.739   1.154  -0.092  0.00  0.00     0.233 C 
HETATM   11  O   UNK N   1      -4.900   0.783   0.038  0.00  0.00    -0.642 OA
HETATM   12  O   UNK N   1      -3.483   2.448  -0.353  0.00  0.00    -0.642 OA
ENDBRANCH   8  10
ENDBRANCH   7   8
ENDBRANCH   5   7
BRANCH   6  13
HETATM   13  O   UNK N   1       0.961   2.049   0.679  0.00  0.00    -0.388 OA
HETATM   14  H   UNK N   1       1.614   2.470   1.260  0.00  0.00     0.210 HD
ENDBRANCH   6  13
BRANCH   4  15
HETATM   15  C   UNK N   1       3.613   0.957   0.185  0.00  0.00     0.207 C 
HETATM   16  O   UNK N   1       3.601   2.302   0.258  0.00  0.00    -0.644 OA
HETATM   17  O   UNK N   1       4.681   0.366   0.244  0.00  0.00    -0.644 OA
ENDBRANCH   4  15
TORSDOF 5
