MODEL 1
REMARK VINA RESULT:      -5.3      0.000      0.000
REMARK  1 active torsions:
REMARK  status: ('A' for Active; 'I' for Inactive)
REMARK    1  A    between atoms: C_2  and  C_5 
ROOT
HETATM    1  C   UNK N   1      34.258  17.068   9.130  0.00  0.00     0.192 A 
HETATM    2  N   UNK N   1      33.653  15.936   8.936  0.00  0.00    -0.324 N 
ATOM      3  HN  UNK N   1      33.051  15.824   8.120  1.00  0.00     0.169 HD
HETATM    4  C   UNK N   1      33.812  14.850   9.836  0.00  0.00     0.111 A 
HETATM    5  N   UNK N   1      33.249  13.723   9.591  0.00  0.00    -0.385 N 
ATOM      6  HN  UNK N   1      32.755  13.582   8.710  1.00  0.00     0.157 HD
HETATM    7  C   UNK N   1      34.669  15.037  11.017  0.00  0.00     0.014 A 
HETATM    8  C   UNK N   1      34.896  14.069  11.905  0.00  0.00     0.028 C 
HETATM    9  C   UNK N   1      35.303  16.354  11.163  0.00  0.00     0.104 A 
HETATM   10  N   UNK N   1      35.100  17.270  10.274  0.00  0.00    -0.347 N 
ATOM     11  HN  UNK N   1      35.560  18.173  10.390  1.00  0.00     0.166 HD
HETATM   12  H   UNK N   1      33.291  12.993  10.251  0.00  0.00     0.157 HD
ENDROOT
BRANCH   1  13
HETATM   13  C   UNK N   1      34.086  18.171   8.130  0.00  0.00     0.449 C 
HETATM   14  F   UNK N   1      34.293  17.683   6.853  0.00  0.00    -0.163 F 
HETATM   15  F   UNK N   1      32.811  18.702   8.209  0.00  0.00    -0.163 F 
HETATM   16  F   UNK N   1      35.003  19.174   8.388  0.00  0.00    -0.163 F 
ENDBRANCH   1  13
TORSDOF 1
ENDMDL
MODEL 2
REMARK VINA RESULT:      -5.0      4.127      5.184
REMARK  1 active torsions:
REMARK  status: ('A' for Active; 'I' for Inactive)
REMARK    1  A    between atoms: C_2  and  C_5 
ROOT
HETATM    1  C   UNK N   1      30.689  17.818   8.561  0.00  0.00     0.192 A 
HETATM    2  N   UNK N   1      31.888  18.180   8.905  0.00  0.00    -0.324 N 
ATOM      3  HN  UNK N   1      32.041  18.593   9.825  1.00  0.00     0.169 HD
HETATM    4  C   UNK N   1      32.990  18.012   8.025  0.00  0.00     0.111 A 
HETATM    5  N   UNK N   1      34.174  18.324   8.411  0.00  0.00    -0.385 N 
ATOM      6  HN  UNK N   1      34.335  18.614   9.375  1.00  0.00     0.157 HD
HETATM    7  C   UNK N   1      32.745  17.432   6.696  0.00  0.00     0.014 A 
HETATM    8  C   UNK N   1      33.719  17.216   5.813  0.00  0.00     0.028 C 
HETATM    9  C   UNK N   1      31.357  17.065   6.388  0.00  0.00     0.104 A 
HETATM   10  N   UNK N   1      30.430  17.249   7.270  0.00  0.00    -0.347 N 
ATOM     11  HN  UNK N   1      29.474  16.976   7.038  1.00  0.00     0.166 HD
HETATM   12  H   UNK N   1      34.928  18.284   7.779  0.00  0.00     0.157 HD
ENDROOT
BRANCH   1  13
HETATM   13  C   UNK N   1      29.566  17.983   9.540  0.00  0.00     0.449 C 
HETATM   14  F   UNK N   1      29.818  19.064  10.365  0.00  0.00    -0.163 F 
HETATM   15  F   UNK N   1      28.371  18.192   8.874  0.00  0.00    -0.163 F 
HETATM   16  F   UNK N   1      29.454  16.839  10.309  0.00  0.00    -0.163 F 
ENDBRANCH   1  13
TORSDOF 1
ENDMDL
MODEL 3
REMARK VINA RESULT:      -4.9      3.396      4.723
REMARK  1 active torsions:
REMARK  status: ('A' for Active; 'I' for Inactive)
REMARK    1  A    between atoms: C_2  and  C_5 
ROOT
HETATM    1  C   UNK N   1      32.340  17.660   7.759  0.00  0.00     0.192 A 
HETATM    2  N   UNK N   1      31.776  18.093   8.846  0.00  0.00    -0.324 N 
ATOM      3  HN  UNK N   1      32.359  18.450   9.603  1.00  0.00     0.169 HD
HETATM    4  C   UNK N   1      30.366  18.078   9.002  0.00  0.00     0.111 A 
HETATM    5  N   UNK N   1      29.830  18.564  10.063  0.00  0.00    -0.385 N 
ATOM      6  HN  UNK N   1      30.412  19.036  10.755  1.00  0.00     0.157 HD
HETATM    7  C   UNK N   1      29.543  17.540   7.907  0.00  0.00     0.014 A 
HETATM    8  C   UNK N   1      28.212  17.507   7.953  0.00  0.00     0.028 C 
HETATM    9  C   UNK N   1      30.266  17.062   6.721  0.00  0.00     0.104 A 
HETATM   10  N   UNK N   1      31.556  17.135   6.678  0.00  0.00    -0.347 N 
ATOM     11  HN  UNK N   1      32.036  16.806   5.840  1.00  0.00     0.166 HD
HETATM   12  H   UNK N   1      28.860  18.484  10.210  0.00  0.00     0.157 HD
ENDROOT
BRANCH   1  13
HETATM   13  C   UNK N   1      33.831  17.731   7.629  0.00  0.00     0.449 C 
HETATM   14  F   UNK N   1      34.189  17.672   6.294  0.00  0.00    -0.163 F 
HETATM   15  F   UNK N   1      34.308  18.911   8.172  0.00  0.00    -0.163 F 
HETATM   16  F   UNK N   1      34.404  16.667   8.301  0.00  0.00    -0.163 F 
ENDBRANCH   1  13
TORSDOF 1
ENDMDL
MODEL 4
REMARK VINA RESULT:      -4.9     13.800     15.189
REMARK  1 active torsions:
REMARK  status: ('A' for Active; 'I' for Inactive)
REMARK    1  A    between atoms: C_2  and  C_5 
ROOT
HETATM    1  C   UNK N   1      45.263  24.721   2.092  0.00  0.00     0.192 A 
HETATM    2  N   UNK N   1      45.733  23.888   2.970  0.00  0.00    -0.324 N 
ATOM      3  HN  UNK N   1      46.629  24.085   3.415  1.00  0.00     0.169 HD
HETATM    4  C   UNK N   1      45.026  22.709   3.321  0.00  0.00     0.111 A 
HETATM    5  N   UNK N   1      45.484  21.931   4.235  0.00  0.00    -0.385 N 
ATOM      6  HN  UNK N   1      46.313  22.202   4.764  1.00  0.00     0.157 HD
HETATM    7  C   UNK N   1      43.744  22.433   2.654  0.00  0.00     0.014 A 
HETATM    8  C   UNK N   1      43.000  21.364   2.935  0.00  0.00     0.028 C 
HETATM    9  C   UNK N   1      43.296  23.423   1.665  0.00  0.00     0.104 A 
HETATM   10  N   UNK N   1      44.014  24.471   1.431  0.00  0.00    -0.347 N 
ATOM     11  HN  UNK N   1      43.677  25.151   0.748  1.00  0.00     0.166 HD
HETATM   12  H   UNK N   1      45.040  21.074   4.425  0.00  0.00     0.157 HD
ENDROOT
BRANCH   1  13
HETATM   13  C   UNK N   1      46.031  25.970   1.782  0.00  0.00     0.449 C 
HETATM   14  F   UNK N   1      47.378  25.763   2.018  0.00  0.00    -0.163 F 
HETATM   15  F   UNK N   1      45.855  26.330   0.457  0.00  0.00    -0.163 F 
HETATM   16  F   UNK N   1      45.580  26.999   2.587  0.00  0.00    -0.163 F 
ENDBRANCH   1  13
TORSDOF 1
ENDMDL
MODEL 5
REMARK VINA RESULT:      -4.9      6.241      7.934
REMARK  1 active torsions:
REMARK  status: ('A' for Active; 'I' for Inactive)
REMARK    1  A    between atoms: C_2  and  C_5 
ROOT
HETATM    1  C   UNK N   1      28.591  18.387   8.107  0.00  0.00     0.192 A 
HETATM    2  N   UNK N   1      27.705  19.332   8.195  0.00  0.00    -0.324 N 
ATOM      3  HN  UNK N   1      27.378  19.626   9.116  1.00  0.00     0.169 HD
HETATM    4  C   UNK N   1      27.182  19.964   7.037  0.00  0.00     0.111 A 
HETATM    5  N   UNK N   1      26.349  20.935   7.154  0.00  0.00    -0.385 N 
ATOM      6  HN  UNK N   1      26.127  21.305   8.077  1.00  0.00     0.157 HD
HETATM    7  C   UNK N   1      27.652  19.513   5.718  0.00  0.00     0.014 A 
HETATM    8  C   UNK N   1      27.235  20.061   4.577  0.00  0.00     0.028 C 
HETATM    9  C   UNK N   1      28.646  18.431   5.713  0.00  0.00     0.104 A 
HETATM   10  N   UNK N   1      29.065  17.935   6.830  0.00  0.00    -0.347 N 
ATOM     11  HN  UNK N   1      29.763  17.191   6.803  1.00  0.00     0.166 HD
HETATM   12  H   UNK N   1      25.924  21.322   6.355  0.00  0.00     0.157 HD
ENDROOT
BRANCH   1  13
HETATM   13  C   UNK N   1      29.139  17.777   9.362  0.00  0.00     0.449 C 
HETATM   14  F   UNK N   1      30.231  16.984   9.059  0.00  0.00    -0.163 F 
HETATM   15  F   UNK N   1      29.531  18.765  10.248  0.00  0.00    -0.163 F 
HETATM   16  F   UNK N   1      28.164  17.001   9.961  0.00  0.00    -0.163 F 
ENDBRANCH   1  13
TORSDOF 1
ENDMDL
MODEL 6
REMARK VINA RESULT:      -4.8      6.555      8.293
REMARK  1 active torsions:
REMARK  status: ('A' for Active; 'I' for Inactive)
REMARK    1  A    between atoms: C_2  and  C_5 
ROOT
HETATM    1  C   UNK N   1      28.244  18.771   7.294  0.00  0.00     0.192 A 
HETATM    2  N   UNK N   1      28.653  18.245   6.179  0.00  0.00    -0.324 N 
ATOM      3  HN  UNK N   1      29.321  17.475   6.205  1.00  0.00     0.169 HD
HETATM    4  C   UNK N   1      28.189  18.722   4.925  0.00  0.00     0.111 A 
HETATM    5  N   UNK N   1      28.564  18.147   3.840  0.00  0.00    -0.385 N 
ATOM      6  HN  UNK N   1      29.128  17.299   3.882  1.00  0.00     0.157 HD
HETATM    7  C   UNK N   1      27.241  19.846   4.908  0.00  0.00     0.014 A 
HETATM    8  C   UNK N   1      26.734  20.345   3.781  0.00  0.00     0.028 C 
HETATM    9  C   UNK N   1      26.843  20.386   6.215  0.00  0.00     0.104 A 
HETATM   10  N   UNK N   1      27.318  19.866   7.299  0.00  0.00    -0.347 N 
ATOM     11  HN  UNK N   1      27.019  20.251   8.196  1.00  0.00     0.166 HD
HETATM   12  H   UNK N   1      28.309  18.522   2.966  0.00  0.00     0.157 HD
ENDROOT
BRANCH   1  13
HETATM   13  C   UNK N   1      28.736  18.208   8.593  0.00  0.00     0.449 C 
HETATM   14  F   UNK N   1      29.383  17.006   8.368  0.00  0.00    -0.163 F 
HETATM   15  F   UNK N   1      29.615  19.088   9.200  0.00  0.00    -0.163 F 
HETATM   16  F   UNK N   1      27.662  17.995   9.439  0.00  0.00    -0.163 F 
ENDBRANCH   1  13
TORSDOF 1
ENDMDL
MODEL 7
REMARK VINA RESULT:      -4.7     13.143     14.467
REMARK  1 active torsions:
REMARK  status: ('A' for Active; 'I' for Inactive)
REMARK    1  A    between atoms: C_2  and  C_5 
ROOT
HETATM    1  C   UNK N   1      44.944  24.158   2.456  0.00  0.00     0.192 A 
HETATM    2  N   UNK N   1      43.711  24.099   2.052  0.00  0.00    -0.324 N 
ATOM      3  HN  UNK N   1      43.338  24.852   1.473  1.00  0.00     0.169 HD
HETATM    4  C   UNK N   1      42.872  23.009   2.401  0.00  0.00     0.111 A 
HETATM    5  N   UNK N   1      41.675  22.945   1.941  0.00  0.00    -0.385 N 
ATOM      6  HN  UNK N   1      41.354  23.634   1.260  1.00  0.00     0.157 HD
HETATM    7  C   UNK N   1      43.423  21.943   3.252  0.00  0.00     0.014 A 
HETATM    8  C   UNK N   1      42.718  20.870   3.612  0.00  0.00     0.028 C 
HETATM    9  C   UNK N   1      44.822  22.099   3.672  0.00  0.00     0.104 A 
HETATM   10  N   UNK N   1      45.501  23.128   3.285  0.00  0.00    -0.347 N 
ATOM     11  HN  UNK N   1      46.474  23.210   3.580  1.00  0.00     0.166 HD
HETATM   12  H   UNK N   1      41.065  22.234   2.242  0.00  0.00     0.157 HD
ENDROOT
BRANCH   1  13
HETATM   13  C   UNK N   1      45.799  25.313   2.030  0.00  0.00     0.449 C 
HETATM   14  F   UNK N   1      45.424  26.453   2.717  0.00  0.00    -0.163 F 
HETATM   15  F   UNK N   1      47.133  25.048   2.289  0.00  0.00    -0.163 F 
HETATM   16  F   UNK N   1      45.642  25.527   0.673  0.00  0.00    -0.163 F 
ENDBRANCH   1  13
TORSDOF 1
ENDMDL
MODEL 8
REMARK VINA RESULT:      -4.7      5.068      6.011
REMARK  1 active torsions:
REMARK  status: ('A' for Active; 'I' for Inactive)
REMARK    1  A    between atoms: C_2  and  C_5 
ROOT
HETATM    1  C   UNK N   1      36.333  13.824  13.160  0.00  0.00     0.192 A 
HETATM    2  N   UNK N   1      35.183  14.269  12.752  0.00  0.00    -0.324 N 
ATOM      3  HN  UNK N   1      34.475  14.527  13.440  1.00  0.00     0.169 HD
HETATM    4  C   UNK N   1      34.893  14.406  11.370  0.00  0.00     0.111 A 
HETATM    5  N   UNK N   1      33.770  14.903  10.994  0.00  0.00    -0.385 N 
ATOM      6  HN  UNK N   1      33.122  15.276  11.687  1.00  0.00     0.157 HD
HETATM    7  C   UNK N   1      35.920  14.012  10.394  0.00  0.00     0.014 A 
HETATM    8  C   UNK N   1      35.747  14.125   9.077  0.00  0.00     0.028 C 
HETATM    9  C   UNK N   1      37.185  13.507  10.944  0.00  0.00     0.104 A 
HETATM   10  N   UNK N   1      37.350  13.436  12.224  0.00  0.00    -0.347 N 
ATOM     11  HN  UNK N   1      38.241  13.092  12.584  1.00  0.00     0.166 HD
HETATM   12  H   UNK N   1      33.533  14.926  10.039  0.00  0.00     0.157 HD
ENDROOT
BRANCH   1  13
HETATM   13  C   UNK N   1      36.604  13.733  14.631  0.00  0.00     0.449 C 
HETATM   14  F   UNK N   1      35.416  13.550  15.316  0.00  0.00    -0.163 F 
HETATM   15  F   UNK N   1      37.450  12.672  14.903  0.00  0.00    -0.163 F 
HETATM   16  F   UNK N   1      37.202  14.903  15.062  0.00  0.00    -0.163 F 
ENDBRANCH   1  13
TORSDOF 1
ENDMDL
MODEL 9
REMARK VINA RESULT:      -4.7      1.415      2.028
REMARK  1 active torsions:
REMARK  status: ('A' for Active; 'I' for Inactive)
REMARK    1  A    between atoms: C_2  and  C_5 
ROOT
HETATM    1  C   UNK N   1      34.444  17.030   8.634  0.00  0.00     0.192 A 
HETATM    2  N   UNK N   1      34.715  17.047   9.904  0.00  0.00    -0.324 N 
ATOM      3  HN  UNK N   1      34.499  17.881  10.450  1.00  0.00     0.169 HD
HETATM    4  C   UNK N   1      35.306  15.928  10.547  0.00  0.00     0.111 A 
HETATM    5  N   UNK N   1      35.511  15.949  11.814  0.00  0.00    -0.385 N 
ATOM      6  HN  UNK N   1      35.174  16.734  12.371  1.00  0.00     0.157 HD
HETATM    7  C   UNK N   1      35.628  14.742   9.739  0.00  0.00     0.014 A 
HETATM    8  C   UNK N   1      36.162  13.638  10.259  0.00  0.00     0.028 C 
HETATM    9  C   UNK N   1      35.298  14.817   8.309  0.00  0.00     0.104 A 
HETATM   10  N   UNK N   1      34.748  15.883   7.828  0.00  0.00    -0.347 N 
ATOM     11  HN  UNK N   1      34.518  15.907   6.834  1.00  0.00     0.166 HD
HETATM   12  H   UNK N   1      35.992  15.209  12.251  0.00  0.00     0.157 HD
ENDROOT
BRANCH   1  13
HETATM   13  C   UNK N   1      33.786  18.224   8.009  0.00  0.00     0.449 C 
HETATM   14  F   UNK N   1      33.735  18.065   6.636  0.00  0.00    -0.163 F 
HETATM   15  F   UNK N   1      32.499  18.376   8.494  0.00  0.00    -0.163 F 
HETATM   16  F   UNK N   1      34.514  19.361   8.310  0.00  0.00    -0.163 F 
ENDBRANCH   1  13
TORSDOF 1
ENDMDL
