MODEL 1
REMARK VINA RESULT:      -3.8      0.000      0.000
REMARK  3 active torsions:
REMARK  status: ('A' for Active; 'I' for Inactive)
REMARK    1  A    between atoms: N_1  and  C_2 
REMARK    2  A    between atoms: C_2  and  C_4 
REMARK    3  A    between atoms: C_4  and  O_5 
ROOT
HETATM    1  C   UNK N   1      34.281  17.158   9.099  0.00  0.00     0.090 C 
HETATM    2  C   UNK N   1      33.394  16.231   8.742  0.00  0.00     0.050 C 
ENDROOT
BRANCH   1   3
HETATM    3  N   UNK N   1      34.843  17.116  10.394  0.00  0.00    -0.394 N 
HETATM    4  H   UNK N   1      34.666  16.348  10.984  0.00  0.00     0.156 HD
HETATM    5  H   UNK N   1      35.413  17.856  10.707  0.00  0.00     0.156 HD
ENDBRANCH   1   3
BRANCH   1   6
HETATM    6  C   UNK N   1      34.679  18.222   8.155  0.00  0.00     0.192 C 
HETATM    7  O   UNK N   1      34.410  18.118   6.970  0.00  0.00    -0.645 OA
BRANCH   6   8
HETATM    8  O   UNK N   1      35.341  19.312   8.594  0.00  0.00    -0.772 OA
HETATM    9  H   UNK N   1      35.589  19.377   9.495  0.00  0.00     0.167 HD
ENDBRANCH   6   8
ENDBRANCH   1   6
TORSDOF 3
ENDMDL
MODEL 2
REMARK VINA RESULT:      -3.6     12.629     13.174
REMARK  3 active torsions:
REMARK  status: ('A' for Active; 'I' for Inactive)
REMARK    1  A    between atoms: N_1  and  C_2 
REMARK    2  A    between atoms: C_2  and  C_4 
REMARK    3  A    between atoms: C_4  and  O_5 
ROOT
HETATM    1  C   UNK N   1      22.700  11.826  11.199  0.00  0.00     0.090 C 
HETATM    2  C   UNK N   1      22.955  11.573   9.916  0.00  0.00     0.050 C 
ENDROOT
BRANCH   1   3
HETATM    3  N   UNK N   1      21.360  11.861  11.645  0.00  0.00    -0.394 N 
HETATM    4  H   UNK N   1      21.159  12.086  12.582  0.00  0.00     0.156 HD
HETATM    5  H   UNK N   1      20.628  11.659  11.018  0.00  0.00     0.156 HD
ENDBRANCH   1   3
BRANCH   1   6
HETATM    6  C   UNK N   1      23.802  12.069  12.152  0.00  0.00     0.192 C 
HETATM    7  O   UNK N   1      23.589  12.034  13.352  0.00  0.00    -0.645 OA
BRANCH   6   8
HETATM    8  O   UNK N   1      25.047  12.331  11.705  0.00  0.00    -0.772 OA
HETATM    9  H   UNK N   1      25.352  11.937  10.911  0.00  0.00     0.167 HD
ENDBRANCH   6   8
ENDBRANCH   1   6
TORSDOF 3
ENDMDL
MODEL 3
REMARK VINA RESULT:      -3.6     15.373     15.835
REMARK  3 active torsions:
REMARK  status: ('A' for Active; 'I' for Inactive)
REMARK    1  A    between atoms: N_1  and  C_2 
REMARK    2  A    between atoms: C_2  and  C_4 
REMARK    3  A    between atoms: C_4  and  O_5 
ROOT
HETATM    1  C   UNK N   1      20.165  19.309   2.455  0.00  0.00     0.090 C 
HETATM    2  C   UNK N   1      20.884  18.956   3.519  0.00  0.00     0.050 C 
ENDROOT
BRANCH   1   3
HETATM    3  N   UNK N   1      18.853  18.807   2.308  0.00  0.00    -0.394 N 
HETATM    4  H   UNK N   1      18.292  18.655   3.102  0.00  0.00     0.156 HD
HETATM    5  H   UNK N   1      18.499  18.610   1.410  0.00  0.00     0.156 HD
ENDBRANCH   1   3
BRANCH   1   6
HETATM    6  C   UNK N   1      20.728  20.215   1.433  0.00  0.00     0.192 C 
HETATM    7  O   UNK N   1      21.288  21.244   1.773  0.00  0.00    -0.645 OA
BRANCH   6   8
HETATM    8  O   UNK N   1      20.627  19.914   0.123  0.00  0.00    -0.772 OA
HETATM    9  H   UNK N   1      19.838  19.535  -0.211  0.00  0.00     0.167 HD
ENDBRANCH   6   8
ENDBRANCH   1   6
TORSDOF 3
ENDMDL
MODEL 4
REMARK VINA RESULT:      -3.4      3.366      3.677
REMARK  3 active torsions:
REMARK  status: ('A' for Active; 'I' for Inactive)
REMARK    1  A    between atoms: N_1  and  C_2 
REMARK    2  A    between atoms: C_2  and  C_4 
REMARK    3  A    between atoms: C_4  and  O_5 
ROOT
HETATM    1  C   UNK N   1      34.789  15.108  11.323  0.00  0.00     0.090 C 
HETATM    2  C   UNK N   1      35.218  14.171  12.168  0.00  0.00     0.050 C 
ENDROOT
BRANCH   1   3
HETATM    3  N   UNK N   1      33.475  15.029  10.812  0.00  0.00    -0.394 N 
HETATM    4  H   UNK N   1      32.794  14.496  11.282  0.00  0.00     0.156 HD
HETATM    5  H   UNK N   1      33.240  15.508   9.984  0.00  0.00     0.156 HD
ENDBRANCH   1   3
BRANCH   1   6
HETATM    6  C   UNK N   1      35.673  16.220  10.921  0.00  0.00     0.192 C 
HETATM    7  O   UNK N   1      35.197  17.310  10.649  0.00  0.00    -0.645 OA
BRANCH   6   8
HETATM    8  O   UNK N   1      37.008  16.042  10.851  0.00  0.00    -0.772 OA
HETATM    9  H   UNK N   1      37.543  16.677  10.416  0.00  0.00     0.167 HD
ENDBRANCH   6   8
ENDBRANCH   1   6
TORSDOF 3
ENDMDL
MODEL 5
REMARK VINA RESULT:      -3.2     12.465     12.993
REMARK  3 active torsions:
REMARK  status: ('A' for Active; 'I' for Inactive)
REMARK    1  A    between atoms: N_1  and  C_2 
REMARK    2  A    between atoms: C_2  and  C_4 
REMARK    3  A    between atoms: C_4  and  O_5 
ROOT
HETATM    1  C   UNK N   1      31.263  20.953  -3.877  0.00  0.00     0.090 C 
HETATM    2  C   UNK N   1      30.286  21.518  -4.584  0.00  0.00     0.050 C 
ENDROOT
BRANCH   1   3
HETATM    3  N   UNK N   1      31.797  19.715  -4.298  0.00  0.00    -0.394 N 
HETATM    4  H   UNK N   1      31.292  18.884  -4.145  0.00  0.00     0.156 HD
HETATM    5  H   UNK N   1      32.673  19.684  -4.746  0.00  0.00     0.156 HD
ENDBRANCH   1   3
BRANCH   1   6
HETATM    6  C   UNK N   1      31.790  21.609  -2.663  0.00  0.00     0.192 C 
HETATM    7  O   UNK N   1      31.226  22.589  -2.206  0.00  0.00    -0.645 OA
BRANCH   6   8
HETATM    8  O   UNK N   1      32.894  21.133  -2.053  0.00  0.00    -0.772 OA
HETATM    9  H   UNK N   1      33.064  20.211  -2.047  0.00  0.00     0.167 HD
ENDBRANCH   6   8
ENDBRANCH   1   6
TORSDOF 3
ENDMDL
MODEL 6
REMARK VINA RESULT:      -3.1     15.782     16.234
REMARK  3 active torsions:
REMARK  status: ('A' for Active; 'I' for Inactive)
REMARK    1  A    between atoms: N_1  and  C_2 
REMARK    2  A    between atoms: C_2  and  C_4 
REMARK    3  A    between atoms: C_4  and  O_5 
ROOT
HETATM    1  C   UNK N   1      19.935  17.661   2.110  0.00  0.00     0.090 C 
HETATM    2  C   UNK N   1      20.709  17.329   3.143  0.00  0.00     0.050 C 
ENDROOT
BRANCH   1   3
HETATM    3  N   UNK N   1      18.783  18.447   2.333  0.00  0.00    -0.394 N 
HETATM    4  H   UNK N   1      18.713  19.343   1.932  0.00  0.00     0.156 HD
HETATM    5  H   UNK N   1      18.050  18.098   2.890  0.00  0.00     0.156 HD
ENDBRANCH   1   3
BRANCH   1   6
HETATM    6  C   UNK N   1      20.272  17.215   0.743  0.00  0.00     0.192 C 
HETATM    7  O   UNK N   1      20.498  16.037   0.524  0.00  0.00    -0.645 OA
BRANCH   6   8
HETATM    8  O   UNK N   1      20.332  18.104  -0.270  0.00  0.00    -0.772 OA
HETATM    9  H   UNK N   1      20.443  19.016  -0.086  0.00  0.00     0.167 HD
ENDBRANCH   6   8
ENDBRANCH   1   6
TORSDOF 3
ENDMDL
MODEL 7
REMARK VINA RESULT:      -3.0      1.958      2.022
REMARK  3 active torsions:
REMARK  status: ('A' for Active; 'I' for Inactive)
REMARK    1  A    between atoms: N_1  and  C_2 
REMARK    2  A    between atoms: C_2  and  C_4 
REMARK    3  A    between atoms: C_4  and  O_5 
ROOT
HETATM    1  C   UNK N   1      32.584  17.541   7.698  0.00  0.00     0.090 C 
HETATM    2  C   UNK N   1      31.789  17.130   6.712  0.00  0.00     0.050 C 
ENDROOT
BRANCH   1   3
HETATM    3  N   UNK N   1      32.111  17.511   9.029  0.00  0.00    -0.394 N 
HETATM    4  H   UNK N   1      32.545  16.928   9.693  0.00  0.00     0.156 HD
HETATM    5  H   UNK N   1      31.347  18.074   9.292  0.00  0.00     0.156 HD
ENDBRANCH   1   3
BRANCH   1   6
HETATM    6  C   UNK N   1      33.950  18.026   7.411  0.00  0.00     0.192 C 
HETATM    7  O   UNK N   1      34.502  17.712   6.370  0.00  0.00    -0.645 OA
BRANCH   6   8
HETATM    8  O   UNK N   1      34.594  18.817   8.293  0.00  0.00    -0.772 OA
HETATM    9  H   UNK N   1      34.236  18.952   9.149  0.00  0.00     0.167 HD
ENDBRANCH   6   8
ENDBRANCH   1   6
TORSDOF 3
ENDMDL
MODEL 8
REMARK VINA RESULT:      -3.0     12.476     12.914
REMARK  3 active torsions:
REMARK  status: ('A' for Active; 'I' for Inactive)
REMARK    1  A    between atoms: N_1  and  C_2 
REMARK    2  A    between atoms: C_2  and  C_4 
REMARK    3  A    between atoms: C_4  and  O_5 
ROOT
HETATM    1  C   UNK N   1      31.433  21.586  -3.072  0.00  0.00     0.090 C 
HETATM    2  C   UNK N   1      30.714  20.838  -3.906  0.00  0.00     0.050 C 
ENDROOT
BRANCH   1   3
HETATM    3  N   UNK N   1      32.707  21.135  -2.660  0.00  0.00    -0.394 N 
HETATM    4  H   UNK N   1      33.500  21.702  -2.802  0.00  0.00     0.156 HD
HETATM    5  H   UNK N   1      32.802  20.254  -2.230  0.00  0.00     0.156 HD
ENDBRANCH   1   3
BRANCH   1   6
HETATM    6  C   UNK N   1      30.911  22.876  -2.577  0.00  0.00     0.192 C 
HETATM    7  O   UNK N   1      30.493  22.967  -1.435  0.00  0.00    -0.645 OA
BRANCH   6   8
HETATM    8  O   UNK N   1      30.893  23.959  -3.381  0.00  0.00    -0.772 OA
HETATM    9  H   UNK N   1      31.079  23.867  -4.295  0.00  0.00     0.167 HD
ENDBRANCH   6   8
ENDBRANCH   1   6
TORSDOF 3
ENDMDL
MODEL 9
REMARK VINA RESULT:      -2.9     18.640     19.091
REMARK  3 active torsions:
REMARK  status: ('A' for Active; 'I' for Inactive)
REMARK    1  A    between atoms: N_1  and  C_2 
REMARK    2  A    between atoms: C_2  and  C_4 
REMARK    3  A    between atoms: C_4  and  O_5 
ROOT
HETATM    1  C   UNK N   1      25.821  27.807  -5.180  0.00  0.00     0.090 C 
HETATM    2  C   UNK N   1      26.869  28.006  -5.977  0.00  0.00     0.050 C 
ENDROOT
BRANCH   1   3
HETATM    3  N   UNK N   1      24.761  26.985  -5.621  0.00  0.00    -0.394 N 
HETATM    4  H   UNK N   1      24.941  26.063  -5.914  0.00  0.00     0.156 HD
HETATM    5  H   UNK N   1      23.840  27.335  -5.635  0.00  0.00     0.156 HD
ENDBRANCH   1   3
BRANCH   1   6
HETATM    6  C   UNK N   1      25.762  28.436  -3.845  0.00  0.00     0.192 C 
HETATM    7  O   UNK N   1      25.506  27.760  -2.862  0.00  0.00    -0.645 OA
BRANCH   6   8
HETATM    8  O   UNK N   1      25.988  29.758  -3.701  0.00  0.00    -0.772 OA
HETATM    9  H   UNK N   1      26.466  30.224  -4.358  0.00  0.00     0.167 HD
ENDBRANCH   6   8
ENDBRANCH   1   6
TORSDOF 3
ENDMDL
