MODEL 1
REMARK VINA RESULT:      -7.2      0.000      0.000
REMARK  7 active torsions:
REMARK  status: ('A' for Active; 'I' for Inactive)
REMARK    1  A    between atoms: C_9  and  C_8 
REMARK    2  A    between atoms: O_27  and  C_8 
REMARK    3  A    between atoms: C_18  and  C_10 
REMARK    4  A    between atoms: C_17  and  C_11 
REMARK    5  A    between atoms: O_27  and  C_15 
REMARK    6  A    between atoms: O_26  and  C_16 
REMARK    7  A    between atoms: N_22  and  C_17 
ROOT
HETATM    1  C   UNK N   1      30.266  17.799   8.463  0.00  0.00     0.049 A 
HETATM    2  C   UNK N   1      30.462  16.124   6.188  0.00  0.00     0.056 A 
HETATM    3  C   UNK N   1      29.282  17.889   7.453  0.00  0.00     0.031 A 
HETATM    4  C   UNK N   1      29.386  17.031   6.300  0.00  0.00     0.050 A 
HETATM    5  C   UNK N   1      31.295  16.887   8.303  0.00  0.00     0.061 A 
HETATM    6  C   UNK N   1      31.396  16.087   7.215  0.00  0.00     0.062 A 
HETATM    7  C   UNK N   1      33.023  15.667   8.519  0.00  0.00     0.119 A 
HETATM    8 Cl   UNK N   1      28.218  17.043   4.983  0.00  0.00    -0.083 Cl
HETATM    9  N   UNK N   1      32.310  16.640   9.142  0.00  0.00    -0.340 N 
ATOM     10  HN  UNK N   1      32.502  17.081  10.042  1.00  0.00     0.167 HD
HETATM   11  N   UNK N   1      32.481  15.308   7.322  0.00  0.00    -0.340 N 
HETATM   12  H   UNK N   1      32.809  14.632   6.686  0.00  0.00     0.167 HD
ENDROOT
BRANCH   7  13
HETATM   13  C   UNK N   1      34.246  15.071   9.102  0.00  0.00     0.044 A 
HETATM   14  C   UNK N   1      35.339  14.836   8.259  0.00  0.00     0.018 A 
HETATM   15  C   UNK N   1      36.521  14.291   8.757  0.00  0.00     0.004 A 
HETATM   16  C   UNK N   1      36.621  13.957  10.105  0.00  0.00     0.040 A 
HETATM   17  C   UNK N   1      35.542  14.155  10.974  0.00  0.00     0.102 A 
HETATM   18  C   UNK N   1      34.344  14.734  10.470  0.00  0.00     0.113 A 
BRANCH  17  19
HETATM   19  O   UNK N   1      35.688  13.765  12.268  0.00  0.00    -0.348 OA
BRANCH  19  20
HETATM   20  C   UNK N   1      36.181  14.586  13.258  0.00  0.00     0.179 C 
BRANCH  20  21
HETATM   21  C   UNK N   1      36.566  13.796  14.489  0.00  0.00     0.002 C 
HETATM   22  C   UNK N   1      35.338  13.119  15.065  0.00  0.00     0.011 C 
HETATM   23  C   UNK N   1      37.129  14.755  15.517  0.00  0.00     0.011 C 
ENDBRANCH  20  21
ENDBRANCH  19  20
ENDBRANCH  17  19
BRANCH  18  24
HETATM   24  O   UNK N   1      33.302  14.965  11.290  0.00  0.00    -0.357 OA
HETATM   25  H   UNK N   1      33.070  14.337  11.946  0.00  0.00     0.217 HD
ENDBRANCH  18  24
ENDBRANCH   7  13
BRANCH   3  26
HETATM   26  C   UNK N   1      28.184  18.878   7.660  0.00  0.00     0.104 C 
HETATM   27  N   UNK N   1      27.526  18.931   8.757  0.00  0.00    -0.385 N 
HETATM   28  H   UNK N   1      26.807  19.592   8.870  0.00  0.00     0.157 HD
ATOM     29  HN  UNK N   1      27.749  18.286   9.516  1.00  0.00     0.157 HD
BRANCH  26  30
HETATM   30  N   UNK N   1      27.854  19.784   6.624  0.00  0.00    -0.385 N 
HETATM   31  H   UNK N   1      27.887  20.754   6.790  0.00  0.00     0.157 HD
HETATM   32  H   UNK N   1      27.592  19.445   5.738  0.00  0.00     0.157 HD
ENDBRANCH  26  30
ENDBRANCH   3  26
TORSDOF 7
ENDMDL
MODEL 2
REMARK VINA RESULT:      -7.1      5.544     11.168
REMARK  7 active torsions:
REMARK  status: ('A' for Active; 'I' for Inactive)
REMARK    1  A    between atoms: C_9  and  C_8 
REMARK    2  A    between atoms: O_27  and  C_8 
REMARK    3  A    between atoms: C_18  and  C_10 
REMARK    4  A    between atoms: C_17  and  C_11 
REMARK    5  A    between atoms: O_27  and  C_15 
REMARK    6  A    between atoms: O_26  and  C_16 
REMARK    7  A    between atoms: N_22  and  C_17 
ROOT
HETATM    1  C   UNK N   1      30.094  17.490   7.506  0.00  0.00     0.049 A 
HETATM    2  C   UNK N   1      31.204  17.218   4.915  0.00  0.00     0.056 A 
HETATM    3  C   UNK N   1      31.408  16.989   7.367  0.00  0.00     0.031 A 
HETATM    4  C   UNK N   1      31.967  16.857   6.045  0.00  0.00     0.050 A 
HETATM    5  C   UNK N   1      29.394  17.834   6.362  0.00  0.00     0.061 A 
HETATM    6  C   UNK N   1      29.919  17.702   5.121  0.00  0.00     0.062 A 
HETATM    7  C   UNK N   1      27.953  18.494   4.946  0.00  0.00     0.119 A 
HETATM    8 Cl   UNK N   1      33.595  16.256   5.745  0.00  0.00    -0.083 Cl
HETATM    9  N   UNK N   1      28.154  18.334   6.279  0.00  0.00    -0.340 N 
ATOM     10  HN  UNK N   1      27.510  18.546   7.041  1.00  0.00     0.167 HD
HETATM   11  N   UNK N   1      29.028  18.108   4.205  0.00  0.00    -0.340 N 
HETATM   12  H   UNK N   1      29.128  18.124   3.226  0.00  0.00     0.167 HD
ENDROOT
BRANCH   7  13
HETATM   13  C   UNK N   1      26.696  19.042   4.385  0.00  0.00     0.044 A 
HETATM   14  C   UNK N   1      26.781  20.098   3.469  0.00  0.00     0.018 A 
HETATM   15  C   UNK N   1      25.632  20.641   2.898  0.00  0.00     0.004 A 
HETATM   16  C   UNK N   1      24.378  20.146   3.248  0.00  0.00     0.040 A 
HETATM   17  C   UNK N   1      24.252  19.108   4.177  0.00  0.00     0.102 A 
HETATM   18  C   UNK N   1      25.426  18.537   4.742  0.00  0.00     0.113 A 
BRANCH  17  19
HETATM   19  O   UNK N   1      22.998  18.703   4.511  0.00  0.00    -0.348 OA
BRANCH  19  20
HETATM   20  C   UNK N   1      22.185  17.977   3.667  0.00  0.00     0.179 C 
BRANCH  20  21
HETATM   21  C   UNK N   1      20.743  18.419   3.777  0.00  0.00     0.002 C 
HETATM   22  C   UNK N   1      19.907  17.694   2.742  0.00  0.00     0.011 C 
HETATM   23  C   UNK N   1      20.676  19.908   3.512  0.00  0.00     0.011 C 
ENDBRANCH  20  21
ENDBRANCH  19  20
ENDBRANCH  17  19
BRANCH  18  24
HETATM   24  O   UNK N   1      25.336  17.516   5.615  0.00  0.00    -0.357 OA
HETATM   25  H   UNK N   1      25.087  16.663   5.317  0.00  0.00     0.217 HD
ENDBRANCH  18  24
ENDBRANCH   7  13
BRANCH   3  26
HETATM   26  C   UNK N   1      32.136  16.633   8.619  0.00  0.00     0.104 C 
HETATM   27  N   UNK N   1      31.751  15.669   9.368  0.00  0.00    -0.385 N 
HETATM   28  H   UNK N   1      32.248  15.453  10.189  0.00  0.00     0.157 HD
ATOM     29  HN  UNK N   1      30.927  15.123   9.113  1.00  0.00     0.157 HD
BRANCH  26  30
HETATM   30  N   UNK N   1      33.282  17.373   8.997  0.00  0.00    -0.385 N 
HETATM   31  H   UNK N   1      34.015  16.930   9.483  0.00  0.00     0.157 HD
HETATM   32  H   UNK N   1      33.346  18.330   8.775  0.00  0.00     0.157 HD
ENDBRANCH  26  30
ENDBRANCH   3  26
TORSDOF 7
ENDMDL
MODEL 3
REMARK VINA RESULT:      -7.1      3.622      8.757
REMARK  7 active torsions:
REMARK  status: ('A' for Active; 'I' for Inactive)
REMARK    1  A    between atoms: C_9  and  C_8 
REMARK    2  A    between atoms: O_27  and  C_8 
REMARK    3  A    between atoms: C_18  and  C_10 
REMARK    4  A    between atoms: C_17  and  C_11 
REMARK    5  A    between atoms: O_27  and  C_15 
REMARK    6  A    between atoms: O_26  and  C_16 
REMARK    7  A    between atoms: N_22  and  C_17 
ROOT
HETATM    1  C   UNK N   1      34.582  14.794  11.311  0.00  0.00     0.049 A 
HETATM    2  C   UNK N   1      36.034  14.535   8.894  0.00  0.00     0.056 A 
HETATM    3  C   UNK N   1      35.928  14.364  11.358  0.00  0.00     0.031 A 
HETATM    4  C   UNK N   1      36.661  14.238  10.123  0.00  0.00     0.050 A 
HETATM    5  C   UNK N   1      34.021  15.077  10.078  0.00  0.00     0.061 A 
HETATM    6  C   UNK N   1      34.709  14.951   8.919  0.00  0.00     0.062 A 
HETATM    7  C   UNK N   1      32.744  15.631   8.471  0.00  0.00     0.119 A 
HETATM    8 Cl   UNK N   1      38.343  13.723  10.052  0.00  0.00    -0.083 Cl
HETATM    9  N   UNK N   1      32.778  15.506   9.822  0.00  0.00    -0.340 N 
ATOM     10  HN  UNK N   1      32.029  15.696  10.489  1.00  0.00     0.167 HD
HETATM   11  N   UNK N   1      33.926  15.291   7.886  0.00  0.00    -0.340 N 
HETATM   12  H   UNK N   1      34.152  15.294   6.928  0.00  0.00     0.167 HD
ENDROOT
BRANCH   7  13
HETATM   13  C   UNK N   1      31.545  16.097   7.738  0.00  0.00     0.044 A 
HETATM   14  C   UNK N   1      31.138  15.381   6.605  0.00  0.00     0.018 A 
HETATM   15  C   UNK N   1      30.008  15.767   5.886  0.00  0.00     0.004 A 
HETATM   16  C   UNK N   1      29.278  16.885   6.281  0.00  0.00     0.040 A 
HETATM   17  C   UNK N   1      29.668  17.639   7.393  0.00  0.00     0.102 A 
HETATM   18  C   UNK N   1      30.807  17.232   8.141  0.00  0.00     0.113 A 
BRANCH  17  19
HETATM   19  O   UNK N   1      28.940  18.746   7.697  0.00  0.00    -0.348 OA
BRANCH  19  20
HETATM   20  C   UNK N   1      27.741  19.055   7.093  0.00  0.00     0.179 C 
BRANCH  20  21
HETATM   21  C   UNK N   1      27.814  20.381   6.367  0.00  0.00     0.002 C 
HETATM   22  C   UNK N   1      26.605  21.223   6.720  0.00  0.00     0.011 C 
HETATM   23  C   UNK N   1      27.813  20.111   4.878  0.00  0.00     0.011 C 
ENDBRANCH  20  21
ENDBRANCH  19  20
ENDBRANCH  17  19
BRANCH  18  24
HETATM   24  O   UNK N   1      31.187  17.920   9.234  0.00  0.00    -0.357 OA
HETATM   25  H   UNK N   1      31.302  17.478  10.052  0.00  0.00     0.217 HD
ENDBRANCH  18  24
ENDBRANCH   7  13
BRANCH   3  26
HETATM   26  C   UNK N   1      36.503  14.072  12.702  0.00  0.00     0.104 C 
HETATM   27  N   UNK N   1      36.600  14.979  13.602  0.00  0.00    -0.385 N 
HETATM   28  H   UNK N   1      36.982  14.761  14.482  0.00  0.00     0.157 HD
ATOM     29  HN  UNK N   1      36.279  15.927  13.406  1.00  0.00     0.157 HD
BRANCH  26  30
HETATM   30  N   UNK N   1      36.956  12.765  13.001  0.00  0.00    -0.385 N 
HETATM   31  H   UNK N   1      36.338  12.002  12.929  0.00  0.00     0.157 HD
HETATM   32  H   UNK N   1      37.888  12.619  13.281  0.00  0.00     0.157 HD
ENDBRANCH  26  30
ENDBRANCH   3  26
TORSDOF 7
ENDMDL
MODEL 4
REMARK VINA RESULT:      -7.0      5.257      9.229
REMARK  7 active torsions:
REMARK  status: ('A' for Active; 'I' for Inactive)
REMARK    1  A    between atoms: C_9  and  C_8 
REMARK    2  A    between atoms: O_27  and  C_8 
REMARK    3  A    between atoms: C_18  and  C_10 
REMARK    4  A    between atoms: C_17  and  C_11 
REMARK    5  A    between atoms: O_27  and  C_15 
REMARK    6  A    between atoms: O_26  and  C_16 
REMARK    7  A    between atoms: N_22  and  C_17 
ROOT
HETATM    1  C   UNK N   1      35.502  13.252  16.226  0.00  0.00     0.049 A 
HETATM    2  C   UNK N   1      34.744  10.716  15.220  0.00  0.00     0.056 A 
HETATM    3  C   UNK N   1      35.209  12.210  17.134  0.00  0.00     0.031 A 
HETATM    4  C   UNK N   1      34.827  10.921  16.614  0.00  0.00     0.050 A 
HETATM    5  C   UNK N   1      35.410  12.993  14.869  0.00  0.00     0.061 A 
HETATM    6  C   UNK N   1      35.044  11.783  14.383  0.00  0.00     0.062 A 
HETATM    7  C   UNK N   1      35.423  13.086  12.746  0.00  0.00     0.119 A 
HETATM    8 Cl   UNK N   1      34.448   9.542  17.642  0.00  0.00    -0.083 Cl
HETATM    9  N   UNK N   1      35.657  13.832  13.855  0.00  0.00    -0.340 N 
ATOM     10  HN  UNK N   1      35.952  14.808  13.905  1.00  0.00     0.167 HD
HETATM   11  N   UNK N   1      35.039  11.814  13.043  0.00  0.00    -0.340 N 
HETATM   12  H   UNK N   1      34.813  11.087  12.419  0.00  0.00     0.167 HD
ENDROOT
BRANCH   7  13
HETATM   13  C   UNK N   1      35.585  13.618  11.373  0.00  0.00     0.044 A 
HETATM   14  C   UNK N   1      36.690  13.196  10.622  0.00  0.00     0.018 A 
HETATM   15  C   UNK N   1      36.884  13.652   9.320  0.00  0.00     0.004 A 
HETATM   16  C   UNK N   1      35.983  14.550   8.754  0.00  0.00     0.040 A 
HETATM   17  C   UNK N   1      34.881  15.012   9.481  0.00  0.00     0.102 A 
HETATM   18  C   UNK N   1      34.670  14.529  10.802  0.00  0.00     0.113 A 
BRANCH  17  19
HETATM   19  O   UNK N   1      34.066  15.925   8.888  0.00  0.00    -0.348 OA
BRANCH  19  20
HETATM   20  C   UNK N   1      34.308  17.281   8.902  0.00  0.00     0.179 C 
BRANCH  20  21
HETATM   21  C   UNK N   1      33.363  18.019   7.979  0.00  0.00     0.002 C 
HETATM   22  C   UNK N   1      31.932  17.657   8.318  0.00  0.00     0.011 C 
HETATM   23  C   UNK N   1      33.657  17.595   6.556  0.00  0.00     0.011 C 
ENDBRANCH  20  21
ENDBRANCH  19  20
ENDBRANCH  17  19
BRANCH  18  24
HETATM   24  O   UNK N   1      33.600  14.932  11.513  0.00  0.00    -0.357 OA
HETATM   25  H   UNK N   1      33.716  15.455  12.282  0.00  0.00     0.217 HD
ENDBRANCH  18  24
ENDBRANCH   7  13
BRANCH   3  26
HETATM   26  C   UNK N   1      35.323  12.521  18.588  0.00  0.00     0.104 C 
HETATM   27  N   UNK N   1      35.084  13.694  19.043  0.00  0.00    -0.385 N 
HETATM   28  H   UNK N   1      35.165  13.875  20.007  0.00  0.00     0.157 HD
ATOM     29  HN  UNK N   1      34.808  14.441  18.406  1.00  0.00     0.157 HD
BRANCH  26  30
HETATM   30  N   UNK N   1      35.704  11.503  19.494  0.00  0.00    -0.385 N 
HETATM   31  H   UNK N   1      35.128  11.289  20.263  0.00  0.00     0.157 HD
HETATM   32  H   UNK N   1      36.544  11.009  19.355  0.00  0.00     0.157 HD
ENDBRANCH  26  30
ENDBRANCH   3  26
TORSDOF 7
ENDMDL
MODEL 5
REMARK VINA RESULT:      -6.7      4.267      8.563
REMARK  7 active torsions:
REMARK  status: ('A' for Active; 'I' for Inactive)
REMARK    1  A    between atoms: C_9  and  C_8 
REMARK    2  A    between atoms: O_27  and  C_8 
REMARK    3  A    between atoms: C_18  and  C_10 
REMARK    4  A    between atoms: C_17  and  C_11 
REMARK    5  A    between atoms: O_27  and  C_15 
REMARK    6  A    between atoms: O_26  and  C_16 
REMARK    7  A    between atoms: N_22  and  C_17 
ROOT
HETATM    1  C   UNK N   1      35.095  12.472  12.236  0.00  0.00     0.049 A 
HETATM    2  C   UNK N   1      36.046  14.961  13.194  0.00  0.00     0.056 A 
HETATM    3  C   UNK N   1      35.855  12.508  13.427  0.00  0.00     0.031 A 
HETATM    4  C   UNK N   1      36.333  13.779  13.910  0.00  0.00     0.050 A 
HETATM    5  C   UNK N   1      34.839  13.663  11.579  0.00  0.00     0.061 A 
HETATM    6  C   UNK N   1      35.295  14.856  12.031  0.00  0.00     0.062 A 
HETATM    7  C   UNK N   1      34.186  15.185  10.246  0.00  0.00     0.119 A 
HETATM    8 Cl   UNK N   1      37.279  13.954  15.384  0.00  0.00    -0.083 Cl
HETATM    9  N   UNK N   1      34.134  13.845  10.455  0.00  0.00    -0.340 N 
ATOM     10  HN  UNK N   1      33.666  13.138   9.886  1.00  0.00     0.167 HD
HETATM   11  N   UNK N   1      34.901  15.835  11.206  0.00  0.00    -0.340 N 
HETATM   12  H   UNK N   1      35.084  16.800  11.276  0.00  0.00     0.167 HD
ENDROOT
BRANCH   7  13
HETATM   13  C   UNK N   1      33.520  15.845   9.100  0.00  0.00     0.044 A 
HETATM   14  C   UNK N   1      34.322  16.416   8.103  0.00  0.00     0.018 A 
HETATM   15  C   UNK N   1      33.749  17.036   6.995  0.00  0.00     0.004 A 
HETATM   16  C   UNK N   1      32.364  17.108   6.875  0.00  0.00     0.040 A 
HETATM   17  C   UNK N   1      31.530  16.570   7.861  0.00  0.00     0.102 A 
HETATM   18  C   UNK N   1      32.114  15.916   8.981  0.00  0.00     0.113 A 
BRANCH  17  19
HETATM   19  O   UNK N   1      30.187  16.716   7.707  0.00  0.00    -0.348 OA
BRANCH  19  20
HETATM   20  C   UNK N   1      29.575  17.933   7.500  0.00  0.00     0.179 C 
BRANCH  20  21
HETATM   21  C   UNK N   1      28.802  18.376   8.723  0.00  0.00     0.002 C 
HETATM   22  C   UNK N   1      29.769  18.783   9.816  0.00  0.00     0.011 C 
HETATM   23  C   UNK N   1      27.968  17.211   9.210  0.00  0.00     0.011 C 
ENDBRANCH  20  21
ENDBRANCH  19  20
ENDBRANCH  17  19
BRANCH  18  24
HETATM   24  O   UNK N   1      31.336  15.362   9.929  0.00  0.00    -0.357 OA
HETATM   25  H   UNK N   1      31.257  14.430   9.988  0.00  0.00     0.217 HD
ENDBRANCH  18  24
ENDBRANCH   7  13
BRANCH   3  26
HETATM   26  C   UNK N   1      36.108  11.208  14.113  0.00  0.00     0.104 C 
HETATM   27  N   UNK N   1      37.278  10.690  14.158  0.00  0.00    -0.385 N 
HETATM   28  H   UNK N   1      37.420   9.831  14.617  0.00  0.00     0.157 HD
ATOM     29  HN  UNK N   1      38.064  11.168  13.718  1.00  0.00     0.157 HD
BRANCH  26  30
HETATM   30  N   UNK N   1      35.035  10.522  14.731  0.00  0.00    -0.385 N 
HETATM   31  H   UNK N   1      34.862  10.644  15.692  0.00  0.00     0.157 HD
HETATM   32  H   UNK N   1      34.462   9.924  14.200  0.00  0.00     0.157 HD
ENDBRANCH  26  30
ENDBRANCH   3  26
TORSDOF 7
ENDMDL
MODEL 6
REMARK VINA RESULT:      -6.7      1.970      2.419
REMARK  7 active torsions:
REMARK  status: ('A' for Active; 'I' for Inactive)
REMARK    1  A    between atoms: C_9  and  C_8 
REMARK    2  A    between atoms: O_27  and  C_8 
REMARK    3  A    between atoms: C_18  and  C_10 
REMARK    4  A    between atoms: C_17  and  C_11 
REMARK    5  A    between atoms: O_27  and  C_15 
REMARK    6  A    between atoms: O_26  and  C_16 
REMARK    7  A    between atoms: N_22  and  C_17 
ROOT
HETATM    1  C   UNK N   1      31.357  16.032   7.016  0.00  0.00     0.049 A 
HETATM    2  C   UNK N   1      33.684  16.642   5.523  0.00  0.00     0.056 A 
HETATM    3  C   UNK N   1      31.222  16.631   5.743  0.00  0.00     0.031 A 
HETATM    4  C   UNK N   1      32.412  16.936   4.988  0.00  0.00     0.050 A 
HETATM    5  C   UNK N   1      32.629  15.761   7.488  0.00  0.00     0.061 A 
HETATM    6  C   UNK N   1      33.746  16.054   6.780  0.00  0.00     0.062 A 
HETATM    7  C   UNK N   1      34.324  15.154   8.618  0.00  0.00     0.119 A 
HETATM    8 Cl   UNK N   1      32.374  17.671   3.389  0.00  0.00    -0.083 Cl
HETATM    9  N   UNK N   1      32.968  15.190   8.652  0.00  0.00    -0.340 N 
ATOM     10  HN  UNK N   1      32.349  14.859   9.392  1.00  0.00     0.167 HD
HETATM   11  N   UNK N   1      34.833  15.685   7.472  0.00  0.00    -0.340 N 
HETATM   12  H   UNK N   1      35.778  15.776   7.212  0.00  0.00     0.167 HD
ENDROOT
BRANCH   7  13
HETATM   13  C   UNK N   1      35.139  14.584   9.716  0.00  0.00     0.044 A 
HETATM   14  C   UNK N   1      36.428  14.124   9.418  0.00  0.00     0.018 A 
HETATM   15  C   UNK N   1      37.244  13.593  10.415  0.00  0.00     0.004 A 
HETATM   16  C   UNK N   1      36.776  13.498  11.723  0.00  0.00     0.040 A 
HETATM   17  C   UNK N   1      35.485  13.925  12.053  0.00  0.00     0.102 A 
HETATM   18  C   UNK N   1      34.661  14.490  11.041  0.00  0.00     0.113 A 
BRANCH  17  19
HETATM   19  O   UNK N   1      35.072  13.761  13.339  0.00  0.00    -0.348 OA
BRANCH  19  20
HETATM   20  C   UNK N   1      35.113  12.554  14.001  0.00  0.00     0.179 C 
BRANCH  20  21
HETATM   21  C   UNK N   1      35.678  12.709  15.396  0.00  0.00     0.002 C 
HETATM   22  C   UNK N   1      34.593  13.198  16.334  0.00  0.00     0.011 C 
HETATM   23  C   UNK N   1      36.791  13.734  15.350  0.00  0.00     0.011 C 
ENDBRANCH  20  21
ENDBRANCH  19  20
ENDBRANCH  17  19
BRANCH  18  24
HETATM   24  O   UNK N   1      33.426  14.937  11.338  0.00  0.00    -0.357 OA
HETATM   25  H   UNK N   1      32.821  14.383  11.790  0.00  0.00     0.217 HD
ENDBRANCH  18  24
ENDBRANCH   7  13
BRANCH   3  26
HETATM   26  C   UNK N   1      29.837  16.905   5.262  0.00  0.00     0.104 C 
HETATM   27  N   UNK N   1      28.895  16.051   5.411  0.00  0.00    -0.385 N 
HETATM   28  H   UNK N   1      27.989  16.255   5.086  0.00  0.00     0.157 HD
ATOM     29  HN  UNK N   1      29.083  15.158   5.867  1.00  0.00     0.157 HD
BRANCH  26  30
HETATM   30  N   UNK N   1      29.548  18.135   4.626  0.00  0.00    -0.385 N 
HETATM   31  H   UNK N   1      28.854  18.177   3.929  0.00  0.00     0.157 HD
HETATM   32  H   UNK N   1      30.040  18.949   4.880  0.00  0.00     0.157 HD
ENDBRANCH  26  30
ENDBRANCH   3  26
TORSDOF 7
ENDMDL
MODEL 7
REMARK VINA RESULT:      -6.6      4.038      8.627
REMARK  7 active torsions:
REMARK  status: ('A' for Active; 'I' for Inactive)
REMARK    1  A    between atoms: C_9  and  C_8 
REMARK    2  A    between atoms: O_27  and  C_8 
REMARK    3  A    between atoms: C_18  and  C_10 
REMARK    4  A    between atoms: C_17  and  C_11 
REMARK    5  A    between atoms: O_27  and  C_15 
REMARK    6  A    between atoms: O_26  and  C_16 
REMARK    7  A    between atoms: N_22  and  C_17 
ROOT
HETATM    1  C   UNK N   1      35.371  14.738  12.679  0.00  0.00     0.049 A 
HETATM    2  C   UNK N   1      36.387  12.846  10.833  0.00  0.00     0.056 A 
HETATM    3  C   UNK N   1      36.207  13.699  13.146  0.00  0.00     0.031 A 
HETATM    4  C   UNK N   1      36.723  12.742  12.200  0.00  0.00     0.050 A 
HETATM    5  C   UNK N   1      35.080  14.795  11.327  0.00  0.00     0.061 A 
HETATM    6  C   UNK N   1      35.560  13.890  10.441  0.00  0.00     0.062 A 
HETATM    7  C   UNK N   1      34.367  15.304   9.390  0.00  0.00     0.119 A 
HETATM    8 Cl   UNK N   1      37.781  11.411  12.657  0.00  0.00    -0.083 Cl
HETATM    9  N   UNK N   1      34.326  15.699  10.688  0.00  0.00    -0.340 N 
ATOM     10  HN  UNK N   1      33.833  16.499  11.085  1.00  0.00     0.167 HD
HETATM   11  N   UNK N   1      35.122  14.185   9.209  0.00  0.00    -0.340 N 
HETATM   12  H   UNK N   1      35.304  13.705   8.368  0.00  0.00     0.167 HD
ENDROOT
BRANCH   7  13
HETATM   13  C   UNK N   1      33.669  16.033   8.307  0.00  0.00     0.044 A 
HETATM   14  C   UNK N   1      34.399  16.388   7.165  0.00  0.00     0.018 A 
HETATM   15  C   UNK N   1      33.789  17.061   6.109  0.00  0.00     0.004 A 
HETATM   16  C   UNK N   1      32.442  17.405   6.186  0.00  0.00     0.040 A 
HETATM   17  C   UNK N   1      31.686  17.088   7.320  0.00  0.00     0.102 A 
HETATM   18  C   UNK N   1      32.302  16.380   8.388  0.00  0.00     0.113 A 
BRANCH  17  19
HETATM   19  O   UNK N   1      30.388  17.493   7.352  0.00  0.00    -0.348 OA
BRANCH  19  20
HETATM   20  C   UNK N   1      29.395  16.918   6.590  0.00  0.00     0.179 C 
BRANCH  20  21
HETATM   21  C   UNK N   1      28.280  17.901   6.305  0.00  0.00     0.002 C 
HETATM   22  C   UNK N   1      28.547  18.607   4.991  0.00  0.00     0.011 C 
HETATM   23  C   UNK N   1      28.248  18.925   7.419  0.00  0.00     0.011 C 
ENDBRANCH  20  21
ENDBRANCH  19  20
ENDBRANCH  17  19
BRANCH  18  24
HETATM   24  O   UNK N   1      31.591  16.034   9.477  0.00  0.00    -0.357 OA
HETATM   25  H   UNK N   1      31.780  16.427  10.307  0.00  0.00     0.217 HD
ENDBRANCH  18  24
ENDBRANCH   7  13
BRANCH   3  26
HETATM   26  C   UNK N   1      36.505  13.670  14.607  0.00  0.00     0.104 C 
HETATM   27  N   UNK N   1      36.068  12.733  15.363  0.00  0.00    -0.385 N 
HETATM   28  H   UNK N   1      36.279  12.736  16.324  0.00  0.00     0.157 HD
ATOM     29  HN  UNK N   1      35.501  11.983  14.967  1.00  0.00     0.157 HD
BRANCH  26  30
HETATM   30  N   UNK N   1      37.290  14.698  15.182  0.00  0.00    -0.385 N 
HETATM   31  H   UNK N   1      37.001  15.637  15.108  0.00  0.00     0.157 HD
HETATM   32  H   UNK N   1      38.123  14.475  15.655  0.00  0.00     0.157 HD
ENDBRANCH  26  30
ENDBRANCH   3  26
TORSDOF 7
ENDMDL
MODEL 8
REMARK VINA RESULT:      -6.6      5.779      9.907
REMARK  7 active torsions:
REMARK  status: ('A' for Active; 'I' for Inactive)
REMARK    1  A    between atoms: C_9  and  C_8 
REMARK    2  A    between atoms: O_27  and  C_8 
REMARK    3  A    between atoms: C_18  and  C_10 
REMARK    4  A    between atoms: C_17  and  C_11 
REMARK    5  A    between atoms: O_27  and  C_15 
REMARK    6  A    between atoms: O_26  and  C_16 
REMARK    7  A    between atoms: N_22  and  C_17 
ROOT
HETATM    1  C   UNK N   1      35.838  10.724  16.303  0.00  0.00     0.049 A 
HETATM    2  C   UNK N   1      35.422  13.438  16.996  0.00  0.00     0.056 A 
HETATM    3  C   UNK N   1      35.540  11.055  17.644  0.00  0.00     0.031 A 
HETATM    4  C   UNK N   1      35.326  12.439  17.988  0.00  0.00     0.050 A 
HETATM    5  C   UNK N   1      35.914  11.745  15.371  0.00  0.00     0.061 A 
HETATM    6  C   UNK N   1      35.720  13.044  15.698  0.00  0.00     0.062 A 
HETATM    7  C   UNK N   1      36.124  12.922  13.614  0.00  0.00     0.119 A 
HETATM    8 Cl   UNK N   1      34.938  12.975  19.620  0.00  0.00    -0.083 Cl
HETATM    9  N   UNK N   1      36.169  11.641  14.061  0.00  0.00    -0.340 N 
ATOM     10  HN  UNK N   1      36.354  10.794  13.522  1.00  0.00     0.167 HD
HETATM   11  N   UNK N   1      35.851  13.812  14.608  0.00  0.00    -0.340 N 
HETATM   12  H   UNK N   1      35.768  14.791  14.540  0.00  0.00     0.167 HD
ENDROOT
BRANCH   7  13
HETATM   13  C   UNK N   1      36.342  13.285  12.194  0.00  0.00     0.044 A 
HETATM   14  C   UNK N   1      37.561  12.940  11.599  0.00  0.00     0.018 A 
HETATM   15  C   UNK N   1      37.813  13.243  10.263  0.00  0.00     0.004 A 
HETATM   16  C   UNK N   1      36.854  13.912   9.506  0.00  0.00     0.040 A 
HETATM   17  C   UNK N   1      35.634  14.293  10.073  0.00  0.00     0.102 A 
HETATM   18  C   UNK N   1      35.366  13.963  11.430  0.00  0.00     0.113 A 
BRANCH  17  19
HETATM   19  O   UNK N   1      34.760  14.985   9.293  0.00  0.00    -0.348 OA
BRANCH  19  20
HETATM   20  C   UNK N   1      34.808  16.352   9.128  0.00  0.00     0.179 C 
BRANCH  20  21
HETATM   21  C   UNK N   1      33.928  16.799   7.982  0.00  0.00     0.002 C 
HETATM   22  C   UNK N   1      34.480  16.264   6.676  0.00  0.00     0.011 C 
HETATM   23  C   UNK N   1      33.933  18.312   7.937  0.00  0.00     0.011 C 
ENDBRANCH  20  21
ENDBRANCH  19  20
ENDBRANCH  17  19
BRANCH  18  24
HETATM   24  O   UNK N   1      34.188  14.290  11.992  0.00  0.00    -0.357 OA
HETATM   25  H   UNK N   1      34.141  14.988  12.615  0.00  0.00     0.217 HD
ENDBRANCH  18  24
ENDBRANCH   7  13
BRANCH   3  26
HETATM   26  C   UNK N   1      35.461   9.932  18.622  0.00  0.00     0.104 C 
HETATM   27  N   UNK N   1      36.459   9.611  19.357  0.00  0.00    -0.385 N 
HETATM   28  H   UNK N   1      36.382   8.866  19.995  0.00  0.00     0.157 HD
ATOM     29  HN  UNK N   1      37.335  10.128  19.281  1.00  0.00     0.157 HD
BRANCH  26  30
HETATM   30  N   UNK N   1      34.258   9.197  18.747  0.00  0.00    -0.385 N 
HETATM   31  H   UNK N   1      33.416   9.567  18.395  0.00  0.00     0.157 HD
HETATM   32  H   UNK N   1      34.263   8.316  19.185  0.00  0.00     0.157 HD
ENDBRANCH  26  30
ENDBRANCH   3  26
TORSDOF 7
ENDMDL
MODEL 9
REMARK VINA RESULT:      -6.6      3.649      5.809
REMARK  7 active torsions:
REMARK  status: ('A' for Active; 'I' for Inactive)
REMARK    1  A    between atoms: C_9  and  C_8 
REMARK    2  A    between atoms: O_27  and  C_8 
REMARK    3  A    between atoms: C_18  and  C_10 
REMARK    4  A    between atoms: C_17  and  C_11 
REMARK    5  A    between atoms: O_27  and  C_15 
REMARK    6  A    between atoms: O_26  and  C_16 
REMARK    7  A    between atoms: N_22  and  C_17 
ROOT
HETATM    1  C   UNK N   1      25.814  17.448   5.066  0.00  0.00     0.049 A 
HETATM    2  C   UNK N   1      26.646  19.749   3.641  0.00  0.00     0.056 A 
HETATM    3  C   UNK N   1      24.840  18.274   4.461  0.00  0.00     0.031 A 
HETATM    4  C   UNK N   1      25.272  19.442   3.734  0.00  0.00     0.050 A 
HETATM    5  C   UNK N   1      27.148  17.795   4.936  0.00  0.00     0.061 A 
HETATM    6  C   UNK N   1      27.551  18.896   4.260  0.00  0.00     0.062 A 
HETATM    7  C   UNK N   1      29.270  17.894   5.011  0.00  0.00     0.119 A 
HETATM    8 Cl   UNK N   1      24.157  20.541   2.929  0.00  0.00    -0.083 Cl
HETATM    9  N   UNK N   1      28.215  17.144   5.418  0.00  0.00    -0.340 N 
ATOM     10  HN  UNK N   1      28.231  16.283   5.966  1.00  0.00     0.167 HD
HETATM   11  N   UNK N   1      28.888  18.987   4.293  0.00  0.00    -0.340 N 
HETATM   12  H   UNK N   1      29.460  19.681   3.892  0.00  0.00     0.167 HD
ENDROOT
BRANCH   7  13
HETATM   13  C   UNK N   1      30.674  17.536   5.316  0.00  0.00     0.044 A 
HETATM   14  C   UNK N   1      31.609  17.564   4.273  0.00  0.00     0.018 A 
HETATM   15  C   UNK N   1      32.947  17.251   4.506  0.00  0.00     0.004 A 
HETATM   16  C   UNK N   1      33.367  16.890   5.784  0.00  0.00     0.040 A 
HETATM   17  C   UNK N   1      32.457  16.828   6.845  0.00  0.00     0.102 A 
HETATM   18  C   UNK N   1      31.096  17.170   6.613  0.00  0.00     0.113 A 
BRANCH  17  19
HETATM   19  O   UNK N   1      32.922  16.423   8.057  0.00  0.00    -0.348 OA
BRANCH  19  20
HETATM   20  C   UNK N   1      33.770  17.178   8.837  0.00  0.00     0.179 C 
BRANCH  20  21
HETATM   21  C   UNK N   1      35.008  16.398   9.220  0.00  0.00     0.002 C 
HETATM   22  C   UNK N   1      34.832  14.943   8.836  0.00  0.00     0.011 C 
HETATM   23  C   UNK N   1      35.188  16.495  10.720  0.00  0.00     0.011 C 
ENDBRANCH  20  21
ENDBRANCH  19  20
ENDBRANCH  17  19
BRANCH  18  24
HETATM   24  O   UNK N   1      30.206  17.150   7.623  0.00  0.00    -0.357 OA
HETATM   25  H   UNK N   1      29.559  16.473   7.666  0.00  0.00     0.217 HD
ENDBRANCH  18  24
ENDBRANCH   7  13
BRANCH   3  26
HETATM   26  C   UNK N   1      23.413  17.869   4.615  0.00  0.00     0.104 C 
HETATM   27  N   UNK N   1      22.778  17.277   3.673  0.00  0.00    -0.385 N 
HETATM   28  H   UNK N   1      21.837  17.019   3.799  0.00  0.00     0.157 HD
ATOM     29  HN  UNK N   1      23.249  17.073   2.791  1.00  0.00     0.157 HD
BRANCH  26  30
HETATM   30  N   UNK N   1      22.736  18.141   5.827  0.00  0.00    -0.385 N 
HETATM   31  H   UNK N   1      22.889  17.570   6.614  0.00  0.00     0.157 HD
HETATM   32  H   UNK N   1      22.111  18.899   5.883  0.00  0.00     0.157 HD
ENDBRANCH  26  30
ENDBRANCH   3  26
TORSDOF 7
ENDMDL
