MODEL 1
REMARK VINA RESULT:      -5.3      0.000      0.000
REMARK  1 active torsions:
REMARK  status: ('A' for Active; 'I' for Inactive)
REMARK    1  A    between atoms: C_9  and  C_7 
ROOT
HETATM    1  C   UNK N   1      35.309  13.527  17.672  0.00  0.00     0.015 A 
HETATM    2  C   UNK N   1      35.860  11.393  16.665  0.00  0.00     0.015 A 
HETATM    3  C   UNK N   1      35.112  12.893  18.901  0.00  0.00     0.024 A 
HETATM    4  C   UNK N   1      35.663  10.761  17.892  0.00  0.00     0.024 A 
HETATM    5  C   UNK N   1      35.685  12.777  16.547  0.00  0.00    -0.008 A 
HETATM    6  C   UNK N   1      35.289  11.510  19.009  0.00  0.00     0.034 A 
HETATM    7 Cl   UNK N   1      35.043  10.712  20.544  0.00  0.00    -0.084 Cl
ENDROOT
BRANCH   5   8
HETATM    8  C   UNK N   1      35.897  13.425  15.250  0.00  0.00     0.059 A 
HETATM    9  C   UNK N   1      36.807  14.415  14.965  0.00  0.00     0.119 A 
HETATM   10  N   UNK N   1      36.677  14.728  13.664  0.00  0.00    -0.360 N 
HETATM   11  C   UNK N   1      35.699  13.928  13.185  0.00  0.00     0.180 A 
ATOM     12  HN  UNK N   1      37.209  15.426  13.144  1.00  0.00     0.166 HD
HETATM   13  N   UNK N   1      35.204  13.120  14.139  0.00  0.00    -0.351 N 
HETATM   14  H   UNK N   1      34.489  12.449  14.044  0.00  0.00     0.166 HD
ENDBRANCH   5   8
TORSDOF 1
ENDMDL
MODEL 2
REMARK VINA RESULT:      -5.1     12.699     14.981
REMARK  1 active torsions:
REMARK  status: ('A' for Active; 'I' for Inactive)
REMARK    1  A    between atoms: C_9  and  C_7 
ROOT
HETATM    1  C   UNK N   1      27.227  20.319   6.579  0.00  0.00     0.015 A 
HETATM    2  C   UNK N   1      27.975  18.390   5.318  0.00  0.00     0.015 A 
HETATM    3  C   UNK N   1      26.684  20.866   5.414  0.00  0.00     0.024 A 
HETATM    4  C   UNK N   1      27.433  18.936   4.156  0.00  0.00     0.024 A 
HETATM    5  C   UNK N   1      27.877  19.076   6.535  0.00  0.00    -0.008 A 
HETATM    6  C   UNK N   1      26.787  20.172   4.203  0.00  0.00     0.034 A 
HETATM    7 Cl   UNK N   1      26.109  20.852   2.743  0.00  0.00    -0.084 Cl
ENDROOT
BRANCH   5   8
HETATM    8  C   UNK N   1      28.453  18.487   7.746  0.00  0.00     0.059 A 
HETATM    9  C   UNK N   1      29.659  17.835   7.849  0.00  0.00     0.119 A 
HETATM   10  N   UNK N   1      29.809  17.452   9.129  0.00  0.00    -0.360 N 
HETATM   11  C   UNK N   1      28.700  17.873   9.776  0.00  0.00     0.180 A 
ATOM     12  HN  UNK N   1      30.598  16.945   9.530  1.00  0.00     0.166 HD
HETATM   13  N   UNK N   1      27.853  18.511   8.949  0.00  0.00    -0.351 N 
HETATM   14  H   UNK N   1      26.981  18.910   9.176  0.00  0.00     0.166 HD
ENDBRANCH   5   8
TORSDOF 1
ENDMDL
MODEL 3
REMARK VINA RESULT:      -4.9     28.201     28.947
REMARK  1 active torsions:
REMARK  status: ('A' for Active; 'I' for Inactive)
REMARK    1  A    between atoms: C_9  and  C_7 
ROOT
HETATM    1  C   UNK N   1      27.065  27.586  -6.727  0.00  0.00     0.015 A 
HETATM    2  C   UNK N   1      25.041  26.846  -5.621  0.00  0.00     0.015 A 
HETATM    3  C   UNK N   1      27.238  28.567  -5.748  0.00  0.00     0.024 A 
HETATM    4  C   UNK N   1      25.214  27.825  -4.644  0.00  0.00     0.024 A 
HETATM    5  C   UNK N   1      25.964  26.720  -6.667  0.00  0.00    -0.008 A 
HETATM    6  C   UNK N   1      26.311  28.685  -4.707  0.00  0.00     0.034 A 
HETATM    7 Cl   UNK N   1      26.522  29.911  -3.480  0.00  0.00    -0.084 Cl
ENDROOT
BRANCH   5   8
HETATM    8  C   UNK N   1      25.766  25.684  -7.685  0.00  0.00     0.059 A 
HETATM    9  C   UNK N   1      25.866  25.842  -9.047  0.00  0.00     0.119 A 
HETATM   10  N   UNK N   1      25.611  24.651  -9.616  0.00  0.00    -0.360 N 
HETATM   11  C   UNK N   1      25.363  23.798  -8.598  0.00  0.00     0.180 A 
ATOM     12  HN  UNK N   1      25.605  24.435 -10.613  1.00  0.00     0.166 HD
HETATM   13  N   UNK N   1      25.452  24.408  -7.403  0.00  0.00    -0.351 N 
HETATM   14  H   UNK N   1      25.316  24.007  -6.514  0.00  0.00     0.166 HD
ENDBRANCH   5   8
TORSDOF 1
ENDMDL
MODEL 4
REMARK VINA RESULT:      -4.9     15.355     16.684
REMARK  1 active torsions:
REMARK  status: ('A' for Active; 'I' for Inactive)
REMARK    1  A    between atoms: C_9  and  C_7 
ROOT
HETATM    1  C   UNK N   1      21.031  14.776   9.370  0.00  0.00     0.015 A 
HETATM    2  C   UNK N   1      21.449  12.793   8.042  0.00  0.00     0.015 A 
HETATM    3  C   UNK N   1      20.493  15.411   8.248  0.00  0.00     0.024 A 
HETATM    4  C   UNK N   1      20.913  13.427   6.923  0.00  0.00     0.024 A 
HETATM    5  C   UNK N   1      21.512  13.462   9.272  0.00  0.00    -0.008 A 
HETATM    6  C   UNK N   1      20.435  14.735   7.025  0.00  0.00     0.034 A 
HETATM    7 Cl   UNK N   1      19.764  15.524   5.617  0.00  0.00    -0.084 Cl
ENDROOT
BRANCH   5   8
HETATM    8  C   UNK N   1      22.078  12.780  10.438  0.00  0.00     0.059 A 
HETATM    9  C   UNK N   1      21.384  12.094  11.406  0.00  0.00     0.119 A 
HETATM   10  N   UNK N   1      22.277  11.623  12.294  0.00  0.00    -0.360 N 
HETATM   11  C   UNK N   1      23.489  12.027  11.853  0.00  0.00     0.180 A 
ATOM     12  HN  UNK N   1      22.081  11.072  13.129  1.00  0.00     0.166 HD
HETATM   13  N   UNK N   1      23.393  12.739  10.715  0.00  0.00    -0.351 N 
HETATM   14  H   UNK N   1      24.127  13.144  10.198  0.00  0.00     0.166 HD
ENDBRANCH   5   8
TORSDOF 1
ENDMDL
MODEL 5
REMARK VINA RESULT:      -4.8      9.381     11.481
REMARK  1 active torsions:
REMARK  status: ('A' for Active; 'I' for Inactive)
REMARK    1  A    between atoms: C_9  and  C_7 
ROOT
HETATM    1  C   UNK N   1      31.284  17.043   6.580  0.00  0.00     0.015 A 
HETATM    2  C   UNK N   1      30.467  18.007   8.647  0.00  0.00     0.015 A 
HETATM    3  C   UNK N   1      29.985  17.048   6.068  0.00  0.00     0.024 A 
HETATM    4  C   UNK N   1      29.171  18.012   8.135  0.00  0.00     0.024 A 
HETATM    5  C   UNK N   1      31.531  17.524   7.875  0.00  0.00    -0.008 A 
HETATM    6  C   UNK N   1      28.929  17.533   6.847  0.00  0.00     0.034 A 
HETATM    7 Cl   UNK N   1      27.302  17.541   6.211  0.00  0.00    -0.084 Cl
ENDROOT
BRANCH   5   8
HETATM    8  C   UNK N   1      32.887  17.526   8.429  0.00  0.00     0.059 A 
HETATM    9  C   UNK N   1      33.897  18.408   8.124  0.00  0.00     0.119 A 
HETATM   10  N   UNK N   1      34.975  18.061   8.849  0.00  0.00    -0.360 N 
HETATM   11  C   UNK N   1      34.604  16.984   9.576  0.00  0.00     0.180 A 
ATOM     12  HN  UNK N   1      35.887  18.518   8.851  1.00  0.00     0.166 HD
HETATM   13  N   UNK N   1      33.327  16.636   9.335  0.00  0.00    -0.351 N 
HETATM   14  H   UNK N   1      32.824  15.891   9.736  0.00  0.00     0.166 HD
ENDBRANCH   5   8
TORSDOF 1
ENDMDL
MODEL 6
REMARK VINA RESULT:      -4.7     26.231     27.271
REMARK  1 active torsions:
REMARK  status: ('A' for Active; 'I' for Inactive)
REMARK    1  A    between atoms: C_9  and  C_7 
ROOT
HETATM    1  C   UNK N   1      25.451  25.544  -6.429  0.00  0.00     0.015 A 
HETATM    2  C   UNK N   1      26.417  24.309  -4.581  0.00  0.00     0.015 A 
HETATM    3  C   UNK N   1      25.466  26.707  -5.655  0.00  0.00     0.024 A 
HETATM    4  C   UNK N   1      26.432  25.470  -3.810  0.00  0.00     0.024 A 
HETATM    5  C   UNK N   1      25.928  24.338  -5.894  0.00  0.00    -0.008 A 
HETATM    6  C   UNK N   1      25.957  26.668  -4.346  0.00  0.00     0.034 A 
HETATM    7 Cl   UNK N   1      25.978  28.120  -3.374  0.00  0.00    -0.084 Cl
ENDROOT
BRANCH   5   8
HETATM    8  C   UNK N   1      25.920  23.108  -6.690  0.00  0.00     0.059 A 
HETATM    9  C   UNK N   1      26.997  22.532  -7.321  0.00  0.00     0.119 A 
HETATM   10  N   UNK N   1      26.562  21.420  -7.939  0.00  0.00    -0.360 N 
HETATM   11  C   UNK N   1      25.239  21.341  -7.674  0.00  0.00     0.180 A 
ATOM     12  HN  UNK N   1      27.116  20.768  -8.494  1.00  0.00     0.166 HD
HETATM   13  N   UNK N   1      24.822  22.365  -6.909  0.00  0.00    -0.351 N 
HETATM   14  H   UNK N   1      23.909  22.535  -6.581  0.00  0.00     0.166 HD
ENDBRANCH   5   8
TORSDOF 1
ENDMDL
MODEL 7
REMARK VINA RESULT:      -4.7     17.849     18.712
REMARK  1 active torsions:
REMARK  status: ('A' for Active; 'I' for Inactive)
REMARK    1  A    between atoms: C_9  and  C_7 
ROOT
HETATM    1  C   UNK N   1      20.534  17.843   7.437  0.00  0.00     0.015 A 
HETATM    2  C   UNK N   1      20.147  15.887   8.813  0.00  0.00     0.015 A 
HETATM    3  C   UNK N   1      21.357  17.087   6.598  0.00  0.00     0.024 A 
HETATM    4  C   UNK N   1      20.968  15.133   7.976  0.00  0.00     0.024 A 
HETATM    5  C   UNK N   1      19.925  17.245   8.550  0.00  0.00    -0.008 A 
HETATM    6  C   UNK N   1      21.573  15.732   6.870  0.00  0.00     0.034 A 
HETATM    7 Cl   UNK N   1      22.601  14.781   5.825  0.00  0.00    -0.084 Cl
ENDROOT
BRANCH   5   8
HETATM    8  C   UNK N   1      19.059  18.022   9.440  0.00  0.00     0.059 A 
HETATM    9  C   UNK N   1      19.382  19.194  10.081  0.00  0.00     0.119 A 
HETATM   10  N   UNK N   1      18.310  19.577  10.798  0.00  0.00    -0.360 N 
HETATM   11  C   UNK N   1      17.363  18.638  10.580  0.00  0.00     0.180 A 
ATOM     12  HN  UNK N   1      18.228  20.406  11.385  1.00  0.00     0.166 HD
HETATM   13  N   UNK N   1      17.799  17.673   9.750  0.00  0.00    -0.351 N 
HETATM   14  H   UNK N   1      17.302  16.882   9.438  0.00  0.00     0.166 HD
ENDBRANCH   5   8
TORSDOF 1
ENDMDL
MODEL 8
REMARK VINA RESULT:      -4.7      2.141      3.172
REMARK  1 active torsions:
REMARK  status: ('A' for Active; 'I' for Inactive)
REMARK    1  A    between atoms: C_9  and  C_7 
ROOT
HETATM    1  C   UNK N   1      36.696  14.212  14.813  0.00  0.00     0.015 A 
HETATM    2  C   UNK N   1      34.829  12.716  14.432  0.00  0.00     0.015 A 
HETATM    3  C   UNK N   1      36.472  14.137  16.189  0.00  0.00     0.024 A 
HETATM    4  C   UNK N   1      34.606  12.642  15.806  0.00  0.00     0.024 A 
HETATM    5  C   UNK N   1      35.873  13.500  13.927  0.00  0.00    -0.008 A 
HETATM    6  C   UNK N   1      35.426  13.351  16.684  0.00  0.00     0.034 A 
HETATM    7 Cl   UNK N   1      35.141  13.254  18.406  0.00  0.00    -0.084 Cl
ENDROOT
BRANCH   5   8
HETATM    8  C   UNK N   1      36.093  13.567  12.480  0.00  0.00     0.059 A 
HETATM    9  C   UNK N   1      35.140  13.441  11.498  0.00  0.00     0.119 A 
HETATM   10  N   UNK N   1      35.757  13.563  10.310  0.00  0.00    -0.360 N 
HETATM   11  C   UNK N   1      37.065  13.760  10.589  0.00  0.00     0.180 A 
ATOM     12  HN  UNK N   1      35.327  13.517   9.386  1.00  0.00     0.166 HD
HETATM   13  N   UNK N   1      37.296  13.766  11.914  0.00  0.00    -0.351 N 
HETATM   14  H   UNK N   1      38.160  13.890  12.371  0.00  0.00     0.166 HD
ENDBRANCH   5   8
TORSDOF 1
ENDMDL
MODEL 9
REMARK VINA RESULT:      -4.7      8.047     10.651
REMARK  1 active torsions:
REMARK  status: ('A' for Active; 'I' for Inactive)
REMARK    1  A    between atoms: C_9  and  C_7 
ROOT
HETATM    1  C   UNK N   1      32.160  16.193   7.945  0.00  0.00     0.015 A 
HETATM    2  C   UNK N   1      34.222  17.247   7.232  0.00  0.00     0.015 A 
HETATM    3  C   UNK N   1      31.572  16.523   6.722  0.00  0.00     0.024 A 
HETATM    4  C   UNK N   1      33.634  17.575   6.011  0.00  0.00     0.024 A 
HETATM    5  C   UNK N   1      33.490  16.555   8.205  0.00  0.00    -0.008 A 
HETATM    6  C   UNK N   1      32.310  17.214   5.756  0.00  0.00     0.034 A 
HETATM    7 Cl   UNK N   1      31.580  17.629   4.223  0.00  0.00    -0.084 Cl
ENDROOT
BRANCH   5   8
HETATM    8  C   UNK N   1      34.124  16.218   9.482  0.00  0.00     0.059 A 
HETATM    9  C   UNK N   1      33.990  15.041  10.180  0.00  0.00     0.119 A 
HETATM   10  N   UNK N   1      34.734  15.140  11.296  0.00  0.00    -0.360 N 
HETATM   11  C   UNK N   1      35.302  16.366  11.256  0.00  0.00     0.180 A 
ATOM     12  HN  UNK N   1      34.846  14.435  12.024  1.00  0.00     0.166 HD
HETATM   13  N   UNK N   1      34.943  17.046  10.153  0.00  0.00    -0.351 N 
HETATM   14  H   UNK N   1      35.220  17.955   9.893  0.00  0.00     0.166 HD
ENDBRANCH   5   8
TORSDOF 1
ENDMDL
