MODEL 1
REMARK VINA RESULT:      -5.5      0.000      0.000
REMARK  7 active torsions:
REMARK  status: ('A' for Active; 'I' for Inactive)
REMARK    1  A    between atoms: C_12  and  C_11 
REMARK    2  A    between atoms: C_15  and  C_11 
REMARK    3  A    between atoms: C_16  and  C_12 
REMARK    4  A    between atoms: C_16  and  C_13 
REMARK    5  A    between atoms: C_14  and  S_21 
REMARK    6  A    between atoms: C_16  and  N_18 
REMARK    7  A    between atoms: S_21  and  C_17 
ROOT
HETATM    1  C   UNK N   1      26.099  27.238  -4.082  0.00  0.00     0.098 C 
ENDROOT
BRANCH   1   2
HETATM    2  C   UNK N   1      25.613  27.219  -5.525  0.00  0.00     0.033 C 
BRANCH   2   3
HETATM    3  C   UNK N   1      26.774  27.608  -6.435  0.00  0.00     0.041 C 
BRANCH   3   4
HETATM    4  C   UNK N   1      26.935  26.696  -7.596  0.00  0.00    -0.058 A 
HETATM    5  C   UNK N   1      25.799  26.268  -8.294  0.00  0.00     0.007 A 
HETATM    6  C   UNK N   1      25.933  25.451  -9.418  0.00  0.00     0.001 A 
HETATM    7  C   UNK N   1      27.204  25.068  -9.858  0.00  0.00     0.000 A 
HETATM    8  C   UNK N   1      28.341  25.499  -9.165  0.00  0.00     0.001 A 
HETATM    9  C   UNK N   1      28.209  26.312  -8.037  0.00  0.00     0.007 A 
ENDBRANCH   3   4
ENDBRANCH   2   3
ENDBRANCH   1   2
BRANCH   1  10
HETATM   10  C   UNK N   1      27.595  27.295  -4.026  0.00  0.00     0.009 C 
HETATM   11  C   UNK N   1      28.382  26.213  -3.893  0.00  0.00     0.112 C 
BRANCH  11  12
HETATM   12  S   UNK N   1      27.803  24.497  -3.897  0.00  0.00     0.196 S 
HETATM   13  O   UNK N   1      26.716  24.279  -2.835  0.00  0.00    -0.218 OA
HETATM   14  O   UNK N   1      28.925  23.677  -3.241  0.00  0.00    -0.218 OA
BRANCH  12  15
HETATM   15  C   UNK N   1      27.319  23.601  -5.371  0.00  0.00     0.063 A 
HETATM   16  C   UNK N   1      25.968  23.496  -5.725  0.00  0.00     0.024 A 
HETATM   17  C   UNK N   1      25.597  22.796  -6.877  0.00  0.00     0.002 A 
HETATM   18  C   UNK N   1      26.576  22.200  -7.678  0.00  0.00     0.000 A 
HETATM   19  C   UNK N   1      27.925  22.304  -7.327  0.00  0.00     0.002 A 
HETATM   20  C   UNK N   1      28.297  23.005  -6.175  0.00  0.00     0.024 A 
ENDBRANCH  12  15
ENDBRANCH  11  12
ENDBRANCH   1  10
BRANCH   1  21
HETATM   21  N   UNK N   1      25.546  28.404  -3.408  0.00  0.00    -0.423 N 
HETATM   22  H   UNK N   1      25.659  29.414  -3.494  0.00  0.00     0.150 HD
HETATM   23  H   UNK N   1      24.890  28.149  -2.671  0.00  0.00     0.150 HD
ENDBRANCH   1  21
TORSDOF 7
ENDMDL
MODEL 2
REMARK VINA RESULT:      -5.5      2.813      4.685
REMARK  7 active torsions:
REMARK  status: ('A' for Active; 'I' for Inactive)
REMARK    1  A    between atoms: C_12  and  C_11 
REMARK    2  A    between atoms: C_15  and  C_11 
REMARK    3  A    between atoms: C_16  and  C_12 
REMARK    4  A    between atoms: C_16  and  C_13 
REMARK    5  A    between atoms: C_14  and  S_21 
REMARK    6  A    between atoms: C_16  and  N_18 
REMARK    7  A    between atoms: S_21  and  C_17 
ROOT
HETATM    1  C   UNK N   1      27.087  25.060  -9.152  0.00  0.00     0.098 C 
ENDROOT
BRANCH   1   2
HETATM    2  C   UNK N   1      27.100  26.576  -9.006  0.00  0.00     0.033 C 
BRANCH   2   3
HETATM    3  C   UNK N   1      27.864  26.936  -7.735  0.00  0.00     0.041 C 
BRANCH   3   4
HETATM    4  C   UNK N   1      26.975  27.340  -6.616  0.00  0.00    -0.058 A 
HETATM    5  C   UNK N   1      25.630  26.950  -6.634  0.00  0.00     0.007 A 
HETATM    6  C   UNK N   1      24.790  27.277  -5.568  0.00  0.00     0.001 A 
HETATM    7  C   UNK N   1      25.294  27.986  -4.472  0.00  0.00     0.000 A 
HETATM    8  C   UNK N   1      26.639  28.372  -4.449  0.00  0.00     0.001 A 
HETATM    9  C   UNK N   1      27.479  28.049  -5.518  0.00  0.00     0.007 A 
ENDBRANCH   3   4
ENDBRANCH   2   3
ENDBRANCH   1   2
BRANCH   1  10
HETATM   10  C   UNK N   1      25.696  24.561  -9.393  0.00  0.00     0.009 C 
HETATM   11  C   UNK N   1      25.137  23.541  -8.719  0.00  0.00     0.112 C 
BRANCH  11  12
HETATM   12  S   UNK N   1      25.895  22.680  -7.316  0.00  0.00     0.196 S 
HETATM   13  O   UNK N   1      26.781  21.521  -7.794  0.00  0.00    -0.218 OA
HETATM   14  O   UNK N   1      24.769  21.854  -6.677  0.00  0.00    -0.218 OA
BRANCH  12  15
HETATM   15  C   UNK N   1      26.745  23.503  -5.970  0.00  0.00     0.063 A 
HETATM   16  C   UNK N   1      28.129  23.706  -6.025  0.00  0.00     0.024 A 
HETATM   17  C   UNK N   1      28.787  24.348  -4.971  0.00  0.00     0.002 A 
HETATM   18  C   UNK N   1      28.061  24.790  -3.861  0.00  0.00     0.000 A 
HETATM   19  C   UNK N   1      26.678  24.590  -3.805  0.00  0.00     0.002 A 
HETATM   20  C   UNK N   1      26.020  23.947  -4.860  0.00  0.00     0.024 A 
ENDBRANCH  12  15
ENDBRANCH  11  12
ENDBRANCH   1  10
BRANCH   1  21
HETATM   21  N   UNK N   1      27.938  24.681 -10.271  0.00  0.00    -0.423 N 
HETATM   22  H   UNK N   1      28.489  25.183 -10.967  0.00  0.00     0.150 HD
HETATM   23  H   UNK N   1      27.995  23.670 -10.388  0.00  0.00     0.150 HD
ENDBRANCH   1  21
TORSDOF 7
ENDMDL
MODEL 3
REMARK VINA RESULT:      -5.4     21.632     23.865
REMARK  7 active torsions:
REMARK  status: ('A' for Active; 'I' for Inactive)
REMARK    1  A    between atoms: C_12  and  C_11 
REMARK    2  A    between atoms: C_15  and  C_11 
REMARK    3  A    between atoms: C_16  and  C_12 
REMARK    4  A    between atoms: C_16  and  C_13 
REMARK    5  A    between atoms: C_14  and  S_21 
REMARK    6  A    between atoms: C_16  and  N_18 
REMARK    7  A    between atoms: S_21  and  C_17 
ROOT
HETATM    1  C   UNK N   1      36.480  13.841  12.911  0.00  0.00     0.098 C 
ENDROOT
BRANCH   1   2
HETATM    2  C   UNK N   1      36.819  12.640  13.784  0.00  0.00     0.033 C 
BRANCH   2   3
HETATM    3  C   UNK N   1      35.521  12.066  14.345  0.00  0.00     0.041 C 
BRANCH   3   4
HETATM    4  C   UNK N   1      35.478  12.066  15.830  0.00  0.00    -0.058 A 
HETATM    5  C   UNK N   1      35.203  13.260  16.507  0.00  0.00     0.007 A 
HETATM    6  C   UNK N   1      35.108  13.271  17.900  0.00  0.00     0.001 A 
HETATM    7  C   UNK N   1      35.277  12.085  18.622  0.00  0.00     0.000 A 
HETATM    8  C   UNK N   1      35.547  10.889  17.947  0.00  0.00     0.001 A 
HETATM    9  C   UNK N   1      35.646  10.878  16.553  0.00  0.00     0.007 A 
ENDBRANCH   3   4
ENDBRANCH   2   3
ENDBRANCH   1   2
BRANCH   1  10
HETATM   10  C   UNK N   1      35.043  13.803  12.489  0.00  0.00     0.009 C 
HETATM   11  C   UNK N   1      34.565  14.421  11.395  0.00  0.00     0.112 C 
BRANCH  11  12
HETATM   12  S   UNK N   1      35.575  15.284  10.162  0.00  0.00     0.196 S 
HETATM   13  O   UNK N   1      36.735  14.400   9.684  0.00  0.00    -0.218 OA
HETATM   14  O   UNK N   1      36.392  16.322  10.947  0.00  0.00    -0.218 OA
BRANCH  12  15
HETATM   15  C   UNK N   1      34.910  16.139   8.736  0.00  0.00     0.063 A 
HETATM   16  C   UNK N   1      34.422  17.446   8.857  0.00  0.00     0.024 A 
HETATM   17  C   UNK N   1      33.905  18.109   7.739  0.00  0.00     0.002 A 
HETATM   18  C   UNK N   1      33.875  17.466   6.498  0.00  0.00     0.000 A 
HETATM   19  C   UNK N   1      34.362  16.161   6.375  0.00  0.00     0.002 A 
HETATM   20  C   UNK N   1      34.880  15.498   7.493  0.00  0.00     0.024 A 
ENDBRANCH  12  15
ENDBRANCH  11  12
ENDBRANCH   1  10
BRANCH   1  21
HETATM   21  N   UNK N   1      36.731  15.063  13.661  0.00  0.00    -0.423 N 
HETATM   22  H   UNK N   1      37.496  15.735  13.719  0.00  0.00     0.150 HD
HETATM   23  H   UNK N   1      35.955  15.306  14.276  0.00  0.00     0.150 HD
ENDBRANCH   1  21
TORSDOF 7
ENDMDL
MODEL 4
REMARK VINA RESULT:      -5.4     22.607     24.716
REMARK  7 active torsions:
REMARK  status: ('A' for Active; 'I' for Inactive)
REMARK    1  A    between atoms: C_12  and  C_11 
REMARK    2  A    between atoms: C_15  and  C_11 
REMARK    3  A    between atoms: C_16  and  C_12 
REMARK    4  A    between atoms: C_16  and  C_13 
REMARK    5  A    between atoms: C_14  and  S_21 
REMARK    6  A    between atoms: C_16  and  N_18 
REMARK    7  A    between atoms: S_21  and  C_17 
ROOT
HETATM    1  C   UNK N   1      33.979  11.962   9.929  0.00  0.00     0.098 C 
ENDROOT
BRANCH   1   2
HETATM    2  C   UNK N   1      34.590  10.704  10.533  0.00  0.00     0.033 C 
BRANCH   2   3
HETATM    3  C   UNK N   1      33.603  10.119  11.538  0.00  0.00     0.041 C 
BRANCH   3   4
HETATM    4  C   UNK N   1      34.186   9.944  12.893  0.00  0.00    -0.058 A 
HETATM    5  C   UNK N   1      33.684  10.702  13.958  0.00  0.00     0.007 A 
HETATM    6  C   UNK N   1      34.184  10.517  15.248  0.00  0.00     0.001 A 
HETATM    7  C   UNK N   1      35.182   9.565  15.482  0.00  0.00     0.000 A 
HETATM    8  C   UNK N   1      35.682   8.802  14.420  0.00  0.00     0.001 A 
HETATM    9  C   UNK N   1      35.185   8.989  13.128  0.00  0.00     0.007 A 
ENDBRANCH   3   4
ENDBRANCH   2   3
ENDBRANCH   1   2
BRANCH   1  10
HETATM   10  C   UNK N   1      34.924  12.599   8.959  0.00  0.00     0.009 C 
HETATM   11  C   UNK N   1      35.669  13.683   9.238  0.00  0.00     0.112 C 
BRANCH  11  12
HETATM   12  S   UNK N   1      35.776  14.482  10.861  0.00  0.00     0.196 S 
HETATM   13  O   UNK N   1      34.476  15.226  11.196  0.00  0.00    -0.218 OA
HETATM   14  O   UNK N   1      36.689  15.703  10.664  0.00  0.00    -0.218 OA
BRANCH  12  15
HETATM   15  C   UNK N   1      36.342  13.664  12.351  0.00  0.00     0.063 A 
HETATM   16  C   UNK N   1      37.109  12.496  12.270  0.00  0.00     0.024 A 
HETATM   17  C   UNK N   1      37.548  11.862  13.437  0.00  0.00     0.002 A 
HETATM   18  C   UNK N   1      37.221  12.396  14.687  0.00  0.00     0.000 A 
HETATM   19  C   UNK N   1      36.457  13.564  14.770  0.00  0.00     0.002 A 
HETATM   20  C   UNK N   1      36.018  14.198  13.603  0.00  0.00     0.024 A 
ENDBRANCH  12  15
ENDBRANCH  11  12
ENDBRANCH   1  10
BRANCH   1  21
HETATM   21  N   UNK N   1      32.745  11.610   9.241  0.00  0.00    -0.423 N 
HETATM   22  H   UNK N   1      31.893  11.107   9.490  0.00  0.00     0.150 HD
HETATM   23  H   UNK N   1      32.729  11.946   8.279  0.00  0.00     0.150 HD
ENDBRANCH   1  21
TORSDOF 7
ENDMDL
MODEL 5
REMARK VINA RESULT:      -5.4     14.240     16.268
REMARK  7 active torsions:
REMARK  status: ('A' for Active; 'I' for Inactive)
REMARK    1  A    between atoms: C_12  and  C_11 
REMARK    2  A    between atoms: C_15  and  C_11 
REMARK    3  A    between atoms: C_16  and  C_12 
REMARK    4  A    between atoms: C_16  and  C_13 
REMARK    5  A    between atoms: C_14  and  S_21 
REMARK    6  A    between atoms: C_16  and  N_18 
REMARK    7  A    between atoms: S_21  and  C_17 
ROOT
HETATM    1  C   UNK N   1      28.585  18.406   7.618  0.00  0.00     0.098 C 
ENDROOT
BRANCH   1   2
HETATM    2  C   UNK N   1      29.691  18.353   8.663  0.00  0.00     0.033 C 
BRANCH   2   3
HETATM    3  C   UNK N   1      30.307  16.958   8.648  0.00  0.00     0.041 C 
BRANCH   3   4
HETATM    4  C   UNK N   1      31.783  16.975   8.487  0.00  0.00    -0.058 A 
HETATM    5  C   UNK N   1      32.421  18.172   8.143  0.00  0.00     0.007 A 
HETATM    6  C   UNK N   1      33.812  18.221   8.036  0.00  0.00     0.001 A 
HETATM    7  C   UNK N   1      34.574  17.074   8.284  0.00  0.00     0.000 A 
HETATM    8  C   UNK N   1      33.939  15.877   8.633  0.00  0.00     0.001 A 
HETATM    9  C   UNK N   1      32.546  15.826   8.736  0.00  0.00     0.007 A 
ENDBRANCH   3   4
ENDBRANCH   2   3
ENDBRANCH   1   2
BRANCH   1  10
HETATM   10  C   UNK N   1      27.895  17.081   7.506  0.00  0.00     0.009 C 
HETATM   11  C   UNK N   1      27.932  16.306   6.407  0.00  0.00     0.112 C 
BRANCH  11  12
HETATM   12  S   UNK N   1      28.923  16.644   4.928  0.00  0.00     0.196 S 
HETATM   13  O   UNK N   1      28.510  17.973   4.280  0.00  0.00    -0.218 OA
HETATM   14  O   UNK N   1      28.392  15.691   3.846  0.00  0.00    -0.218 OA
BRANCH  12  15
HETATM   15  C   UNK N   1      30.710  16.532   4.866  0.00  0.00     0.063 A 
HETATM   16  C   UNK N   1      31.477  17.647   4.505  0.00  0.00     0.024 A 
HETATM   17  C   UNK N   1      32.872  17.554   4.459  0.00  0.00     0.002 A 
HETATM   18  C   UNK N   1      33.502  16.347   4.775  0.00  0.00     0.000 A 
HETATM   19  C   UNK N   1      32.738  15.233   5.137  0.00  0.00     0.002 A 
HETATM   20  C   UNK N   1      31.342  15.326   5.184  0.00  0.00     0.024 A 
ENDBRANCH  12  15
ENDBRANCH  11  12
ENDBRANCH   1  10
BRANCH   1  21
HETATM   21  N   UNK N   1      27.616  19.424   7.999  0.00  0.00    -0.423 N 
HETATM   22  H   UNK N   1      27.660  20.329   8.468  0.00  0.00     0.150 HD
HETATM   23  H   UNK N   1      26.665  19.171   7.734  0.00  0.00     0.150 HD
ENDBRANCH   1  21
TORSDOF 7
ENDMDL
MODEL 6
REMARK VINA RESULT:      -5.4     13.432     15.170
REMARK  7 active torsions:
REMARK  status: ('A' for Active; 'I' for Inactive)
REMARK    1  A    between atoms: C_12  and  C_11 
REMARK    2  A    between atoms: C_15  and  C_11 
REMARK    3  A    between atoms: C_16  and  C_12 
REMARK    4  A    between atoms: C_16  and  C_13 
REMARK    5  A    between atoms: C_14  and  S_21 
REMARK    6  A    between atoms: C_16  and  N_18 
REMARK    7  A    between atoms: S_21  and  C_17 
ROOT
HETATM    1  C   UNK N   1      30.416  17.105   8.750  0.00  0.00     0.098 C 
ENDROOT
BRANCH   1   2
HETATM    2  C   UNK N   1      29.362  17.272   7.664  0.00  0.00     0.033 C 
BRANCH   2   3
HETATM    3  C   UNK N   1      28.608  18.573   7.915  0.00  0.00     0.041 C 
BRANCH   3   4
HETATM    4  C   UNK N   1      28.104  19.205   6.669  0.00  0.00    -0.058 A 
HETATM    5  C   UNK N   1      28.351  18.584   5.438  0.00  0.00     0.007 A 
HETATM    6  C   UNK N   1      27.843  19.135   4.260  0.00  0.00     0.001 A 
HETATM    7  C   UNK N   1      27.076  20.303   4.308  0.00  0.00     0.000 A 
HETATM    8  C   UNK N   1      26.823  20.923   5.537  0.00  0.00     0.001 A 
HETATM    9  C   UNK N   1      27.334  20.375   6.716  0.00  0.00     0.007 A 
ENDBRANCH   3   4
ENDBRANCH   2   3
ENDBRANCH   1   2
BRANCH   1  10
HETATM   10  C   UNK N   1      31.306  18.308   8.818  0.00  0.00     0.009 C 
HETATM   11  C   UNK N   1      32.479  18.412   8.170  0.00  0.00     0.112 C 
BRANCH  11  12
HETATM   12  S   UNK N   1      33.133  17.194   6.998  0.00  0.00     0.196 S 
HETATM   13  O   UNK N   1      33.505  15.887   7.712  0.00  0.00    -0.218 OA
HETATM   14  O   UNK N   1      34.551  17.672   6.649  0.00  0.00    -0.218 OA
BRANCH  12  15
HETATM   15  C   UNK N   1      32.347  16.768   5.445  0.00  0.00     0.063 A 
HETATM   16  C   UNK N   1      32.607  17.517   4.291  0.00  0.00     0.024 A 
HETATM   17  C   UNK N   1      31.991  17.179   3.081  0.00  0.00     0.002 A 
HETATM   18  C   UNK N   1      31.115  16.092   3.024  0.00  0.00     0.000 A 
HETATM   19  C   UNK N   1      30.855  15.341   4.175  0.00  0.00     0.002 A 
HETATM   20  C   UNK N   1      31.472  15.679   5.385  0.00  0.00     0.024 A 
ENDBRANCH  12  15
ENDBRANCH  11  12
ENDBRANCH   1  10
BRANCH   1  21
HETATM   21  N   UNK N   1      29.754  16.921  10.033  0.00  0.00    -0.423 N 
HETATM   22  H   UNK N   1      29.940  17.210  10.994  0.00  0.00     0.150 HD
HETATM   23  H   UNK N   1      28.901  16.370   9.953  0.00  0.00     0.150 HD
ENDBRANCH   1  21
TORSDOF 7
ENDMDL
MODEL 7
REMARK VINA RESULT:      -5.3      3.709      6.639
REMARK  7 active torsions:
REMARK  status: ('A' for Active; 'I' for Inactive)
REMARK    1  A    between atoms: C_12  and  C_11 
REMARK    2  A    between atoms: C_15  and  C_11 
REMARK    3  A    between atoms: C_16  and  C_12 
REMARK    4  A    between atoms: C_16  and  C_13 
REMARK    5  A    between atoms: C_14  and  S_21 
REMARK    6  A    between atoms: C_16  and  N_18 
REMARK    7  A    between atoms: S_21  and  C_17 
ROOT
HETATM    1  C   UNK N   1      29.251  24.038  -3.543  0.00  0.00     0.098 C 
ENDROOT
BRANCH   1   2
HETATM    2  C   UNK N   1      30.749  23.876  -3.322  0.00  0.00     0.033 C 
BRANCH   2   3
HETATM    3  C   UNK N   1      30.983  22.621  -2.486  0.00  0.00     0.041 C 
BRANCH   3   4
HETATM    4  C   UNK N   1      31.753  21.576  -3.208  0.00  0.00    -0.058 A 
HETATM    5  C   UNK N   1      33.091  21.349  -2.862  0.00  0.00     0.007 A 
HETATM    6  C   UNK N   1      33.817  20.337  -3.494  0.00  0.00     0.001 A 
HETATM    7  C   UNK N   1      33.205  19.540  -4.466  0.00  0.00     0.000 A 
HETATM    8  C   UNK N   1      31.867  19.761  -4.810  0.00  0.00     0.001 A 
HETATM    9  C   UNK N   1      31.140  20.776  -4.182  0.00  0.00     0.007 A 
ENDBRANCH   3   4
ENDBRANCH   2   3
ENDBRANCH   1   2
BRANCH   1  10
HETATM   10  C   UNK N   1      28.859  23.560  -4.907  0.00  0.00     0.009 C 
HETATM   11  C   UNK N   1      27.682  23.842  -5.492  0.00  0.00     0.112 C 
BRANCH  11  12
HETATM   12  S   UNK N   1      26.421  24.952  -4.813  0.00  0.00     0.196 S 
HETATM   13  O   UNK N   1      25.966  24.484  -3.423  0.00  0.00    -0.218 OA
HETATM   14  O   UNK N   1      25.132  24.642  -5.589  0.00  0.00    -0.218 OA
BRANCH  12  15
HETATM   15  C   UNK N   1      26.568  26.737  -4.771  0.00  0.00     0.063 A 
HETATM   16  C   UNK N   1      25.994  27.471  -3.726  0.00  0.00     0.024 A 
HETATM   17  C   UNK N   1      26.112  28.865  -3.699  0.00  0.00     0.002 A 
HETATM   18  C   UNK N   1      26.806  29.526  -4.717  0.00  0.00     0.000 A 
HETATM   19  C   UNK N   1      27.381  28.795  -5.760  0.00  0.00     0.002 A 
HETATM   20  C   UNK N   1      27.263  27.401  -5.788  0.00  0.00     0.024 A 
ENDBRANCH  12  15
ENDBRANCH  11  12
ENDBRANCH   1  10
BRANCH   1  21
HETATM   21  N   UNK N   1      28.534  23.267  -2.537  0.00  0.00    -0.423 N 
HETATM   22  H   UNK N   1      28.740  22.445  -1.969  0.00  0.00     0.150 HD
HETATM   23  H   UNK N   1      27.601  23.638  -2.358  0.00  0.00     0.150 HD
ENDBRANCH   1  21
TORSDOF 7
ENDMDL
MODEL 8
REMARK VINA RESULT:      -5.2     21.475     23.395
REMARK  7 active torsions:
REMARK  status: ('A' for Active; 'I' for Inactive)
REMARK    1  A    between atoms: C_12  and  C_11 
REMARK    2  A    between atoms: C_15  and  C_11 
REMARK    3  A    between atoms: C_16  and  C_12 
REMARK    4  A    between atoms: C_16  and  C_13 
REMARK    5  A    between atoms: C_14  and  S_21 
REMARK    6  A    between atoms: C_16  and  N_18 
REMARK    7  A    between atoms: S_21  and  C_17 
ROOT
HETATM    1  C   UNK N   1      35.575  14.319  12.079  0.00  0.00     0.098 C 
ENDROOT
BRANCH   1   2
HETATM    2  C   UNK N   1      34.549  14.420  10.957  0.00  0.00     0.033 C 
BRANCH   2   3
HETATM    3  C   UNK N   1      35.096  15.354   9.882  0.00  0.00     0.041 C 
BRANCH   3   4
HETATM    4  C   UNK N   1      34.043  16.180   9.237  0.00  0.00    -0.058 A 
HETATM    5  C   UNK N   1      34.371  17.452   8.751  0.00  0.00     0.007 A 
HETATM    6  C   UNK N   1      33.409  18.223   8.098  0.00  0.00     0.001 A 
HETATM    7  C   UNK N   1      32.116  17.722   7.916  0.00  0.00     0.000 A 
HETATM    8  C   UNK N   1      31.786  16.449   8.397  0.00  0.00     0.001 A 
HETATM    9  C   UNK N   1      32.748  15.678   9.055  0.00  0.00     0.007 A 
ENDBRANCH   3   4
ENDBRANCH   2   3
ENDBRANCH   1   2
BRANCH   1  10
HETATM   10  C   UNK N   1      36.395  13.073  11.938  0.00  0.00     0.009 C 
HETATM   11  C   UNK N   1      36.582  12.182  12.927  0.00  0.00     0.112 C 
BRANCH  11  12
HETATM   12  S   UNK N   1      35.777  12.243  14.549  0.00  0.00     0.196 S 
HETATM   13  O   UNK N   1      35.858  10.883  15.256  0.00  0.00    -0.218 OA
HETATM   14  O   UNK N   1      34.268  12.259  14.264  0.00  0.00    -0.218 OA
BRANCH  12  15
HETATM   15  C   UNK N   1      36.073  13.517  15.774  0.00  0.00     0.063 A 
HETATM   16  C   UNK N   1      37.022  14.520  15.538  0.00  0.00     0.024 A 
HETATM   17  C   UNK N   1      37.248  15.512  16.497  0.00  0.00     0.002 A 
HETATM   18  C   UNK N   1      36.525  15.504  17.693  0.00  0.00     0.000 A 
HETATM   19  C   UNK N   1      35.576  14.505  17.930  0.00  0.00     0.002 A 
HETATM   20  C   UNK N   1      35.350  13.512  16.970  0.00  0.00     0.024 A 
ENDBRANCH  12  15
ENDBRANCH  11  12
ENDBRANCH   1  10
BRANCH   1  21
HETATM   21  N   UNK N   1      36.450  15.481  12.032  0.00  0.00    -0.423 N 
HETATM   22  H   UNK N   1      36.982  15.961  11.305  0.00  0.00     0.150 HD
HETATM   23  H   UNK N   1      36.559  15.921  12.945  0.00  0.00     0.150 HD
ENDBRANCH   1  21
TORSDOF 7
ENDMDL
MODEL 9
REMARK VINA RESULT:      -5.1     15.699     17.172
REMARK  7 active torsions:
REMARK  status: ('A' for Active; 'I' for Inactive)
REMARK    1  A    between atoms: C_12  and  C_11 
REMARK    2  A    between atoms: C_15  and  C_11 
REMARK    3  A    between atoms: C_16  and  C_12 
REMARK    4  A    between atoms: C_16  and  C_13 
REMARK    5  A    between atoms: C_14  and  S_21 
REMARK    6  A    between atoms: C_16  and  N_18 
REMARK    7  A    between atoms: S_21  and  C_17 
ROOT
HETATM    1  C   UNK N   1      21.810  15.643   5.962  0.00  0.00     0.098 C 
ENDROOT
BRANCH   1   2
HETATM    2  C   UNK N   1      22.730  16.443   5.048  0.00  0.00     0.033 C 
BRANCH   2   3
HETATM    3  C   UNK N   1      22.539  17.927   5.345  0.00  0.00     0.041 C 
BRANCH   3   4
HETATM    4  C   UNK N   1      21.977  18.684   4.198  0.00  0.00    -0.058 A 
HETATM    5  C   UNK N   1      20.644  18.474   3.825  0.00  0.00     0.007 A 
HETATM    6  C   UNK N   1      20.083  19.211   2.781  0.00  0.00     0.001 A 
HETATM    7  C   UNK N   1      20.848  20.172   2.112  0.00  0.00     0.000 A 
HETATM    8  C   UNK N   1      22.180  20.387   2.485  0.00  0.00     0.001 A 
HETATM    9  C   UNK N   1      22.744  19.646   3.527  0.00  0.00     0.007 A 
ENDBRANCH   3   4
ENDBRANCH   2   3
ENDBRANCH   1   2
BRANCH   1  10
HETATM   10  C   UNK N   1      21.286  16.502   7.071  0.00  0.00     0.009 C 
HETATM   11  C   UNK N   1      20.796  16.019   8.227  0.00  0.00     0.112 C 
BRANCH  11  12
HETATM   12  S   UNK N   1      20.808  14.274   8.714  0.00  0.00     0.196 S 
HETATM   13  O   UNK N   1      20.307  13.379   7.571  0.00  0.00    -0.218 OA
HETATM   14  O   UNK N   1      19.619  14.101   9.671  0.00  0.00    -0.218 OA
BRANCH  12  15
HETATM   15  C   UNK N   1      22.201  13.452   9.485  0.00  0.00     0.063 A 
HETATM   16  C   UNK N   1      22.029  12.733  10.674  0.00  0.00     0.024 A 
HETATM   17  C   UNK N   1      23.121  12.094  11.271  0.00  0.00     0.002 A 
HETATM   18  C   UNK N   1      24.385  12.172  10.680  0.00  0.00     0.000 A 
HETATM   19  C   UNK N   1      24.558  12.888   9.492  0.00  0.00     0.002 A 
HETATM   20  C   UNK N   1      23.466  13.527   8.894  0.00  0.00     0.024 A 
ENDBRANCH  12  15
ENDBRANCH  11  12
ENDBRANCH   1  10
BRANCH   1  21
HETATM   21  N   UNK N   1      20.694  15.127   5.182  0.00  0.00    -0.423 N 
HETATM   22  H   UNK N   1      20.301  15.319   4.261  0.00  0.00     0.150 HD
HETATM   23  H   UNK N   1      20.182  14.397   5.677  0.00  0.00     0.150 HD
ENDBRANCH   1  21
TORSDOF 7
ENDMDL
