MODEL 1
REMARK VINA RESULT:      -7.9      0.000      0.000
REMARK  11 active torsions:
REMARK  status: ('A' for Active; 'I' for Inactive)
REMARK    1  A    between atoms: C_3  and  C_2 
REMARK    2  A    between atoms: C_4  and  C_2 
REMARK    3  A    between atoms: C_5  and  C_3 
REMARK    4  A    between atoms: C_8  and  C_4 
REMARK    5  A    between atoms: C_9  and  C_5 
REMARK    6  A    between atoms: C_17  and  C_8 
REMARK    7  A    between atoms: C_18  and  C_9 
REMARK    8  A    between atoms: N_33  and  C_17 
REMARK    9  A    between atoms: N_34  and  C_18 
REMARK   10  A    between atoms: C_23  and  O_35 
REMARK   11  A    between atoms: O_38  and  C_26 
ROOT
HETATM    1  C   UNK N   1      21.627  16.231   6.657  0.00  0.00     0.016 C 
HETATM    2  C   UNK N   1      20.529  16.590   7.353  0.00  0.00     0.040 C 
HETATM    3  C   UNK N   1      24.628  12.497  10.442  0.00  0.00     0.002 C 
HETATM    4  C   UNK N   1      24.226  13.239   9.373  0.00  0.00    -0.011 C 
HETATM    5  C   UNK N   1      22.482  11.970   8.198  0.00  0.00     0.041 C 
HETATM    6  C   UNK N   1      22.712  12.058   6.679  0.00  0.00     0.123 C 
HETATM    7  C   UNK N   1      22.135  12.013  11.090  0.00  0.00     0.069 C 
HETATM    8  C   UNK N   1      23.147  14.425   6.105  0.00  0.00     0.097 C 
HETATM    9  C   UNK N   1      22.375  15.008   7.028  0.00  0.00    -0.011 C 
HETATM   10  C   UNK N   1      23.645  11.782  11.396  0.00  0.00     0.143 C 
HETATM   11  C   UNK N   1      20.065  15.781   8.514  0.00  0.00     0.102 C 
HETATM   12  C   UNK N   1      22.021  13.339  10.366  0.00  0.00     0.148 C 
HETATM   13  C   UNK N   1      22.072  14.379   8.330  0.00  0.00     0.005 C 
HETATM   14  C   UNK N   1      20.972  14.690   8.992  0.00  0.00     0.111 C 
HETATM   15  C   UNK N   1      22.765  13.241   9.008  0.00  0.00     0.036 C 
HETATM   16  N   UNK N   1      23.628  13.083   6.201  0.00  0.00    -0.389 N 
HETATM   17  O   UNK N   1      20.807  13.913  10.078  0.00  0.00    -0.341 OA
ENDROOT
BRANCH  16  18
HETATM   18  C   UNK N   1      24.542  12.642   5.174  0.00  0.00     0.122 C 
BRANCH  18  19
HETATM   19  C   UNK N   1      25.687  13.622   4.967  0.00  0.00     0.020 C 
BRANCH  19  20
HETATM   20  C   UNK N   1      26.266  13.470   3.577  0.00  0.00     0.002 C 
BRANCH  20  21
HETATM   21  C   UNK N   1      26.594  14.827   2.980  0.00  0.00     0.000 C 
BRANCH  21  22
HETATM   22  C   UNK N   1      25.823  15.029   1.686  0.00  0.00     0.000 C 
BRANCH  22  23
HETATM   23  C   UNK N   1      24.918  13.835   1.443  0.00  0.00     0.002 C 
BRANCH  23  24
HETATM   24  C   UNK N   1      23.500  14.307   1.168  0.00  0.00     0.020 C 
BRANCH  24  25
HETATM   25  C   UNK N   1      22.714  14.380   2.465  0.00  0.00     0.135 C 
BRANCH  25  26
HETATM   26  N   UNK N   1      22.111  15.683   2.628  0.00  0.00    -0.280 N 
HETATM   27  C   UNK N   1      20.886  16.039   2.182  0.00  0.00     0.261 A 
HETATM   28  C   UNK N   1      20.609  17.421   2.571  0.00  0.00     0.048 A 
HETATM   29  O   UNK N   1      20.138  15.299   1.560  0.00  0.00    -0.267 OA
HETATM   30  C   UNK N   1      19.501  18.239   2.372  0.00  0.00     0.018 A 
HETATM   31  C   UNK N   1      21.720  17.859   3.260  0.00  0.00     0.048 A 
HETATM   32  C   UNK N   1      19.547  19.543   2.900  0.00  0.00     0.001 A 
HETATM   33  C   UNK N   1      20.686  19.992   3.607  0.00  0.00     0.001 A 
HETATM   34  C   UNK N   1      21.792  19.142   3.794  0.00  0.00     0.018 A 
HETATM   35  C   UNK N   1      22.657  16.738   3.280  0.00  0.00     0.261 A 
HETATM   36  O   UNK N   1      23.755  16.726   3.813  0.00  0.00    -0.267 OA
ENDBRANCH  25  26
ENDBRANCH  24  25
ENDBRANCH  23  24
ENDBRANCH  22  23
ENDBRANCH  21  22
ENDBRANCH  20  21
ENDBRANCH  19  20
ENDBRANCH  18  19
ENDBRANCH  16  18
BRANCH  11  37
HETATM   37  O   UNK N   1      18.985  16.056   9.037  0.00  0.00    -0.353 OA
HETATM   38  C   UNK N   1      18.068  16.941   8.515  0.00  0.00     0.210 C 
ENDBRANCH  11  37
BRANCH  10  39
HETATM   39  O   UNK N   1      23.892  12.231  12.695  0.00  0.00    -0.392 OA
HETATM   40  H   UNK N   1      23.572  12.979  13.223  0.00  0.00     0.210 HD
ENDBRANCH  10  39
TORSDOF 11
ENDMDL
MODEL 2
REMARK VINA RESULT:      -7.6      2.031      2.575
REMARK  11 active torsions:
REMARK  status: ('A' for Active; 'I' for Inactive)
REMARK    1  A    between atoms: C_3  and  C_2 
REMARK    2  A    between atoms: C_4  and  C_2 
REMARK    3  A    between atoms: C_5  and  C_3 
REMARK    4  A    between atoms: C_8  and  C_4 
REMARK    5  A    between atoms: C_9  and  C_5 
REMARK    6  A    between atoms: C_17  and  C_8 
REMARK    7  A    between atoms: C_18  and  C_9 
REMARK    8  A    between atoms: N_33  and  C_17 
REMARK    9  A    between atoms: N_34  and  C_18 
REMARK   10  A    between atoms: C_23  and  O_35 
REMARK   11  A    between atoms: O_38  and  C_26 
ROOT
HETATM    1  C   UNK N   1      21.784  16.006   6.513  0.00  0.00     0.016 C 
HETATM    2  C   UNK N   1      20.625  16.318   7.127  0.00  0.00     0.040 C 
HETATM    3  C   UNK N   1      24.742  12.561  10.593  0.00  0.00     0.002 C 
HETATM    4  C   UNK N   1      24.369  13.247   9.478  0.00  0.00    -0.011 C 
HETATM    5  C   UNK N   1      22.779  11.847   8.236  0.00  0.00     0.041 C 
HETATM    6  C   UNK N   1      23.101  11.907   6.732  0.00  0.00     0.123 C 
HETATM    7  C   UNK N   1      22.244  11.948  11.098  0.00  0.00     0.069 C 
HETATM    8  C   UNK N   1      23.437  14.279   6.114  0.00  0.00     0.097 C 
HETATM    9  C   UNK N   1      22.575  14.840   6.968  0.00  0.00    -0.011 C 
HETATM   10  C   UNK N   1      23.742  11.815  11.505  0.00  0.00     0.143 C 
HETATM   11  C   UNK N   1      20.134  15.516   8.281  0.00  0.00     0.102 C 
HETATM   12  C   UNK N   1      22.102  13.245  10.327  0.00  0.00     0.148 C 
HETATM   13  C   UNK N   1      22.225  14.230   8.267  0.00  0.00     0.005 C 
HETATM   14  C   UNK N   1      21.068  14.494   8.848  0.00  0.00     0.111 C 
HETATM   15  C   UNK N   1      22.936  13.153   9.023  0.00  0.00     0.036 C 
HETATM   16  N   UNK N   1      23.987  12.970   6.282  0.00  0.00    -0.389 N 
HETATM   17  O   UNK N   1      20.878  13.738   9.945  0.00  0.00    -0.341 OA
ENDROOT
BRANCH  16  18
HETATM   18  C   UNK N   1      24.989  12.555   5.328  0.00  0.00     0.122 C 
BRANCH  18  19
HETATM   19  C   UNK N   1      26.359  13.130   5.652  0.00  0.00     0.020 C 
BRANCH  19  20
HETATM   20  C   UNK N   1      26.865  13.967   4.496  0.00  0.00     0.002 C 
BRANCH  20  21
HETATM   21  C   UNK N   1      28.151  14.683   4.873  0.00  0.00     0.000 C 
BRANCH  21  22
HETATM   22  C   UNK N   1      28.232  16.022   4.161  0.00  0.00     0.000 C 
BRANCH  22  23
HETATM   23  C   UNK N   1      26.863  16.680   4.161  0.00  0.00     0.002 C 
BRANCH  23  24
HETATM   24  C   UNK N   1      26.903  17.960   3.343  0.00  0.00     0.020 C 
BRANCH  24  25
HETATM   25  C   UNK N   1      26.327  19.112   4.147  0.00  0.00     0.135 C 
BRANCH  25  26
HETATM   26  N   UNK N   1      24.935  19.319   3.824  0.00  0.00    -0.280 N 
HETATM   27  C   UNK N   1      23.891  18.714   4.433  0.00  0.00     0.261 A 
HETATM   28  C   UNK N   1      22.639  19.207   3.861  0.00  0.00     0.048 A 
HETATM   29  O   UNK N   1      24.001  17.890   5.329  0.00  0.00    -0.267 OA
HETATM   30  C   UNK N   1      21.309  18.917   4.145  0.00  0.00     0.018 A 
HETATM   31  C   UNK N   1      22.991  20.124   2.893  0.00  0.00     0.048 A 
HETATM   32  C   UNK N   1      20.319  19.593   3.408  0.00  0.00     0.001 A 
HETATM   33  C   UNK N   1      20.680  20.534   2.415  0.00  0.00     0.001 A 
HETATM   34  C   UNK N   1      22.035  20.808   2.150  0.00  0.00     0.018 A 
HETATM   35  C   UNK N   1      24.452  20.175   2.889  0.00  0.00     0.261 A 
HETATM   36  O   UNK N   1      25.147  20.884   2.179  0.00  0.00    -0.267 OA
ENDBRANCH  25  26
ENDBRANCH  24  25
ENDBRANCH  23  24
ENDBRANCH  22  23
ENDBRANCH  21  22
ENDBRANCH  20  21
ENDBRANCH  19  20
ENDBRANCH  18  19
ENDBRANCH  16  18
BRANCH  11  37
HETATM   37  O   UNK N   1      19.008  15.741   8.726  0.00  0.00    -0.353 OA
HETATM   38  C   UNK N   1      18.536  16.990   9.060  0.00  0.00     0.210 C 
ENDBRANCH  11  37
BRANCH  10  39
HETATM   39  O   UNK N   1      23.878  12.313  12.802  0.00  0.00    -0.392 OA
HETATM   40  H   UNK N   1      24.411  12.057  13.571  0.00  0.00     0.210 HD
ENDBRANCH  10  39
TORSDOF 11
ENDMDL
MODEL 3
REMARK VINA RESULT:      -7.6      9.717     14.646
REMARK  11 active torsions:
REMARK  status: ('A' for Active; 'I' for Inactive)
REMARK    1  A    between atoms: C_3  and  C_2 
REMARK    2  A    between atoms: C_4  and  C_2 
REMARK    3  A    between atoms: C_5  and  C_3 
REMARK    4  A    between atoms: C_8  and  C_4 
REMARK    5  A    between atoms: C_9  and  C_5 
REMARK    6  A    between atoms: C_17  and  C_8 
REMARK    7  A    between atoms: C_18  and  C_9 
REMARK    8  A    between atoms: N_33  and  C_17 
REMARK    9  A    between atoms: N_34  and  C_18 
REMARK   10  A    between atoms: C_23  and  O_35 
REMARK   11  A    between atoms: O_38  and  C_26 
ROOT
HETATM    1  C   UNK N   1      29.581  17.217   8.319  0.00  0.00     0.016 C 
HETATM    2  C   UNK N   1      28.637  17.696   7.484  0.00  0.00     0.040 C 
HETATM    3  C   UNK N   1      33.680  14.638   4.602  0.00  0.00     0.002 C 
HETATM    4  C   UNK N   1      33.008  15.121   5.683  0.00  0.00    -0.011 C 
HETATM    5  C   UNK N   1      33.438  17.536   5.812  0.00  0.00     0.041 C 
HETATM    6  C   UNK N   1      33.702  17.937   7.274  0.00  0.00     0.123 C 
HETATM    7  C   UNK N   1      32.797  16.615   3.123  0.00  0.00     0.069 C 
HETATM    8  C   UNK N   1      31.956  16.894   8.683  0.00  0.00     0.097 C 
HETATM    9  C   UNK N   1      30.941  16.924   7.812  0.00  0.00    -0.011 C 
HETATM   10  C   UNK N   1      33.679  15.334   3.222  0.00  0.00     0.143 C 
HETATM   11  C   UNK N   1      28.936  17.915   6.041  0.00  0.00     0.102 C 
HETATM   12  C   UNK N   1      31.708  16.491   4.169  0.00  0.00     0.148 C 
HETATM   13  C   UNK N   1      31.142  16.882   6.350  0.00  0.00     0.005 C 
HETATM   14  C   UNK N   1      30.242  17.395   5.529  0.00  0.00     0.111 C 
HETATM   15  C   UNK N   1      32.356  16.474   5.578  0.00  0.00     0.036 C 
HETATM   16  N   UNK N   1      33.332  16.980   8.306  0.00  0.00    -0.389 N 
HETATM   17  O   UNK N   1      30.670  17.387   4.253  0.00  0.00    -0.341 OA
ENDROOT
BRANCH  16  18
HETATM   18  C   UNK N   1      34.308  16.821   9.358  0.00  0.00     0.122 C 
BRANCH  18  19
HETATM   19  C   UNK N   1      34.148  15.498  10.092  0.00  0.00     0.020 C 
BRANCH  19  20
HETATM   20  C   UNK N   1      35.222  14.523   9.660  0.00  0.00     0.002 C 
BRANCH  20  21
HETATM   21  C   UNK N   1      36.543  14.843  10.335  0.00  0.00     0.000 C 
BRANCH  21  22
HETATM   22  C   UNK N   1      37.070  13.617  11.062  0.00  0.00     0.000 C 
BRANCH  22  23
HETATM   23  C   UNK N   1      36.215  12.413  10.709  0.00  0.00     0.002 C 
BRANCH  23  24
HETATM   24  C   UNK N   1      36.322  11.363  11.804  0.00  0.00     0.020 C 
BRANCH  24  25
HETATM   25  C   UNK N   1      34.977  11.181  12.485  0.00  0.00     0.135 C 
BRANCH  25  26
HETATM   26  N   UNK N   1      35.080  11.435  13.903  0.00  0.00    -0.280 N 
HETATM   27  C   UNK N   1      35.042  12.655  14.484  0.00  0.00     0.261 A 
HETATM   28  C   UNK N   1      35.135  12.507  15.936  0.00  0.00     0.048 A 
HETATM   29  O   UNK N   1      34.938  13.707  13.870  0.00  0.00    -0.267 OA
HETATM   30  C   UNK N   1      35.126  13.439  16.968  0.00  0.00     0.018 A 
HETATM   31  C   UNK N   1      35.229  11.153  16.181  0.00  0.00     0.048 A 
HETATM   32  C   UNK N   1      35.216  12.956  18.287  0.00  0.00     0.001 A 
HETATM   33  C   UNK N   1      35.312  11.568  18.538  0.00  0.00     0.001 A 
HETATM   34  C   UNK N   1      35.318  10.648  17.474  0.00  0.00     0.018 A 
HETATM   35  C   UNK N   1      35.193  10.497  14.875  0.00  0.00     0.261 A 
HETATM   36  O   UNK N   1      35.236   9.295  14.671  0.00  0.00    -0.267 OA
ENDBRANCH  25  26
ENDBRANCH  24  25
ENDBRANCH  23  24
ENDBRANCH  22  23
ENDBRANCH  21  22
ENDBRANCH  20  21
ENDBRANCH  19  20
ENDBRANCH  18  19
ENDBRANCH  16  18
BRANCH  11  37
HETATM   37  O   UNK N   1      28.099  18.484   5.340  0.00  0.00    -0.353 OA
HETATM   38  C   UNK N   1      28.172  19.802   4.950  0.00  0.00     0.210 C 
ENDBRANCH  11  37
BRANCH  10  39
HETATM   39  O   UNK N   1      33.215  14.421   2.273  0.00  0.00    -0.392 OA
HETATM   40  H   UNK N   1      33.516  13.551   1.970  0.00  0.00     0.210 HD
ENDBRANCH  10  39
TORSDOF 11
ENDMDL
MODEL 4
REMARK VINA RESULT:      -7.5     15.167     18.184
REMARK  11 active torsions:
REMARK  status: ('A' for Active; 'I' for Inactive)
REMARK    1  A    between atoms: C_3  and  C_2 
REMARK    2  A    between atoms: C_4  and  C_2 
REMARK    3  A    between atoms: C_5  and  C_3 
REMARK    4  A    between atoms: C_8  and  C_4 
REMARK    5  A    between atoms: C_9  and  C_5 
REMARK    6  A    between atoms: C_17  and  C_8 
REMARK    7  A    between atoms: C_18  and  C_9 
REMARK    8  A    between atoms: N_33  and  C_17 
REMARK    9  A    between atoms: N_34  and  C_18 
REMARK   10  A    between atoms: C_23  and  O_35 
REMARK   11  A    between atoms: O_38  and  C_26 
ROOT
HETATM    1  C   UNK N   1      29.891  25.996  -8.858  0.00  0.00     0.016 C 
HETATM    2  C   UNK N   1      30.074  27.303  -9.136  0.00  0.00     0.040 C 
HETATM    3  C   UNK N   1      26.718  26.020  -3.642  0.00  0.00     0.002 C 
HETATM    4  C   UNK N   1      27.376  25.658  -4.777  0.00  0.00    -0.011 C 
HETATM    5  C   UNK N   1      25.835  25.963  -6.665  0.00  0.00     0.041 C 
HETATM    6  C   UNK N   1      25.948  24.765  -7.624  0.00  0.00     0.123 C 
HETATM    7  C   UNK N   1      25.843  28.203  -4.802  0.00  0.00     0.069 C 
HETATM    8  C   UNK N   1      28.350  24.323  -8.021  0.00  0.00     0.097 C 
HETATM    9  C   UNK N   1      28.807  25.577  -7.940  0.00  0.00    -0.011 C 
HETATM   10  C   UNK N   1      25.861  27.302  -3.531  0.00  0.00     0.143 C 
HETATM   11  C   UNK N   1      29.210  28.343  -8.511  0.00  0.00     0.102 C 
HETATM   12  C   UNK N   1      27.128  27.935  -5.559  0.00  0.00     0.148 C 
HETATM   13  C   UNK N   1      28.148  26.617  -7.125  0.00  0.00     0.005 C 
HETATM   14  C   UNK N   1      28.283  27.897  -7.425  0.00  0.00     0.111 C 
HETATM   15  C   UNK N   1      27.141  26.458  -6.031  0.00  0.00     0.036 C 
HETATM   16  N   UNK N   1      27.103  23.893  -7.470  0.00  0.00    -0.389 N 
HETATM   17  O   UNK N   1      27.497  28.674  -6.657  0.00  0.00    -0.341 OA
ENDROOT
BRANCH  16  18
HETATM   18  C   UNK N   1      26.807  22.482  -7.548  0.00  0.00     0.122 C 
BRANCH  18  19
HETATM   19  C   UNK N   1      27.711  21.761  -8.536  0.00  0.00     0.020 C 
BRANCH  19  20
HETATM   20  C   UNK N   1      28.304  20.522  -7.901  0.00  0.00     0.002 C 
BRANCH  20  21
HETATM   21  C   UNK N   1      29.328  20.896  -6.844  0.00  0.00     0.000 C 
BRANCH  21  22
HETATM   22  C   UNK N   1      30.515  19.949  -6.908  0.00  0.00     0.000 C 
BRANCH  22  23
HETATM   23  C   UNK N   1      31.361  20.112  -5.658  0.00  0.00     0.002 C 
BRANCH  23  24
HETATM   24  C   UNK N   1      30.664  21.042  -4.678  0.00  0.00     0.020 C 
BRANCH  24  25
HETATM   25  C   UNK N   1      31.693  21.814  -3.871  0.00  0.00     0.135 C 
BRANCH  25  26
HETATM   26  N   UNK N   1      31.568  23.234  -4.103  0.00  0.00    -0.280 N 
HETATM   27  C   UNK N   1      32.063  23.899  -5.171  0.00  0.00     0.261 A 
HETATM   28  C   UNK N   1      31.702  25.312  -5.075  0.00  0.00     0.048 A 
HETATM   29  O   UNK N   1      32.705  23.376  -6.070  0.00  0.00    -0.267 OA
HETATM   30  C   UNK N   1      31.952  26.395  -5.912  0.00  0.00     0.018 A 
HETATM   31  C   UNK N   1      30.976  25.448  -3.911  0.00  0.00     0.048 A 
HETATM   32  C   UNK N   1      31.438  27.649  -5.533  0.00  0.00     0.001 A 
HETATM   33  C   UNK N   1      30.693  27.788  -4.339  0.00  0.00     0.001 A 
HETATM   34  C   UNK N   1      30.455  26.675  -3.512  0.00  0.00     0.018 A 
HETATM   35  C   UNK N   1      30.907  24.116  -3.314  0.00  0.00     0.261 A 
HETATM   36  O   UNK N   1      30.333  23.819  -2.278  0.00  0.00    -0.267 OA
ENDBRANCH  25  26
ENDBRANCH  24  25
ENDBRANCH  23  24
ENDBRANCH  22  23
ENDBRANCH  21  22
ENDBRANCH  20  21
ENDBRANCH  19  20
ENDBRANCH  18  19
ENDBRANCH  16  18
BRANCH  11  37
HETATM   37  O   UNK N   1      29.311  29.509  -8.895  0.00  0.00    -0.353 OA
HETATM   38  C   UNK N   1      30.116  30.457  -8.305  0.00  0.00     0.210 C 
ENDBRANCH  11  37
BRANCH  10  39
HETATM   39  O   UNK N   1      26.353  28.066  -2.471  0.00  0.00    -0.392 OA
HETATM   40  H   UNK N   1      27.002  28.783  -2.401  0.00  0.00     0.210 HD
ENDBRANCH  10  39
TORSDOF 11
ENDMDL
MODEL 5
REMARK VINA RESULT:      -7.5      4.033      6.323
REMARK  11 active torsions:
REMARK  status: ('A' for Active; 'I' for Inactive)
REMARK    1  A    between atoms: C_3  and  C_2 
REMARK    2  A    between atoms: C_4  and  C_2 
REMARK    3  A    between atoms: C_5  and  C_3 
REMARK    4  A    between atoms: C_8  and  C_4 
REMARK    5  A    between atoms: C_9  and  C_5 
REMARK    6  A    between atoms: C_17  and  C_8 
REMARK    7  A    between atoms: C_18  and  C_9 
REMARK    8  A    between atoms: N_33  and  C_17 
REMARK    9  A    between atoms: N_34  and  C_18 
REMARK   10  A    between atoms: C_23  and  O_35 
REMARK   11  A    between atoms: O_38  and  C_26 
ROOT
HETATM    1  C   UNK N   1      20.979  16.297   6.722  0.00  0.00     0.016 C 
HETATM    2  C   UNK N   1      19.937  16.562   7.536  0.00  0.00     0.040 C 
HETATM    3  C   UNK N   1      24.584  12.673  10.060  0.00  0.00     0.002 C 
HETATM    4  C   UNK N   1      24.028  13.414   9.063  0.00  0.00    -0.011 C 
HETATM    5  C   UNK N   1      22.259  12.063   8.025  0.00  0.00     0.041 C 
HETATM    6  C   UNK N   1      22.327  12.209   6.494  0.00  0.00     0.123 C 
HETATM    7  C   UNK N   1      22.205  12.003  10.937  0.00  0.00     0.069 C 
HETATM    8  C   UNK N   1      22.548  14.615   5.960  0.00  0.00     0.097 C 
HETATM    9  C   UNK N   1      21.838  15.118   6.975  0.00  0.00    -0.011 C 
HETATM   10  C   UNK N   1      23.751  11.867  11.083  0.00  0.00     0.143 C 
HETATM   11  C   UNK N   1      19.646  15.692   8.710  0.00  0.00     0.102 C 
HETATM   12  C   UNK N   1      21.933  13.338  10.273  0.00  0.00     0.148 C 
HETATM   13  C   UNK N   1      21.711  14.435   8.279  0.00  0.00     0.005 C 
HETATM   14  C   UNK N   1      20.665  14.653   9.057  0.00  0.00     0.111 C 
HETATM   15  C   UNK N   1      22.541  13.328   8.846  0.00  0.00     0.036 C 
HETATM   16  N   UNK N   1      23.123  13.305   5.963  0.00  0.00    -0.389 N 
HETATM   17  O   UNK N   1      20.662  13.836  10.127  0.00  0.00    -0.341 OA
ENDROOT
BRANCH  16  18
HETATM   18  C   UNK N   1      23.954  12.956   4.835  0.00  0.00     0.122 C 
BRANCH  18  19
HETATM   19  C   UNK N   1      25.059  11.983   5.218  0.00  0.00     0.020 C 
BRANCH  19  20
HETATM   20  C   UNK N   1      26.412  12.551   4.850  0.00  0.00     0.002 C 
BRANCH  20  21
HETATM   21  C   UNK N   1      26.260  13.877   4.125  0.00  0.00     0.000 C 
BRANCH  21  22
HETATM   22  C   UNK N   1      27.095  13.878   2.856  0.00  0.00     0.000 C 
BRANCH  22  23
HETATM   23  C   UNK N   1      27.942  15.137   2.808  0.00  0.00     0.002 C 
BRANCH  23  24
HETATM   24  C   UNK N   1      28.464  15.464   4.197  0.00  0.00     0.020 C 
BRANCH  24  25
HETATM   25  C   UNK N   1      28.907  16.915   4.260  0.00  0.00     0.135 C 
BRANCH  25  26
HETATM   26  N   UNK N   1      30.061  17.064   5.116  0.00  0.00    -0.280 N 
HETATM   27  C   UNK N   1      31.347  17.087   4.699  0.00  0.00     0.261 A 
HETATM   28  C   UNK N   1      32.228  17.294   5.846  0.00  0.00     0.048 A 
HETATM   29  O   UNK N   1      31.695  16.961   3.534  0.00  0.00    -0.267 OA
HETATM   30  C   UNK N   1      33.611  17.407   5.949  0.00  0.00     0.018 A 
HETATM   31  C   UNK N   1      31.409  17.391   6.951  0.00  0.00     0.048 A 
HETATM   32  C   UNK N   1      34.157  17.626   7.228  0.00  0.00     0.001 A 
HETATM   33  C   UNK N   1      33.316  17.725   8.360  0.00  0.00     0.001 A 
HETATM   34  C   UNK N   1      31.921  17.608   8.226  0.00  0.00     0.018 A 
HETATM   35  C   UNK N   1      30.041  17.240   6.460  0.00  0.00     0.261 A 
HETATM   36  O   UNK N   1      29.024  17.284   7.134  0.00  0.00    -0.267 OA
ENDBRANCH  25  26
ENDBRANCH  24  25
ENDBRANCH  23  24
ENDBRANCH  22  23
ENDBRANCH  21  22
ENDBRANCH  20  21
ENDBRANCH  19  20
ENDBRANCH  18  19
ENDBRANCH  16  18
BRANCH  11  37
HETATM   37  O   UNK N   1      18.609  15.879   9.346  0.00  0.00    -0.353 OA
HETATM   38  C   UNK N   1      17.898  17.058   9.352  0.00  0.00     0.210 C 
ENDBRANCH  11  37
BRANCH  10  39
HETATM   39  O   UNK N   1      24.099  12.296  12.365  0.00  0.00    -0.392 OA
HETATM   40  H   UNK N   1      24.089  11.881  13.241  0.00  0.00     0.210 HD
ENDBRANCH  10  39
TORSDOF 11
ENDMDL
MODEL 6
REMARK VINA RESULT:      -7.3      2.701      6.249
REMARK  11 active torsions:
REMARK  status: ('A' for Active; 'I' for Inactive)
REMARK    1  A    between atoms: C_3  and  C_2 
REMARK    2  A    between atoms: C_4  and  C_2 
REMARK    3  A    between atoms: C_5  and  C_3 
REMARK    4  A    between atoms: C_8  and  C_4 
REMARK    5  A    between atoms: C_9  and  C_5 
REMARK    6  A    between atoms: C_17  and  C_8 
REMARK    7  A    between atoms: C_18  and  C_9 
REMARK    8  A    between atoms: N_33  and  C_17 
REMARK    9  A    between atoms: N_34  and  C_18 
REMARK   10  A    between atoms: C_23  and  O_35 
REMARK   11  A    between atoms: O_38  and  C_26 
ROOT
HETATM    1  C   UNK N   1      19.762  12.550   5.132  0.00  0.00     0.016 C 
HETATM    2  C   UNK N   1      19.245  12.736   3.901  0.00  0.00     0.040 C 
HETATM    3  C   UNK N   1      24.329  16.589   5.445  0.00  0.00     0.002 C 
HETATM    4  C   UNK N   1      23.406  15.627   5.718  0.00  0.00    -0.011 C 
HETATM    5  C   UNK N   1      21.291  16.753   6.256  0.00  0.00     0.041 C 
HETATM    6  C   UNK N   1      20.633  16.068   7.468  0.00  0.00     0.123 C 
HETATM    7  C   UNK N   1      22.619  17.845   3.905  0.00  0.00     0.069 C 
HETATM    8  C   UNK N   1      20.697  13.623   7.095  0.00  0.00     0.097 C 
HETATM    9  C   UNK N   1      20.578  13.613   5.763  0.00  0.00    -0.011 C 
HETATM   10  C   UNK N   1      24.040  17.811   4.543  0.00  0.00     0.143 C 
HETATM   11  C   UNK N   1      19.501  13.996   3.149  0.00  0.00     0.102 C 
HETATM   12  C   UNK N   1      22.133  16.413   3.815  0.00  0.00     0.148 C 
HETATM   13  C   UNK N   1      21.048  14.724   4.910  0.00  0.00     0.005 C 
HETATM   14  C   UNK N   1      20.508  14.940   3.724  0.00  0.00     0.111 C 
HETATM   15  C   UNK N   1      21.991  15.835   5.247  0.00  0.00     0.036 C 
HETATM   16  N   UNK N   1      21.137  14.756   7.847  0.00  0.00    -0.389 N 
HETATM   17  O   UNK N   1      20.971  16.075   3.166  0.00  0.00    -0.341 OA
ENDROOT
BRANCH  16  18
HETATM   18  C   UNK N   1      21.316  14.567   9.268  0.00  0.00     0.122 C 
BRANCH  18  19
HETATM   19  C   UNK N   1      21.126  13.115   9.680  0.00  0.00     0.020 C 
BRANCH  19  20
HETATM   20  C   UNK N   1      22.297  12.648  10.517  0.00  0.00     0.002 C 
BRANCH  20  21
HETATM   21  C   UNK N   1      23.352  11.990   9.645  0.00  0.00     0.000 C 
BRANCH  21  22
HETATM   22  C   UNK N   1      24.508  12.948   9.411  0.00  0.00     0.000 C 
BRANCH  22  23
HETATM   23  C   UNK N   1      24.824  13.008   7.927  0.00  0.00     0.002 C 
BRANCH  23  24
HETATM   24  C   UNK N   1      23.947  12.023   7.170  0.00  0.00     0.020 C 
BRANCH  24  25
HETATM   25  C   UNK N   1      24.732  11.394   6.033  0.00  0.00     0.135 C 
BRANCH  25  26
HETATM   26  N   UNK N   1      24.351  11.971   4.765  0.00  0.00    -0.280 N 
HETATM   27  C   UNK N   1      23.282  11.599   4.025  0.00  0.00     0.261 A 
HETATM   28  C   UNK N   1      23.201  12.436   2.830  0.00  0.00     0.048 A 
HETATM   29  O   UNK N   1      22.511  10.702   4.333  0.00  0.00    -0.267 OA
HETATM   30  C   UNK N   1      22.294  12.468   1.776  0.00  0.00     0.018 A 
HETATM   31  C   UNK N   1      24.264  13.312   2.899  0.00  0.00     0.048 A 
HETATM   32  C   UNK N   1      22.494  13.430   0.768  0.00  0.00     0.001 A 
HETATM   33  C   UNK N   1      23.584  14.328   0.839  0.00  0.00     0.001 A 
HETATM   34  C   UNK N   1      24.485  14.274   1.918  0.00  0.00     0.018 A 
HETATM   35  C   UNK N   1      24.977  12.994   4.134  0.00  0.00     0.261 A 
HETATM   36  O   UNK N   1      25.970  13.562   4.560  0.00  0.00    -0.267 OA
ENDBRANCH  25  26
ENDBRANCH  24  25
ENDBRANCH  23  24
ENDBRANCH  22  23
ENDBRANCH  21  22
ENDBRANCH  20  21
ENDBRANCH  19  20
ENDBRANCH  18  19
ENDBRANCH  16  18
BRANCH  11  37
HETATM   37  O   UNK N   1      18.899  14.190   2.092  0.00  0.00    -0.353 OA
HETATM   38  C   UNK N   1      18.584  13.207   1.181  0.00  0.00     0.210 C 
ENDBRANCH  11  37
BRANCH  10  39
HETATM   39  O   UNK N   1      24.975  17.820   3.506  0.00  0.00    -0.392 OA
HETATM   40  H   UNK N   1      25.780  18.330   3.327  0.00  0.00     0.210 HD
ENDBRANCH  10  39
TORSDOF 11
ENDMDL
MODEL 7
REMARK VINA RESULT:      -7.3     10.213     13.190
REMARK  11 active torsions:
REMARK  status: ('A' for Active; 'I' for Inactive)
REMARK    1  A    between atoms: C_3  and  C_2 
REMARK    2  A    between atoms: C_4  and  C_2 
REMARK    3  A    between atoms: C_5  and  C_3 
REMARK    4  A    between atoms: C_8  and  C_4 
REMARK    5  A    between atoms: C_9  and  C_5 
REMARK    6  A    between atoms: C_17  and  C_8 
REMARK    7  A    between atoms: C_18  and  C_9 
REMARK    8  A    between atoms: N_33  and  C_17 
REMARK    9  A    between atoms: N_34  and  C_18 
REMARK   10  A    between atoms: C_23  and  O_35 
REMARK   11  A    between atoms: O_38  and  C_26 
ROOT
HETATM    1  C   UNK N   1      34.098  10.128  13.347  0.00  0.00     0.016 C 
HETATM    2  C   UNK N   1      33.988  10.707  14.560  0.00  0.00     0.040 C 
HETATM    3  C   UNK N   1      34.848  14.830   9.526  0.00  0.00     0.002 C 
HETATM    4  C   UNK N   1      34.729  13.590  10.076  0.00  0.00    -0.011 C 
HETATM    5  C   UNK N   1      36.894  13.009  11.079  0.00  0.00     0.041 C 
HETATM    6  C   UNK N   1      37.238  11.544  10.755  0.00  0.00     0.123 C 
HETATM    7  C   UNK N   1      36.023  15.720  11.694  0.00  0.00     0.069 C 
HETATM    8  C   UNK N   1      35.233  10.167  11.206  0.00  0.00     0.097 C 
HETATM    9  C   UNK N   1      34.727  10.866  12.228  0.00  0.00    -0.011 C 
HETATM   10  C   UNK N   1      35.525  16.017  10.247  0.00  0.00     0.143 C 
HETATM   11  C   UNK N   1      34.472  12.097  14.789  0.00  0.00     0.102 C 
HETATM   12  C   UNK N   1      35.175  14.587  12.236  0.00  0.00     0.148 C 
HETATM   13  C   UNK N   1      34.947  12.317  12.391  0.00  0.00     0.005 C 
HETATM   14  C   UNK N   1      34.890  12.880  13.585  0.00  0.00     0.111 C 
HETATM   15  C   UNK N   1      35.423  13.315  11.384  0.00  0.00     0.036 C 
HETATM   16  N   UNK N   1      36.162  10.700  10.259  0.00  0.00    -0.389 N 
HETATM   17  O   UNK N   1      35.257  14.174  13.543  0.00  0.00    -0.341 OA
ENDROOT
BRANCH  16  18
HETATM   18  C   UNK N   1      36.526   9.848   9.151  0.00  0.00     0.122 C 
BRANCH  18  19
HETATM   19  C   UNK N   1      35.532   9.944   8.004  0.00  0.00     0.020 C 
BRANCH  19  20
HETATM   20  C   UNK N   1      35.640  11.292   7.325  0.00  0.00     0.002 C 
BRANCH  20  21
HETATM   21  C   UNK N   1      34.273  11.788   6.892  0.00  0.00     0.000 C 
BRANCH  21  22
HETATM   22  C   UNK N   1      34.405  12.701   5.684  0.00  0.00     0.000 C 
BRANCH  22  23
HETATM   23  C   UNK N   1      35.768  13.371   5.703  0.00  0.00     0.002 C 
BRANCH  23  24
HETATM   24  C   UNK N   1      35.634  14.803   6.194  0.00  0.00     0.020 C 
BRANCH  24  25
HETATM   25  C   UNK N   1      34.650  15.564   5.323  0.00  0.00     0.135 C 
BRANCH  25  26
HETATM   26  N   UNK N   1      33.571  16.103   6.117  0.00  0.00    -0.280 N 
HETATM   27  C   UNK N   1      33.672  17.148   6.969  0.00  0.00     0.261 A 
HETATM   28  C   UNK N   1      32.363  17.426   7.558  0.00  0.00     0.048 A 
HETATM   29  O   UNK N   1      34.708  17.757   7.191  0.00  0.00    -0.267 OA
HETATM   30  C   UNK N   1      31.937  18.390   8.465  0.00  0.00     0.018 A 
HETATM   31  C   UNK N   1      31.492  16.503   7.017  0.00  0.00     0.048 A 
HETATM   32  C   UNK N   1      30.576  18.398   8.822  0.00  0.00     0.001 A 
HETATM   33  C   UNK N   1      29.683  17.452   8.267  0.00  0.00     0.001 A 
HETATM   34  C   UNK N   1      30.142  16.488   7.350  0.00  0.00     0.018 A 
HETATM   35  C   UNK N   1      32.284  15.677   6.109  0.00  0.00     0.261 A 
HETATM   36  O   UNK N   1      31.868  14.755   5.425  0.00  0.00    -0.267 OA
ENDBRANCH  25  26
ENDBRANCH  24  25
ENDBRANCH  23  24
ENDBRANCH  22  23
ENDBRANCH  21  22
ENDBRANCH  20  21
ENDBRANCH  19  20
ENDBRANCH  18  19
ENDBRANCH  16  18
BRANCH  11  37
HETATM   37  O   UNK N   1      34.485  12.540  15.938  0.00  0.00    -0.353 OA
HETATM   38  C   UNK N   1      35.609  12.629  16.728  0.00  0.00     0.210 C 
ENDBRANCH  11  37
BRANCH  10  39
HETATM   39  O   UNK N   1      34.608  17.067  10.318  0.00  0.00    -0.392 OA
HETATM   40  H   UNK N   1      33.679  17.135  10.588  0.00  0.00     0.210 HD
ENDBRANCH  10  39
TORSDOF 11
ENDMDL
MODEL 8
REMARK VINA RESULT:      -7.1     14.577     17.339
REMARK  11 active torsions:
REMARK  status: ('A' for Active; 'I' for Inactive)
REMARK    1  A    between atoms: C_3  and  C_2 
REMARK    2  A    between atoms: C_4  and  C_2 
REMARK    3  A    between atoms: C_5  and  C_3 
REMARK    4  A    between atoms: C_8  and  C_4 
REMARK    5  A    between atoms: C_9  and  C_5 
REMARK    6  A    between atoms: C_17  and  C_8 
REMARK    7  A    between atoms: C_18  and  C_9 
REMARK    8  A    between atoms: N_33  and  C_17 
REMARK    9  A    between atoms: N_34  and  C_18 
REMARK   10  A    between atoms: C_23  and  O_35 
REMARK   11  A    between atoms: O_38  and  C_26 
ROOT
HETATM    1  C   UNK N   1      29.289  27.601  -6.055  0.00  0.00     0.016 C 
HETATM    2  C   UNK N   1      30.125  28.222  -5.198  0.00  0.00     0.040 C 
HETATM    3  C   UNK N   1      29.984  21.673  -4.771  0.00  0.00     0.002 C 
HETATM    4  C   UNK N   1      29.579  22.867  -5.283  0.00  0.00    -0.011 C 
HETATM    5  C   UNK N   1      27.986  23.858  -3.698  0.00  0.00     0.041 C 
HETATM    6  C   UNK N   1      26.797  24.461  -4.468  0.00  0.00     0.123 C 
HETATM    7  C   UNK N   1      30.368  22.770  -2.421  0.00  0.00     0.069 C 
HETATM    8  C   UNK N   1      27.697  25.797  -6.346  0.00  0.00     0.097 C 
HETATM    9  C   UNK N   1      28.829  26.222  -5.775  0.00  0.00    -0.011 C 
HETATM   10  C   UNK N   1      30.393  21.479  -3.293  0.00  0.00     0.143 C 
HETATM   11  C   UNK N   1      30.615  27.528  -3.975  0.00  0.00     0.102 C 
HETATM   12  C   UNK N   1      30.566  23.946  -3.355  0.00  0.00     0.148 C 
HETATM   13  C   UNK N   1      29.529  25.457  -4.722  0.00  0.00     0.005 C 
HETATM   14  C   UNK N   1      30.309  26.069  -3.849  0.00  0.00     0.111 C 
HETATM   15  C   UNK N   1      29.370  24.021  -4.339  0.00  0.00     0.036 C 
HETATM   16  N   UNK N   1      26.959  24.656  -5.900  0.00  0.00    -0.389 N 
HETATM   17  O   UNK N   1      30.740  25.227  -2.891  0.00  0.00    -0.341 OA
ENDROOT
BRANCH  16  18
HETATM   18  C   UNK N   1      25.818  24.265  -6.695  0.00  0.00     0.122 C 
BRANCH  18  19
HETATM   19  C   UNK N   1      26.208  23.351  -7.846  0.00  0.00     0.020 C 
BRANCH  19  20
HETATM   20  C   UNK N   1      26.913  22.117  -7.323  0.00  0.00     0.002 C 
BRANCH  20  21
HETATM   21  C   UNK N   1      27.821  21.526  -8.386  0.00  0.00     0.000 C 
BRANCH  21  22
HETATM   22  C   UNK N   1      28.360  20.182  -7.925  0.00  0.00     0.000 C 
BRANCH  22  23
HETATM   23  C   UNK N   1      29.630  19.856  -8.690  0.00  0.00     0.002 C 
BRANCH  23  24
HETATM   24  C   UNK N   1      30.767  19.588  -7.717  0.00  0.00     0.020 C 
BRANCH  24  25
HETATM   25  C   UNK N   1      32.069  20.137  -8.273  0.00  0.00     0.135 C 
BRANCH  25  26
HETATM   26  N   UNK N   1      32.394  21.406  -7.664  0.00  0.00    -0.280 N 
HETATM   27  C   UNK N   1      32.045  22.619  -8.149  0.00  0.00     0.261 A 
HETATM   28  C   UNK N   1      32.516  23.661  -7.239  0.00  0.00     0.048 A 
HETATM   29  O   UNK N   1      31.422  22.791  -9.186  0.00  0.00    -0.267 OA
HETATM   30  C   UNK N   1      32.402  25.047  -7.274  0.00  0.00     0.018 A 
HETATM   31  C   UNK N   1      33.155  23.012  -6.204  0.00  0.00     0.048 A 
HETATM   32  C   UNK N   1      32.964  25.778  -6.210  0.00  0.00     0.001 A 
HETATM   33  C   UNK N   1      33.619  25.111  -5.149  0.00  0.00     0.001 A 
HETATM   34  C   UNK N   1      33.719  23.708  -5.139  0.00  0.00     0.018 A 
HETATM   35  C   UNK N   1      33.064  21.583  -6.499  0.00  0.00     0.261 A 
HETATM   36  O   UNK N   1      33.499  20.675  -5.809  0.00  0.00    -0.267 OA
ENDBRANCH  25  26
ENDBRANCH  24  25
ENDBRANCH  23  24
ENDBRANCH  22  23
ENDBRANCH  21  22
ENDBRANCH  20  21
ENDBRANCH  19  20
ENDBRANCH  18  19
ENDBRANCH  16  18
BRANCH  11  37
HETATM   37  O   UNK N   1      31.261  28.170  -3.145  0.00  0.00    -0.353 OA
HETATM   38  C   UNK N   1      32.221  29.106  -3.458  0.00  0.00     0.210 C 
ENDBRANCH  11  37
BRANCH  10  39
HETATM   39  O   UNK N   1      31.691  20.967  -3.261  0.00  0.00    -0.392 OA
HETATM   40  H   UNK N   1      32.086  20.150  -2.920  0.00  0.00     0.210 HD
ENDBRANCH  10  39
TORSDOF 11
ENDMDL
MODEL 9
REMARK VINA RESULT:      -7.1      9.613     13.772
REMARK  11 active torsions:
REMARK  status: ('A' for Active; 'I' for Inactive)
REMARK    1  A    between atoms: C_3  and  C_2 
REMARK    2  A    between atoms: C_4  and  C_2 
REMARK    3  A    between atoms: C_5  and  C_3 
REMARK    4  A    between atoms: C_8  and  C_4 
REMARK    5  A    between atoms: C_9  and  C_5 
REMARK    6  A    between atoms: C_17  and  C_8 
REMARK    7  A    between atoms: C_18  and  C_9 
REMARK    8  A    between atoms: N_33  and  C_17 
REMARK    9  A    between atoms: N_34  and  C_18 
REMARK   10  A    between atoms: C_23  and  O_35 
REMARK   11  A    between atoms: O_38  and  C_26 
ROOT
HETATM    1  C   UNK N   1      29.790  17.191   8.434  0.00  0.00     0.016 C 
HETATM    2  C   UNK N   1      28.768  17.583   7.647  0.00  0.00     0.040 C 
HETATM    3  C   UNK N   1      33.755  14.642   4.553  0.00  0.00     0.002 C 
HETATM    4  C   UNK N   1      33.133  15.142   5.657  0.00  0.00    -0.011 C 
HETATM    5  C   UNK N   1      33.445  17.578   5.650  0.00  0.00     0.041 C 
HETATM    6  C   UNK N   1      33.787  18.060   7.072  0.00  0.00     0.123 C 
HETATM    7  C   UNK N   1      32.672  16.502   3.056  0.00  0.00     0.069 C 
HETATM    8  C   UNK N   1      32.197  17.001   8.644  0.00  0.00     0.097 C 
HETATM    9  C   UNK N   1      31.126  16.940   7.846  0.00  0.00    -0.011 C 
HETATM   10  C   UNK N   1      33.623  15.272   3.148  0.00  0.00     0.143 C 
HETATM   11  C   UNK N   1      28.956  17.749   6.179  0.00  0.00     0.102 C 
HETATM   12  C   UNK N   1      31.664  16.375   4.180  0.00  0.00     0.148 C 
HETATM   13  C   UNK N   1      31.228  16.840   6.376  0.00  0.00     0.005 C 
HETATM   14  C   UNK N   1      30.250  17.270   5.599  0.00  0.00     0.111 C 
HETATM   15  C   UNK N   1      32.407  16.456   5.539  0.00  0.00     0.036 C 
HETATM   16  N   UNK N   1      33.539  17.136   8.167  0.00  0.00    -0.389 N 
HETATM   17  O   UNK N   1      30.590  17.222   4.298  0.00  0.00    -0.341 OA
ENDROOT
BRANCH  16  18
HETATM   18  C   UNK N   1      34.591  17.074   9.154  0.00  0.00     0.122 C 
BRANCH  18  19
HETATM   19  C   UNK N   1      34.950  15.642   9.519  0.00  0.00     0.020 C 
BRANCH  19  20
HETATM   20  C   UNK N   1      35.837  15.617  10.746  0.00  0.00     0.002 C 
BRANCH  20  21
HETATM   21  C   UNK N   1      35.131  14.937  11.905  0.00  0.00     0.000 C 
BRANCH  21  22
HETATM   22  C   UNK N   1      36.124  14.633  13.015  0.00  0.00     0.000 C 
BRANCH  22  23
HETATM   23  C   UNK N   1      35.847  13.251  13.578  0.00  0.00     0.002 C 
BRANCH  23  24
HETATM   24  C   UNK N   1      35.012  12.447  12.594  0.00  0.00     0.020 C 
BRANCH  24  25
HETATM   25  C   UNK N   1      35.881  11.420  11.890  0.00  0.00     0.135 C 
BRANCH  25  26
HETATM   26  N   UNK N   1      36.277  11.891  10.583  0.00  0.00    -0.280 N 
HETATM   27  C   UNK N   1      35.508  11.855   9.472  0.00  0.00     0.261 A 
HETATM   28  C   UNK N   1      36.236  12.456   8.356  0.00  0.00     0.048 A 
HETATM   29  O   UNK N   1      34.377  11.394   9.433  0.00  0.00    -0.267 OA
HETATM   30  C   UNK N   1      35.888  12.673   7.027  0.00  0.00     0.018 A 
HETATM   31  C   UNK N   1      37.461  12.844   8.857  0.00  0.00     0.048 A 
HETATM   32  C   UNK N   1      36.831  13.306   6.197  0.00  0.00     0.001 A 
HETATM   33  C   UNK N   1      38.087  13.704   6.711  0.00  0.00     0.001 A 
HETATM   34  C   UNK N   1      38.413  13.473   8.061  0.00  0.00     0.018 A 
HETATM   35  C   UNK N   1      37.461  12.472  10.270  0.00  0.00     0.261 A 
HETATM   36  O   UNK N   1      38.366  12.665  11.067  0.00  0.00    -0.267 OA
ENDBRANCH  25  26
ENDBRANCH  24  25
ENDBRANCH  23  24
ENDBRANCH  22  23
ENDBRANCH  21  22
ENDBRANCH  20  21
ENDBRANCH  19  20
ENDBRANCH  18  19
ENDBRANCH  16  18
BRANCH  11  37
HETATM   37  O   UNK N   1      28.045  18.242   5.514  0.00  0.00    -0.353 OA
HETATM   38  C   UNK N   1      28.060  19.517   4.994  0.00  0.00     0.210 C 
ENDBRANCH  11  37
BRANCH  10  39
HETATM   39  O   UNK N   1      33.144  14.294   2.274  0.00  0.00    -0.392 OA
HETATM   40  H   UNK N   1      32.706  13.437   2.395  0.00  0.00     0.210 HD
ENDBRANCH  10  39
TORSDOF 11
ENDMDL
