MODEL 1
REMARK VINA RESULT:      -6.2      0.000      0.000
REMARK  7 active torsions:
REMARK  status: ('A' for Active; 'I' for Inactive)
REMARK    1  A    between atoms: C_2  and  C_1 
REMARK    2  A    between atoms: O_10  and  C_1 
REMARK    3  A    between atoms: C_3  and  O_11 
REMARK    4  A    between atoms: C_4  and  O_12 
REMARK    5  A    between atoms: C_5  and  O_13 
REMARK    6  A    between atoms: C_7  and  C_6 
REMARK    7  A    between atoms: O_14  and  C_6 
ROOT
HETATM    1  C   UNK N   1      23.415  20.156   3.396  0.00  0.00     0.180 C 
HETATM    2  C   UNK N   1      23.103  18.762   3.991  0.00  0.00     0.180 C 
HETATM    3  C   UNK N   1      21.585  18.595   4.147  0.00  0.00     0.184 C 
HETATM    4  C   UNK N   1      20.904  18.891   2.803  0.00  0.00     0.220 C 
HETATM    5  C   UNK N   1      21.346  20.279   2.267  0.00  0.00     0.258 C 
HETATM    6  O   UNK N   1      20.913  21.309   3.115  0.00  0.00    -0.357 OA
HETATM    7  O   UNK N   1      22.766  20.312   2.141  0.00  0.00    -0.336 OA
HETATM    8  H   UNK N   1      20.668  22.063   3.673  0.00  0.00     0.213 HD
ENDROOT
BRANCH   5   9
HETATM    9  C   UNK N   1      20.720  20.529   0.912  0.00  0.00     0.176 C 
HETATM   10  N   UNK N   1      20.317  21.698   0.580  0.00  0.00    -0.379 N 
HETATM   11  H   UNK N   1      20.160  22.087  -0.311  0.00  0.00     0.158 HD
ATOM     12  HN  UNK N   1      20.129  22.326   1.361  1.00  0.00     0.158 HD
BRANCH   9  13
HETATM   13  O   UNK N   1      20.560  19.503   0.050  0.00  0.00    -0.345 OA
HETATM   14  H   UNK N   1      19.805  19.394  -0.495  0.00  0.00     0.219 HD
ENDBRANCH   9  13
ENDBRANCH   5   9
BRANCH   4  15
HETATM   15  O   UNK N   1      19.515  18.820   2.949  0.00  0.00    -0.387 OA
HETATM   16  H   UNK N   1      19.020  17.987   3.002  0.00  0.00     0.210 HD
ENDBRANCH   4  15
BRANCH   3  17
HETATM   17  O   UNK N   1      21.106  19.466   5.133  0.00  0.00    -0.390 OA
HETATM   18  H   UNK N   1      20.583  19.980   5.768  0.00  0.00     0.210 HD
ENDBRANCH   3  17
BRANCH   1  19
HETATM   19  C   UNK N   1      24.913  20.333   3.160  0.00  0.00     0.198 C 
BRANCH  19  20
HETATM   20  O   UNK N   1      25.165  20.818   1.876  0.00  0.00    -0.398 OA
HETATM   21  H   UNK N   1      25.636  20.327   1.184  0.00  0.00     0.209 HD
ENDBRANCH  19  20
ENDBRANCH   1  19
BRANCH   2  22
HETATM   22  O   UNK N   1      23.723  18.595   5.233  0.00  0.00    -0.390 OA
HETATM   23  H   UNK N   1      24.506  19.106   5.490  0.00  0.00     0.210 HD
ENDBRANCH   2  22
TORSDOF 7
ENDMDL
MODEL 2
REMARK VINA RESULT:      -5.7     13.153     15.060
REMARK  7 active torsions:
REMARK  status: ('A' for Active; 'I' for Inactive)
REMARK    1  A    between atoms: C_2  and  C_1 
REMARK    2  A    between atoms: O_10  and  C_1 
REMARK    3  A    between atoms: C_3  and  O_11 
REMARK    4  A    between atoms: C_4  and  O_12 
REMARK    5  A    between atoms: C_5  and  O_13 
REMARK    6  A    between atoms: C_7  and  C_6 
REMARK    7  A    between atoms: O_14  and  C_6 
ROOT
HETATM    1  C   UNK N   1      35.885  14.918   9.757  0.00  0.00     0.180 C 
HETATM    2  C   UNK N   1      34.698  13.944   9.565  0.00  0.00     0.180 C 
HETATM    3  C   UNK N   1      33.377  14.683   9.822  0.00  0.00     0.184 C 
HETATM    4  C   UNK N   1      33.326  15.944   8.947  0.00  0.00     0.220 C 
HETATM    5  C   UNK N   1      34.598  16.806   9.167  0.00  0.00     0.258 C 
HETATM    6  O   UNK N   1      34.657  17.292  10.481  0.00  0.00    -0.357 OA
HETATM    7  O   UNK N   1      35.758  16.028   8.879  0.00  0.00    -0.336 OA
HETATM    8  H   UNK N   1      34.773  17.635  11.381  0.00  0.00     0.213 HD
ENDROOT
BRANCH   5   9
HETATM    9  C   UNK N   1      34.566  18.011   8.251  0.00  0.00     0.176 C 
HETATM   10  N   UNK N   1      33.881  17.995   7.169  0.00  0.00    -0.379 N 
HETATM   11  H   UNK N   1      33.529  18.738   6.627  0.00  0.00     0.158 HD
ATOM     12  HN  UNK N   1      33.666  17.064   6.810  1.00  0.00     0.158 HD
BRANCH   9  13
HETATM   13  O   UNK N   1      35.285  19.108   8.563  0.00  0.00    -0.345 OA
HETATM   14  H   UNK N   1      35.002  19.984   8.387  0.00  0.00     0.219 HD
ENDBRANCH   9  13
ENDBRANCH   5   9
BRANCH   4  15
HETATM   15  O   UNK N   1      32.164  16.669   9.228  0.00  0.00    -0.387 OA
HETATM   16  H   UNK N   1      31.392  16.699   8.641  0.00  0.00     0.210 HD
ENDBRANCH   4  15
BRANCH   3  17
HETATM   17  O   UNK N   1      33.277  15.029  11.174  0.00  0.00    -0.390 OA
HETATM   18  H   UNK N   1      33.060  15.111  12.116  0.00  0.00     0.210 HD
ENDBRANCH   3  17
BRANCH   1  19
HETATM   19  C   UNK N   1      37.215  14.237   9.442  0.00  0.00     0.198 C 
BRANCH  19  20
HETATM   20  O   UNK N   1      38.278  14.905  10.053  0.00  0.00    -0.398 OA
HETATM   21  H   UNK N   1      38.218  15.788  10.450  0.00  0.00     0.209 HD
ENDBRANCH  19  20
ENDBRANCH   1  19
BRANCH   2  22
HETATM   22  O   UNK N   1      34.800  12.851  10.431  0.00  0.00    -0.390 OA
HETATM   23  H   UNK N   1      34.420  12.864  11.323  0.00  0.00     0.210 HD
ENDBRANCH   2  22
TORSDOF 7
ENDMDL
MODEL 3
REMARK VINA RESULT:      -5.4     14.076     15.510
REMARK  7 active torsions:
REMARK  status: ('A' for Active; 'I' for Inactive)
REMARK    1  A    between atoms: C_2  and  C_1 
REMARK    2  A    between atoms: O_10  and  C_1 
REMARK    3  A    between atoms: C_3  and  O_11 
REMARK    4  A    between atoms: C_4  and  O_12 
REMARK    5  A    between atoms: C_5  and  O_13 
REMARK    6  A    between atoms: C_7  and  C_6 
REMARK    7  A    between atoms: O_14  and  C_6 
ROOT
HETATM    1  C   UNK N   1      33.700  14.276   8.570  0.00  0.00     0.180 C 
HETATM    2  C   UNK N   1      34.324  15.547   7.946  0.00  0.00     0.180 C 
HETATM    3  C   UNK N   1      34.357  16.672   8.989  0.00  0.00     0.184 C 
HETATM    4  C   UNK N   1      35.059  16.164  10.257  0.00  0.00     0.220 C 
HETATM    5  C   UNK N   1      34.398  14.849  10.751  0.00  0.00     0.258 C 
HETATM    6  O   UNK N   1      33.071  15.068  11.148  0.00  0.00    -0.357 OA
HETATM    7  O   UNK N   1      34.445  13.872   9.712  0.00  0.00    -0.336 OA
HETATM    8  H   UNK N   1      32.141  15.147  11.410  0.00  0.00     0.213 HD
ENDROOT
BRANCH   5   9
HETATM    9  C   UNK N   1      35.142  14.324  11.960  0.00  0.00     0.176 C 
HETATM   10  N   UNK N   1      36.357  14.662  12.182  0.00  0.00    -0.379 N 
HETATM   11  H   UNK N   1      36.877  14.652  13.018  0.00  0.00     0.158 HD
ATOM     12  HN  UNK N   1      36.868  14.992  11.363  1.00  0.00     0.158 HD
BRANCH   9  13
HETATM   13  O   UNK N   1      34.527  13.471  12.805  0.00  0.00    -0.345 OA
HETATM   14  H   UNK N   1      34.132  13.733  13.615  0.00  0.00     0.219 HD
ENDBRANCH   9  13
ENDBRANCH   5   9
BRANCH   4  15
HETATM   15  O   UNK N   1      35.027  17.152  11.246  0.00  0.00    -0.387 OA
HETATM   16  H   UNK N   1      34.572  18.003  11.143  0.00  0.00     0.210 HD
ENDBRANCH   4  15
BRANCH   3  17
HETATM   17  O   UNK N   1      33.054  17.083   9.292  0.00  0.00    -0.390 OA
HETATM   18  H   UNK N   1      32.194  17.527   9.361  0.00  0.00     0.210 HD
ENDBRANCH   3  17
BRANCH   1  19
HETATM   19  C   UNK N   1      33.714  13.111   7.582  0.00  0.00     0.198 C 
BRANCH  19  20
HETATM   20  O   UNK N   1      32.530  13.065   6.844  0.00  0.00    -0.398 OA
HETATM   21  H   UNK N   1      32.293  12.355   6.227  0.00  0.00     0.209 HD
ENDBRANCH  19  20
ENDBRANCH   1  19
BRANCH   2  22
HETATM   22  O   UNK N   1      33.596  15.966   6.827  0.00  0.00    -0.390 OA
HETATM   23  H   UNK N   1      34.011  16.449   6.096  0.00  0.00     0.210 HD
ENDBRANCH   2  22
TORSDOF 7
ENDMDL
MODEL 4
REMARK VINA RESULT:      -5.3     13.834     16.144
REMARK  7 active torsions:
REMARK  status: ('A' for Active; 'I' for Inactive)
REMARK    1  A    between atoms: C_2  and  C_1 
REMARK    2  A    between atoms: O_10  and  C_1 
REMARK    3  A    between atoms: C_3  and  O_11 
REMARK    4  A    between atoms: C_4  and  O_12 
REMARK    5  A    between atoms: C_5  and  O_13 
REMARK    6  A    between atoms: C_7  and  C_6 
REMARK    7  A    between atoms: O_14  and  C_6 
ROOT
HETATM    1  C   UNK N   1      35.308  13.636  11.108  0.00  0.00     0.180 C 
HETATM    2  C   UNK N   1      35.786  14.661  12.164  0.00  0.00     0.180 C 
HETATM    3  C   UNK N   1      36.154  15.981  11.474  0.00  0.00     0.184 C 
HETATM    4  C   UNK N   1      34.972  16.446  10.611  0.00  0.00     0.220 C 
HETATM    5  C   UNK N   1      34.532  15.316   9.643  0.00  0.00     0.258 C 
HETATM    6  O   UNK N   1      35.544  15.018   8.720  0.00  0.00    -0.357 OA
HETATM    7  O   UNK N   1      34.193  14.151  10.392  0.00  0.00    -0.336 OA
HETATM    8  H   UNK N   1      36.213  14.745   8.073  0.00  0.00     0.213 HD
ENDROOT
BRANCH   5   9
HETATM    9  C   UNK N   1      33.325  15.764   8.847  0.00  0.00     0.176 C 
HETATM   10  N   UNK N   1      32.900  15.076   7.854  0.00  0.00    -0.379 N 
HETATM   11  H   UNK N   1      32.014  15.058   7.425  0.00  0.00     0.158 HD
ATOM     12  HN  UNK N   1      33.589  14.447   7.441  1.00  0.00     0.158 HD
BRANCH   9  13
HETATM   13  O   UNK N   1      32.700  16.915   9.170  0.00  0.00    -0.345 OA
HETATM   14  H   UNK N   1      32.583  17.629   8.574  0.00  0.00     0.219 HD
ENDBRANCH   9  13
ENDBRANCH   5   9
BRANCH   4  15
HETATM   15  O   UNK N   1      35.322  17.607   9.914  0.00  0.00    -0.387 OA
HETATM   16  H   UNK N   1      36.031  17.647   9.254  0.00  0.00     0.210 HD
ENDBRANCH   4  15
BRANCH   3  17
HETATM   17  O   UNK N   1      37.292  15.804  10.678  0.00  0.00    -0.390 OA
HETATM   18  H   UNK N   1      38.030  15.879  10.052  0.00  0.00     0.210 HD
ENDBRANCH   3  17
BRANCH   1  19
HETATM   19  C   UNK N   1      34.866  12.330  11.765  0.00  0.00     0.198 C 
BRANCH  19  20
HETATM   20  O   UNK N   1      34.374  12.558  13.052  0.00  0.00    -0.398 OA
HETATM   21  H   UNK N   1      34.726  13.221  13.666  0.00  0.00     0.209 HD
ENDBRANCH  19  20
ENDBRANCH   1  19
BRANCH   2  22
HETATM   22  O   UNK N   1      36.892  14.176  12.870  0.00  0.00    -0.390 OA
HETATM   23  H   UNK N   1      37.363  13.373  12.600  0.00  0.00     0.210 HD
ENDBRANCH   2  22
TORSDOF 7
ENDMDL
MODEL 5
REMARK VINA RESULT:      -5.3     12.756     14.326
REMARK  7 active torsions:
REMARK  status: ('A' for Active; 'I' for Inactive)
REMARK    1  A    between atoms: C_2  and  C_1 
REMARK    2  A    between atoms: O_10  and  C_1 
REMARK    3  A    between atoms: C_3  and  O_11 
REMARK    4  A    between atoms: C_4  and  O_12 
REMARK    5  A    between atoms: C_5  and  O_13 
REMARK    6  A    between atoms: C_7  and  C_6 
REMARK    7  A    between atoms: O_14  and  C_6 
ROOT
HETATM    1  C   UNK N   1      34.920  14.411   9.078  0.00  0.00     0.180 C 
HETATM    2  C   UNK N   1      33.477  13.871   8.933  0.00  0.00     0.180 C 
HETATM    3  C   UNK N   1      32.477  14.938   9.401  0.00  0.00     0.184 C 
HETATM    4  C   UNK N   1      32.754  16.251   8.653  0.00  0.00     0.220 C 
HETATM    5  C   UNK N   1      34.244  16.657   8.806  0.00  0.00     0.258 C 
HETATM    6  O   UNK N   1      34.556  16.941  10.143  0.00  0.00    -0.357 OA
HETATM    7  O   UNK N   1      35.077  15.605   8.321  0.00  0.00    -0.336 OA
HETATM    8  H   UNK N   1      34.843  17.123  11.052  0.00  0.00     0.213 HD
ENDROOT
BRANCH   5   9
HETATM    9  C   UNK N   1      34.518  17.915   8.011  0.00  0.00     0.176 C 
HETATM   10  N   UNK N   1      34.821  19.011   8.599  0.00  0.00    -0.379 N 
HETATM   11  H   UNK N   1      35.287  19.809   8.257  0.00  0.00     0.158 HD
ATOM     12  HN  UNK N   1      34.536  19.068   9.577  1.00  0.00     0.158 HD
BRANCH   9  13
HETATM   13  O   UNK N   1      34.418  17.891   6.665  0.00  0.00    -0.345 OA
HETATM   14  H   UNK N   1      34.775  17.210   6.128  0.00  0.00     0.219 HD
ENDBRANCH   9  13
ENDBRANCH   5   9
BRANCH   4  15
HETATM   15  O   UNK N   1      31.902  17.254   9.126  0.00  0.00    -0.387 OA
HETATM   16  H   UNK N   1      32.160  17.912   9.790  0.00  0.00     0.210 HD
ENDBRANCH   4  15
BRANCH   3  17
HETATM   17  O   UNK N   1      32.597  15.135  10.781  0.00  0.00    -0.390 OA
HETATM   18  H   UNK N   1      32.792  15.085  11.731  0.00  0.00     0.210 HD
ENDBRANCH   3  17
BRANCH   1  19
HETATM   19  C   UNK N   1      35.942  13.403   8.556  0.00  0.00     0.198 C 
BRANCH  19  20
HETATM   20  O   UNK N   1      35.371  12.556   7.604  0.00  0.00    -0.398 OA
HETATM   21  H   UNK N   1      35.836  11.825   7.169  0.00  0.00     0.209 HD
ENDBRANCH  19  20
ENDBRANCH   1  19
BRANCH   2  22
HETATM   22  O   UNK N   1      33.300  12.703   9.681  0.00  0.00    -0.390 OA
HETATM   23  H   UNK N   1      32.839  11.929   9.324  0.00  0.00     0.210 HD
ENDBRANCH   2  22
TORSDOF 7
ENDMDL
MODEL 6
REMARK VINA RESULT:      -5.2      1.842      2.584
REMARK  7 active torsions:
REMARK  status: ('A' for Active; 'I' for Inactive)
REMARK    1  A    between atoms: C_2  and  C_1 
REMARK    2  A    between atoms: O_10  and  C_1 
REMARK    3  A    between atoms: C_3  and  O_11 
REMARK    4  A    between atoms: C_4  and  O_12 
REMARK    5  A    between atoms: C_5  and  O_13 
REMARK    6  A    between atoms: C_7  and  C_6 
REMARK    7  A    between atoms: O_14  and  C_6 
ROOT
HETATM    1  C   UNK N   1      22.634  17.915   4.161  0.00  0.00     0.180 C 
HETATM    2  C   UNK N   1      21.914  16.662   3.606  0.00  0.00     0.180 C 
HETATM    3  C   UNK N   1      20.432  16.981   3.368  0.00  0.00     0.184 C 
HETATM    4  C   UNK N   1      20.320  18.235   2.487  0.00  0.00     0.220 C 
HETATM    5  C   UNK N   1      21.138  19.402   3.102  0.00  0.00     0.258 C 
HETATM    6  O   UNK N   1      20.607  19.794   4.340  0.00  0.00    -0.357 OA
HETATM    7  O   UNK N   1      22.498  19.003   3.256  0.00  0.00    -0.336 OA
HETATM    8  H   UNK N   1      20.308  20.093   5.212  0.00  0.00     0.213 HD
ENDROOT
BRANCH   5   9
HETATM    9  C   UNK N   1      21.073  20.609   2.191  0.00  0.00     0.176 C 
HETATM   10  N   UNK N   1      20.580  20.516   1.012  0.00  0.00    -0.379 N 
HETATM   11  H   UNK N   1      20.213  21.212   0.420  0.00  0.00     0.158 HD
ATOM     12  HN  UNK N   1      20.567  19.572   0.625  1.00  0.00     0.158 HD
BRANCH   9  13
HETATM   13  O   UNK N   1      21.562  21.793   2.613  0.00  0.00    -0.345 OA
HETATM   14  H   UNK N   1      22.154  22.321   2.112  0.00  0.00     0.219 HD
ENDBRANCH   9  13
ENDBRANCH   5   9
BRANCH   4  15
HETATM   15  O   UNK N   1      18.975  18.583   2.328  0.00  0.00    -0.387 OA
HETATM   16  H   UNK N   1      18.239  17.967   2.462  0.00  0.00     0.210 HD
ENDBRANCH   4  15
BRANCH   3  17
HETATM   17  O   UNK N   1      19.785  17.192   4.591  0.00  0.00    -0.390 OA
HETATM   18  H   UNK N   1      19.469  17.510   5.452  0.00  0.00     0.210 HD
ENDBRANCH   3  17
BRANCH   1  19
HETATM   19  C   UNK N   1      24.128  17.658   4.345  0.00  0.00     0.198 C 
BRANCH  19  20
HETATM   20  O   UNK N   1      24.391  17.097   5.596  0.00  0.00    -0.398 OA
HETATM   21  H   UNK N   1      24.144  17.502   6.443  0.00  0.00     0.209 HD
ENDBRANCH  19  20
ENDBRANCH   1  19
BRANCH   2  22
HETATM   22  O   UNK N   1      22.026  15.585   4.490  0.00  0.00    -0.390 OA
HETATM   23  H   UNK N   1      22.773  15.497   5.101  0.00  0.00     0.210 HD
ENDBRANCH   2  22
TORSDOF 7
ENDMDL
MODEL 7
REMARK VINA RESULT:      -5.2     15.105     16.734
REMARK  7 active torsions:
REMARK  status: ('A' for Active; 'I' for Inactive)
REMARK    1  A    between atoms: C_2  and  C_1 
REMARK    2  A    between atoms: O_10  and  C_1 
REMARK    3  A    between atoms: C_3  and  O_11 
REMARK    4  A    between atoms: C_4  and  O_12 
REMARK    5  A    between atoms: C_5  and  O_13 
REMARK    6  A    between atoms: C_7  and  C_6 
REMARK    7  A    between atoms: O_14  and  C_6 
ROOT
HETATM    1  C   UNK N   1      35.458  13.822  12.597  0.00  0.00     0.180 C 
HETATM    2  C   UNK N   1      35.996  12.733  11.637  0.00  0.00     0.180 C 
HETATM    3  C   UNK N   1      35.207  12.769  10.321  0.00  0.00     0.184 C 
HETATM    4  C   UNK N   1      35.232  14.197   9.757  0.00  0.00     0.220 C 
HETATM    5  C   UNK N   1      34.743  15.210  10.826  0.00  0.00     0.258 C 
HETATM    6  O   UNK N   1      33.399  14.986  11.157  0.00  0.00    -0.357 OA
HETATM    7  O   UNK N   1      35.559  15.105  11.992  0.00  0.00    -0.336 OA
HETATM    8  H   UNK N   1      32.482  14.866  11.451  0.00  0.00     0.213 HD
ENDROOT
BRANCH   5   9
HETATM    9  C   UNK N   1      34.836  16.618  10.280  0.00  0.00     0.176 C 
HETATM   10  N   UNK N   1      33.882  17.118   9.587  0.00  0.00    -0.379 N 
HETATM   11  H   UNK N   1      33.653  18.058   9.404  0.00  0.00     0.158 HD
ATOM     12  HN  UNK N   1      33.260  16.434   9.155  1.00  0.00     0.158 HD
BRANCH   9  13
HETATM   13  O   UNK N   1      35.946  17.350  10.502  0.00  0.00    -0.345 OA
HETATM   14  H   UNK N   1      36.597  17.522   9.849  0.00  0.00     0.219 HD
ENDBRANCH   9  13
ENDBRANCH   5   9
BRANCH   4  15
HETATM   15  O   UNK N   1      34.451  14.263   8.599  0.00  0.00    -0.387 OA
HETATM   16  H   UNK N   1      33.800  14.960   8.426  0.00  0.00     0.210 HD
ENDBRANCH   4  15
BRANCH   3  17
HETATM   17  O   UNK N   1      33.887  12.361  10.543  0.00  0.00    -0.390 OA
HETATM   18  H   UNK N   1      33.026  11.913  10.568  0.00  0.00     0.210 HD
ENDBRANCH   3  17
BRANCH   1  19
HETATM   19  C   UNK N   1      36.266  13.864  13.892  0.00  0.00     0.198 C 
BRANCH  19  20
HETATM   20  O   UNK N   1      36.864  15.113  14.070  0.00  0.00    -0.398 OA
HETATM   21  H   UNK N   1      36.963  15.780  13.372  0.00  0.00     0.209 HD
ENDBRANCH  19  20
ENDBRANCH   1  19
BRANCH   2  22
HETATM   22  O   UNK N   1      35.893  11.462  12.212  0.00  0.00    -0.390 OA
HETATM   23  H   UNK N   1      35.064  11.136  12.593  0.00  0.00     0.210 HD
ENDBRANCH   2  22
TORSDOF 7
ENDMDL
MODEL 8
REMARK VINA RESULT:      -5.2     13.144     14.899
REMARK  7 active torsions:
REMARK  status: ('A' for Active; 'I' for Inactive)
REMARK    1  A    between atoms: C_2  and  C_1 
REMARK    2  A    between atoms: O_10  and  C_1 
REMARK    3  A    between atoms: C_3  and  O_11 
REMARK    4  A    between atoms: C_4  and  O_12 
REMARK    5  A    between atoms: C_5  and  O_13 
REMARK    6  A    between atoms: C_7  and  C_6 
REMARK    7  A    between atoms: O_14  and  C_6 
ROOT
HETATM    1  C   UNK N   1      34.370  14.638   7.247  0.00  0.00     0.180 C 
HETATM    2  C   UNK N   1      32.840  14.711   7.469  0.00  0.00     0.180 C 
HETATM    3  C   UNK N   1      32.512  14.361   8.927  0.00  0.00     0.184 C 
HETATM    4  C   UNK N   1      33.343  15.254   9.860  0.00  0.00     0.220 C 
HETATM    5  C   UNK N   1      34.850  15.158   9.499  0.00  0.00     0.258 C 
HETATM    6  O   UNK N   1      35.341  13.864   9.723  0.00  0.00    -0.357 OA
HETATM    7  O   UNK N   1      35.039  15.526   8.134  0.00  0.00    -0.336 OA
HETATM    8  H   UNK N   1      35.736  12.984   9.828  0.00  0.00     0.213 HD
ENDROOT
BRANCH   5   9
HETATM    9  C   UNK N   1      35.649  16.093  10.382  0.00  0.00     0.176 C 
HETATM   10  N   UNK N   1      35.112  17.144  10.881  0.00  0.00    -0.379 N 
HETATM   11  H   UNK N   1      35.375  17.682  11.662  0.00  0.00     0.158 HD
ATOM     12  HN  UNK N   1      34.281  17.476  10.391  1.00  0.00     0.158 HD
BRANCH   9  13
HETATM   13  O   UNK N   1      36.949  15.833  10.629  0.00  0.00    -0.345 OA
HETATM   14  H   UNK N   1      37.247  15.099  11.130  0.00  0.00     0.219 HD
ENDBRANCH   9  13
ENDBRANCH   5   9
BRANCH   4  15
HETATM   15  O   UNK N   1      33.114  14.893  11.191  0.00  0.00    -0.387 OA
HETATM   16  H   UNK N   1      33.649  15.208  11.936  0.00  0.00     0.210 HD
ENDBRANCH   4  15
BRANCH   3  17
HETATM   17  O   UNK N   1      32.797  13.012   9.171  0.00  0.00    -0.390 OA
HETATM   18  H   UNK N   1      33.047  12.076   9.130  0.00  0.00     0.210 HD
ENDBRANCH   3  17
BRANCH   1  19
HETATM   19  C   UNK N   1      34.743  15.049   5.825  0.00  0.00     0.198 C 
BRANCH  19  20
HETATM   20  O   UNK N   1      34.643  16.432   5.659  0.00  0.00    -0.398 OA
HETATM   21  H   UNK N   1      34.879  17.085   6.336  0.00  0.00     0.209 HD
ENDBRANCH  19  20
ENDBRANCH   1  19
BRANCH   2  22
HETATM   22  O   UNK N   1      32.166  13.834   6.613  0.00  0.00    -0.390 OA
HETATM   23  H   UNK N   1      32.601  13.059   6.225  0.00  0.00     0.210 HD
ENDBRANCH   2  22
TORSDOF 7
ENDMDL
MODEL 9
REMARK VINA RESULT:      -5.1     15.192     17.622
REMARK  7 active torsions:
REMARK  status: ('A' for Active; 'I' for Inactive)
REMARK    1  A    between atoms: C_2  and  C_1 
REMARK    2  A    between atoms: O_10  and  C_1 
REMARK    3  A    between atoms: C_3  and  O_11 
REMARK    4  A    between atoms: C_4  and  O_12 
REMARK    5  A    between atoms: C_5  and  O_13 
REMARK    6  A    between atoms: C_7  and  C_6 
REMARK    7  A    between atoms: O_14  and  C_6 
ROOT
HETATM    1  C   UNK N   1      34.619  15.008  10.599  0.00  0.00     0.180 C 
HETATM    2  C   UNK N   1      35.468  14.191   9.595  0.00  0.00     0.180 C 
HETATM    3  C   UNK N   1      36.854  13.916  10.195  0.00  0.00     0.184 C 
HETATM    4  C   UNK N   1      36.685  13.267  11.577  0.00  0.00     0.220 C 
HETATM    5  C   UNK N   1      35.759  14.133  12.472  0.00  0.00     0.258 C 
HETATM    6  O   UNK N   1      36.337  15.382  12.738  0.00  0.00    -0.357 OA
HETATM    7  O   UNK N   1      34.497  14.304  11.828  0.00  0.00    -0.336 OA
HETATM    8  H   UNK N   1      36.668  16.272  12.936  0.00  0.00     0.213 HD
ENDROOT
BRANCH   5   9
HETATM    9  C   UNK N   1      35.548  13.449  13.805  0.00  0.00     0.176 C 
HETATM   10  N   UNK N   1      36.406  13.571  14.749  0.00  0.00    -0.379 N 
HETATM   11  H   UNK N   1      36.305  13.445  15.720  0.00  0.00     0.158 HD
ATOM     12  HN  UNK N   1      37.342  13.841  14.447  1.00  0.00     0.158 HD
BRANCH   9  13
HETATM   13  O   UNK N   1      34.457  12.680  13.998  0.00  0.00    -0.345 OA
HETATM   14  H   UNK N   1      33.681  12.735  13.474  0.00  0.00     0.219 HD
ENDBRANCH   9  13
ENDBRANCH   5   9
BRANCH   4  15
HETATM   15  O   UNK N   1      37.939  13.082  12.170  0.00  0.00    -0.387 OA
HETATM   16  H   UNK N   1      38.735  13.572  11.912  0.00  0.00     0.210 HD
ENDBRANCH   4  15
BRANCH   3  17
HETATM   17  O   UNK N   1      37.573  15.111  10.308  0.00  0.00    -0.390 OA
HETATM   18  H   UNK N   1      38.203  15.846  10.241  0.00  0.00     0.210 HD
ENDBRANCH   3  17
BRANCH   1  19
HETATM   19  C   UNK N   1      33.207  15.242  10.066  0.00  0.00     0.198 C 
BRANCH  19  20
HETATM   20  O   UNK N   1      33.125  16.455   9.379  0.00  0.00    -0.398 OA
HETATM   21  H   UNK N   1      32.362  16.737   8.850  0.00  0.00     0.209 HD
ENDBRANCH  19  20
ENDBRANCH   1  19
BRANCH   2  22
HETATM   22  O   UNK N   1      35.609  14.875   8.383  0.00  0.00    -0.390 OA
HETATM   23  H   UNK N   1      36.473  15.173   8.059  0.00  0.00     0.210 HD
ENDBRANCH   2  22
TORSDOF 7
ENDMDL
