MODEL 1
REMARK VINA RESULT:      -5.3      0.000      0.000
REMARK  9 active torsions:
REMARK  status: ('A' for Active; 'I' for Inactive)
REMARK    1  A    between atoms: C_3  and  C_2 
REMARK    2  A    between atoms: C_4  and  C_3 
REMARK    3  A    between atoms: C_7  and  C_4 
REMARK    4  A    between atoms: C_7  and  C_5 
REMARK    5  A    between atoms: N_9  and  C_5 
REMARK    6  A    between atoms: N_9  and  C_6 
REMARK    7  A    between atoms: C_7  and  C_8 
REMARK    8  A    between atoms: O_12  and  C_8 
REMARK    9  A    between atoms: O_13  and  N_9 
ROOT
HETATM    1  C   UNK N   1      33.449  17.237   8.588  0.00  0.00     0.104 C 
ENDROOT
BRANCH   1   2
HETATM    2  C   UNK N   1      32.218  16.805   7.787  0.00  0.00     0.017 C 
BRANCH   2   3
HETATM    3  C   UNK N   1      30.948  16.937   8.619  0.00  0.00     0.001 C 
BRANCH   3   4
HETATM    4  C   UNK N   1      30.607  18.397   8.821  0.00  0.00    -0.005 C 
HETATM    5  C   UNK N   1      29.557  18.518   9.906  0.00  0.00     0.005 C 
ENDBRANCH   3   4
ENDBRANCH   2   3
ENDBRANCH   1   2
BRANCH   1   6
HETATM    6  C   UNK N   1      34.210  15.960   8.978  0.00  0.00     0.173 C 
BRANCH   6   7
HETATM    7  N   UNK N   1      34.308  15.747  10.406  0.00  0.00    -0.235 N 
BRANCH   7   8
HETATM    8  C   UNK N   1      35.330  16.306  11.091  0.00  0.00     0.376 C 
HETATM    9  O   UNK N   1      35.982  17.215  10.600  0.00  0.00    -0.281 OA
ENDBRANCH   7   8
BRANCH   7  10
HETATM   10  O   UNK N   1      33.322  15.123  11.063  0.00  0.00    -0.285 OA
HETATM   11  H   UNK N   1      33.532  14.518  11.791  0.00  0.00     0.245 HD
ENDBRANCH   7  10
ENDBRANCH   6   7
ENDBRANCH   1   6
BRANCH   1  12
HETATM   12  C   UNK N   1      34.310  18.199   7.791  0.00  0.00     0.145 C 
HETATM   13  O   UNK N   1      34.346  18.120   6.574  0.00  0.00    -0.650 OA
BRANCH  12  14
HETATM   14  O   UNK N   1      35.072  19.120   8.413  0.00  0.00    -0.776 OA
HETATM   15  H   UNK N   1      35.667  18.930   9.112  0.00  0.00     0.167 HD
ENDBRANCH  12  14
ENDBRANCH   1  12
TORSDOF 9
ENDMDL
MODEL 2
REMARK VINA RESULT:      -4.7     12.796     14.565
REMARK  9 active torsions:
REMARK  status: ('A' for Active; 'I' for Inactive)
REMARK    1  A    between atoms: C_3  and  C_2 
REMARK    2  A    between atoms: C_4  and  C_3 
REMARK    3  A    between atoms: C_7  and  C_4 
REMARK    4  A    between atoms: C_7  and  C_5 
REMARK    5  A    between atoms: N_9  and  C_5 
REMARK    6  A    between atoms: N_9  and  C_6 
REMARK    7  A    between atoms: C_7  and  C_8 
REMARK    8  A    between atoms: O_12  and  C_8 
REMARK    9  A    between atoms: O_13  and  N_9 
ROOT
HETATM    1  C   UNK N   1      21.336  19.832   2.079  0.00  0.00     0.104 C 
ENDROOT
BRANCH   1   2
HETATM    2  C   UNK N   1      22.587  20.386   2.764  0.00  0.00     0.017 C 
BRANCH   2   3
HETATM    3  C   UNK N   1      23.191  19.361   3.717  0.00  0.00     0.001 C 
BRANCH   3   4
HETATM    4  C   UNK N   1      24.694  19.318   3.550  0.00  0.00    -0.005 C 
HETATM    5  C   UNK N   1      25.135  20.486   2.693  0.00  0.00     0.005 C 
ENDBRANCH   3   4
ENDBRANCH   2   3
ENDBRANCH   1   2
BRANCH   1   6
HETATM    6  C   UNK N   1      20.272  19.626   3.168  0.00  0.00     0.173 C 
BRANCH   6   7
HETATM    7  N   UNK N   1      19.408  18.488   2.939  0.00  0.00    -0.235 N 
BRANCH   7   8
HETATM    8  C   UNK N   1      19.731  17.292   3.479  0.00  0.00     0.376 C 
HETATM    9  O   UNK N   1      20.332  16.456   2.820  0.00  0.00    -0.281 OA
ENDBRANCH   7   8
BRANCH   7  10
HETATM   10  O   UNK N   1      18.231  18.650   2.321  0.00  0.00    -0.285 OA
HETATM   11  H   UNK N   1      17.999  18.087   1.566  0.00  0.00     0.245 HD
ENDBRANCH   7  10
ENDBRANCH   6   7
ENDBRANCH   1   6
BRANCH   1  12
HETATM   12  C   UNK N   1      20.859  20.762   0.979  0.00  0.00     0.145 C 
HETATM   13  O   UNK N   1      20.736  21.955   1.200  0.00  0.00    -0.650 OA
BRANCH  12  14
HETATM   14  O   UNK N   1      20.529  20.280  -0.236  0.00  0.00    -0.776 OA
HETATM   15  H   UNK N   1      21.128  19.850  -0.815  0.00  0.00     0.167 HD
ENDBRANCH  12  14
ENDBRANCH   1  12
TORSDOF 9
ENDMDL
MODEL 3
REMARK VINA RESULT:      -4.5     12.641     14.483
REMARK  9 active torsions:
REMARK  status: ('A' for Active; 'I' for Inactive)
REMARK    1  A    between atoms: C_3  and  C_2 
REMARK    2  A    between atoms: C_4  and  C_3 
REMARK    3  A    between atoms: C_7  and  C_4 
REMARK    4  A    between atoms: C_7  and  C_5 
REMARK    5  A    between atoms: N_9  and  C_5 
REMARK    6  A    between atoms: N_9  and  C_6 
REMARK    7  A    between atoms: C_7  and  C_8 
REMARK    8  A    between atoms: O_12  and  C_8 
REMARK    9  A    between atoms: O_13  and  N_9 
ROOT
HETATM    1  C   UNK N   1      21.214  19.163   2.550  0.00  0.00     0.104 C 
ENDROOT
BRANCH   1   2
HETATM    2  C   UNK N   1      21.131  19.288   4.073  0.00  0.00     0.017 C 
BRANCH   2   3
HETATM    3  C   UNK N   1      21.165  17.918   4.739  0.00  0.00     0.001 C 
BRANCH   3   4
HETATM    4  C   UNK N   1      22.275  17.866   5.766  0.00  0.00    -0.005 C 
HETATM    5  C   UNK N   1      23.613  17.914   5.058  0.00  0.00     0.005 C 
ENDBRANCH   3   4
ENDBRANCH   2   3
ENDBRANCH   1   2
BRANCH   1   6
HETATM    6  C   UNK N   1      19.985  18.364   2.090  0.00  0.00     0.173 C 
BRANCH   6   7
HETATM    7  N   UNK N   1      20.244  17.475   0.979  0.00  0.00    -0.235 N 
BRANCH   7   8
HETATM    8  C   UNK N   1      20.270  16.140   1.190  0.00  0.00     0.376 C 
HETATM    9  O   UNK N   1      21.160  15.453   0.713  0.00  0.00    -0.281 OA
ENDBRANCH   7   8
BRANCH   7  10
HETATM   10  O   UNK N   1      20.315  17.958  -0.269  0.00  0.00    -0.285 OA
HETATM   11  H   UNK N   1      21.140  17.881  -0.772  0.00  0.00     0.245 HD
ENDBRANCH   7  10
ENDBRANCH   6   7
ENDBRANCH   1   6
BRANCH   1  12
HETATM   12  C   UNK N   1      21.291  20.529   1.894  0.00  0.00     0.145 C 
HETATM   13  O   UNK N   1      21.320  20.621   0.677  0.00  0.00    -0.650 OA
BRANCH  12  14
HETATM   14  O   UNK N   1      21.369  21.650   2.639  0.00  0.00    -0.776 OA
HETATM   15  H   UNK N   1      21.716  22.465   2.334  0.00  0.00     0.167 HD
ENDBRANCH  12  14
ENDBRANCH   1  12
TORSDOF 9
ENDMDL
MODEL 4
REMARK VINA RESULT:      -4.4     12.945     14.402
REMARK  9 active torsions:
REMARK  status: ('A' for Active; 'I' for Inactive)
REMARK    1  A    between atoms: C_3  and  C_2 
REMARK    2  A    between atoms: C_4  and  C_3 
REMARK    3  A    between atoms: C_7  and  C_4 
REMARK    4  A    between atoms: C_7  and  C_5 
REMARK    5  A    between atoms: N_9  and  C_5 
REMARK    6  A    between atoms: N_9  and  C_6 
REMARK    7  A    between atoms: C_7  and  C_8 
REMARK    8  A    between atoms: O_12  and  C_8 
REMARK    9  A    between atoms: O_13  and  N_9 
ROOT
HETATM    1  C   UNK N   1      30.595  21.833  -3.633  0.00  0.00     0.104 C 
ENDROOT
BRANCH   1   2
HETATM    2  C   UNK N   1      29.885  21.961  -4.983  0.00  0.00     0.017 C 
BRANCH   2   3
HETATM    3  C   UNK N   1      30.304  20.846  -5.933  0.00  0.00     0.001 C 
BRANCH   3   4
HETATM    4  C   UNK N   1      29.346  20.770  -7.102  0.00  0.00    -0.005 C 
HETATM    5  C   UNK N   1      29.326  19.354  -7.639  0.00  0.00     0.005 C 
ENDBRANCH   3   4
ENDBRANCH   2   3
ENDBRANCH   1   2
BRANCH   1   6
HETATM    6  C   UNK N   1      32.086  22.116  -3.873  0.00  0.00     0.173 C 
BRANCH   6   7
HETATM    7  N   UNK N   1      32.974  21.173  -3.229  0.00  0.00    -0.235 N 
BRANCH   7   8
HETATM    8  C   UNK N   1      33.899  20.523  -3.969  0.00  0.00     0.376 C 
HETATM    9  O   UNK N   1      35.084  20.587  -3.678  0.00  0.00    -0.281 OA
ENDBRANCH   7   8
BRANCH   7  10
HETATM   10  O   UNK N   1      32.976  21.051  -1.895  0.00  0.00    -0.285 OA
HETATM   11  H   UNK N   1      33.745  21.345  -1.383  0.00  0.00     0.245 HD
ENDBRANCH   7  10
ENDBRANCH   6   7
ENDBRANCH   1   6
BRANCH   1  12
HETATM   12  C   UNK N   1      29.989  22.771  -2.606  0.00  0.00     0.145 C 
HETATM   13  O   UNK N   1      30.569  22.980  -1.554  0.00  0.00    -0.650 OA
BRANCH  12  14
HETATM   14  O   UNK N   1      28.791  23.350  -2.823  0.00  0.00    -0.776 OA
HETATM   15  H   UNK N   1      28.676  24.214  -3.169  0.00  0.00     0.167 HD
ENDBRANCH  12  14
ENDBRANCH   1  12
TORSDOF 9
ENDMDL
MODEL 5
REMARK VINA RESULT:      -4.3      4.673      7.467
REMARK  9 active torsions:
REMARK  status: ('A' for Active; 'I' for Inactive)
REMARK    1  A    between atoms: C_3  and  C_2 
REMARK    2  A    between atoms: C_4  and  C_3 
REMARK    3  A    between atoms: C_7  and  C_4 
REMARK    4  A    between atoms: C_7  and  C_5 
REMARK    5  A    between atoms: N_9  and  C_5 
REMARK    6  A    between atoms: N_9  and  C_6 
REMARK    7  A    between atoms: C_7  and  C_8 
REMARK    8  A    between atoms: O_12  and  C_8 
REMARK    9  A    between atoms: O_13  and  N_9 
ROOT
HETATM    1  C   UNK N   1      35.865  13.355  13.684  0.00  0.00     0.104 C 
ENDROOT
BRANCH   1   2
HETATM    2  C   UNK N   1      36.105  13.467  15.192  0.00  0.00     0.017 C 
BRANCH   2   3
HETATM    3  C   UNK N   1      34.857  13.079  15.976  0.00  0.00     0.001 C 
BRANCH   3   4
HETATM    4  C   UNK N   1      35.243  12.563  17.345  0.00  0.00    -0.005 C 
HETATM    5  C   UNK N   1      35.200  13.704  18.340  0.00  0.00     0.005 C 
ENDBRANCH   3   4
ENDBRANCH   2   3
ENDBRANCH   1   2
BRANCH   1   6
HETATM    6  C   UNK N   1      36.059  14.757  13.086  0.00  0.00     0.173 C 
BRANCH   6   7
HETATM    7  N   UNK N   1      35.182  15.048  11.973  0.00  0.00    -0.235 N 
BRANCH   7   8
HETATM    8  C   UNK N   1      35.428  16.129  11.200  0.00  0.00     0.376 C 
HETATM    9  O   UNK N   1      36.551  16.338  10.766  0.00  0.00    -0.281 OA
ENDBRANCH   7   8
BRANCH   7  10
HETATM   10  O   UNK N   1      34.223  14.179  11.625  0.00  0.00    -0.285 OA
HETATM   11  H   UNK N   1      33.720  13.713  12.311  0.00  0.00     0.245 HD
ENDBRANCH   7  10
ENDBRANCH   6   7
ENDBRANCH   1   6
BRANCH   1  12
HETATM   12  C   UNK N   1      36.792  12.329  13.059  0.00  0.00     0.145 C 
HETATM   13  O   UNK N   1      36.502  11.816  11.991  0.00  0.00    -0.650 OA
BRANCH  12  14
HETATM   14  O   UNK N   1      37.919  11.943  13.689  0.00  0.00    -0.776 OA
HETATM   15  H   UNK N   1      38.071  12.041  14.609  0.00  0.00     0.167 HD
ENDBRANCH  12  14
ENDBRANCH   1  12
TORSDOF 9
ENDMDL
MODEL 6
REMARK VINA RESULT:      -4.3     12.985     14.572
REMARK  9 active torsions:
REMARK  status: ('A' for Active; 'I' for Inactive)
REMARK    1  A    between atoms: C_3  and  C_2 
REMARK    2  A    between atoms: C_4  and  C_3 
REMARK    3  A    between atoms: C_7  and  C_4 
REMARK    4  A    between atoms: C_7  and  C_5 
REMARK    5  A    between atoms: N_9  and  C_5 
REMARK    6  A    between atoms: N_9  and  C_6 
REMARK    7  A    between atoms: C_7  and  C_8 
REMARK    8  A    between atoms: O_12  and  C_8 
REMARK    9  A    between atoms: O_13  and  N_9 
ROOT
HETATM    1  C   UNK N   1      32.142  21.677  -4.143  0.00  0.00     0.104 C 
ENDROOT
BRANCH   1   2
HETATM    2  C   UNK N   1      31.997  20.857  -5.428  0.00  0.00     0.017 C 
BRANCH   2   3
HETATM    3  C   UNK N   1      30.536  20.748  -5.847  0.00  0.00     0.001 C 
BRANCH   3   4
HETATM    4  C   UNK N   1      30.393  19.752  -6.978  0.00  0.00    -0.005 C 
HETATM    5  C   UNK N   1      29.080  19.996  -7.694  0.00  0.00     0.005 C 
ENDBRANCH   3   4
ENDBRANCH   2   3
ENDBRANCH   1   2
BRANCH   1   6
HETATM    6  C   UNK N   1      30.741  21.817  -3.531  0.00  0.00     0.173 C 
BRANCH   6   7
HETATM    7  N   UNK N   1      30.553  23.029  -2.763  0.00  0.00    -0.235 N 
BRANCH   7   8
HETATM    8  C   UNK N   1      30.238  24.177  -3.403  0.00  0.00     0.376 C 
HETATM    9  O   UNK N   1      30.715  25.242  -3.039  0.00  0.00    -0.281 OA
ENDBRANCH   7   8
BRANCH   7  10
HETATM   10  O   UNK N   1      30.549  22.985  -1.424  0.00  0.00    -0.285 OA
HETATM   11  H   UNK N   1      31.306  22.607  -0.950  0.00  0.00     0.245 HD
ENDBRANCH   7  10
ENDBRANCH   6   7
ENDBRANCH   1   6
BRANCH   1  12
HETATM   12  C   UNK N   1      33.125  21.026  -3.189  0.00  0.00     0.145 C 
HETATM   13  O   UNK N   1      34.079  20.403  -3.626  0.00  0.00    -0.650 OA
BRANCH  12  14
HETATM   14  O   UNK N   1      32.937  21.090  -1.855  0.00  0.00    -0.776 OA
HETATM   15  H   UNK N   1      33.060  20.369  -1.268  0.00  0.00     0.167 HD
ENDBRANCH  12  14
ENDBRANCH   1  12
TORSDOF 9
ENDMDL
MODEL 7
REMARK VINA RESULT:      -4.3      2.474      3.673
REMARK  9 active torsions:
REMARK  status: ('A' for Active; 'I' for Inactive)
REMARK    1  A    between atoms: C_3  and  C_2 
REMARK    2  A    between atoms: C_4  and  C_3 
REMARK    3  A    between atoms: C_7  and  C_4 
REMARK    4  A    between atoms: C_7  and  C_5 
REMARK    5  A    between atoms: N_9  and  C_5 
REMARK    6  A    between atoms: N_9  and  C_6 
REMARK    7  A    between atoms: C_7  and  C_8 
REMARK    8  A    between atoms: O_12  and  C_8 
REMARK    9  A    between atoms: O_13  and  N_9 
ROOT
HETATM    1  C   UNK N   1      33.920  14.914   8.131  0.00  0.00     0.104 C 
ENDROOT
BRANCH   1   2
HETATM    2  C   UNK N   1      34.174  15.582   6.777  0.00  0.00     0.017 C 
BRANCH   2   3
HETATM    3  C   UNK N   1      33.771  17.052   6.805  0.00  0.00     0.001 C 
BRANCH   3   4
HETATM    4  C   UNK N   1      33.409  17.519   5.413  0.00  0.00    -0.005 C 
HETATM    5  C   UNK N   1      32.971  16.328   4.585  0.00  0.00     0.005 C 
ENDBRANCH   3   4
ENDBRANCH   2   3
ENDBRANCH   1   2
BRANCH   1   6
HETATM    6  C   UNK N   1      33.704  16.035   9.159  0.00  0.00     0.173 C 
BRANCH   6   7
HETATM    7  N   UNK N   1      34.272  15.758  10.460  0.00  0.00    -0.235 N 
BRANCH   7   8
HETATM    8  C   UNK N   1      35.355  16.453  10.873  0.00  0.00     0.376 C 
HETATM    9  O   UNK N   1      35.635  17.526  10.360  0.00  0.00    -0.281 OA
ENDBRANCH   7   8
BRANCH   7  10
HETATM   10  O   UNK N   1      33.648  14.924  11.304  0.00  0.00    -0.285 OA
HETATM   11  H   UNK N   1      32.922  14.366  10.985  0.00  0.00     0.245 HD
ENDBRANCH   7  10
ENDBRANCH   6   7
ENDBRANCH   1   6
BRANCH   1  12
HETATM   12  C   UNK N   1      32.739  13.964   8.058  0.00  0.00     0.145 C 
HETATM   13  O   UNK N   1      32.117  13.843   7.016  0.00  0.00    -0.650 OA
BRANCH  12  14
HETATM   14  O   UNK N   1      32.339  13.277   9.147  0.00  0.00    -0.776 OA
HETATM   15  H   UNK N   1      32.757  12.502   9.466  0.00  0.00     0.167 HD
ENDBRANCH  12  14
ENDBRANCH   1  12
TORSDOF 9
ENDMDL
MODEL 8
REMARK VINA RESULT:      -4.3      4.615      6.686
REMARK  9 active torsions:
REMARK  status: ('A' for Active; 'I' for Inactive)
REMARK    1  A    between atoms: C_3  and  C_2 
REMARK    2  A    between atoms: C_4  and  C_3 
REMARK    3  A    between atoms: C_7  and  C_4 
REMARK    4  A    between atoms: C_7  and  C_5 
REMARK    5  A    between atoms: N_9  and  C_5 
REMARK    6  A    between atoms: N_9  and  C_6 
REMARK    7  A    between atoms: C_7  and  C_8 
REMARK    8  A    between atoms: O_12  and  C_8 
REMARK    9  A    between atoms: O_13  and  N_9 
ROOT
HETATM    1  C   UNK N   1      29.473  17.977   8.068  0.00  0.00     0.104 C 
ENDROOT
BRANCH   1   2
HETATM    2  C   UNK N   1      30.757  17.143   8.026  0.00  0.00     0.017 C 
BRANCH   2   3
HETATM    3  C   UNK N   1      31.963  17.971   8.452  0.00  0.00     0.001 C 
BRANCH   3   4
HETATM    4  C   UNK N   1      33.093  17.792   7.462  0.00  0.00    -0.005 C 
HETATM    5  C   UNK N   1      34.378  18.311   8.073  0.00  0.00     0.005 C 
ENDBRANCH   3   4
ENDBRANCH   2   3
ENDBRANCH   1   2
BRANCH   1   6
HETATM    6  C   UNK N   1      28.672  17.645   6.800  0.00  0.00     0.173 C 
BRANCH   6   7
HETATM    7  N   UNK N   1      28.057  18.796   6.175  0.00  0.00    -0.235 N 
BRANCH   7   8
HETATM    8  C   UNK N   1      28.323  19.068   4.879  0.00  0.00     0.376 C 
HETATM    9  O   UNK N   1      27.841  20.053   4.339  0.00  0.00    -0.281 OA
ENDBRANCH   7   8
BRANCH   7  10
HETATM   10  O   UNK N   1      27.125  19.501   6.831  0.00  0.00    -0.285 OA
HETATM   11  H   UNK N   1      27.219  20.462   6.920  0.00  0.00     0.245 HD
ENDBRANCH   7  10
ENDBRANCH   6   7
ENDBRANCH   1   6
BRANCH   1  12
HETATM   12  C   UNK N   1      28.686  17.702   9.335  0.00  0.00     0.145 C 
HETATM   13  O   UNK N   1      29.187  17.047  10.235  0.00  0.00    -0.650 OA
BRANCH  12  14
HETATM   14  O   UNK N   1      27.417  18.138   9.467  0.00  0.00    -0.776 OA
HETATM   15  H   UNK N   1      26.708  17.613   9.785  0.00  0.00     0.167 HD
ENDBRANCH  12  14
ENDBRANCH   1  12
TORSDOF 9
ENDMDL
MODEL 9
REMARK VINA RESULT:      -4.2     17.217     18.864
REMARK  9 active torsions:
REMARK  status: ('A' for Active; 'I' for Inactive)
REMARK    1  A    between atoms: C_3  and  C_2 
REMARK    2  A    between atoms: C_4  and  C_3 
REMARK    3  A    between atoms: C_7  and  C_4 
REMARK    4  A    between atoms: C_7  and  C_5 
REMARK    5  A    between atoms: N_9  and  C_5 
REMARK    6  A    between atoms: N_9  and  C_6 
REMARK    7  A    between atoms: C_7  and  C_8 
REMARK    8  A    between atoms: O_12  and  C_8 
REMARK    9  A    between atoms: O_13  and  N_9 
ROOT
HETATM    1  C   UNK N   1      25.586  24.721  -5.563  0.00  0.00     0.104 C 
ENDROOT
BRANCH   1   2
HETATM    2  C   UNK N   1      25.108  26.173  -5.621  0.00  0.00     0.017 C 
BRANCH   2   3
HETATM    3  C   UNK N   1      26.139  27.064  -6.303  0.00  0.00     0.001 C 
BRANCH   3   4
HETATM    4  C   UNK N   1      26.543  28.193  -5.380  0.00  0.00    -0.005 C 
HETATM    5  C   UNK N   1      25.632  28.199  -4.170  0.00  0.00     0.005 C 
ENDBRANCH   3   4
ENDBRANCH   2   3
ENDBRANCH   1   2
BRANCH   1   6
HETATM    6  C   UNK N   1      26.155  24.372  -6.946  0.00  0.00     0.173 C 
BRANCH   6   7
HETATM    7  N   UNK N   1      25.420  23.337  -7.641  0.00  0.00    -0.235 N 
BRANCH   7   8
HETATM    8  C   UNK N   1      25.359  22.097  -7.110  0.00  0.00     0.376 C 
HETATM    9  O   UNK N   1      24.281  21.592  -6.832  0.00  0.00    -0.281 OA
ENDBRANCH   7   8
BRANCH   7  10
HETATM   10  O   UNK N   1      24.691  23.640  -8.723  0.00  0.00    -0.285 OA
HETATM   11  H   UNK N   1      24.253  24.503  -8.787  0.00  0.00     0.245 HD
ENDBRANCH   7  10
ENDBRANCH   6   7
ENDBRANCH   1   6
BRANCH   1  12
HETATM   12  C   UNK N   1      26.605  24.526  -4.456  0.00  0.00     0.145 C 
HETATM   13  O   UNK N   1      26.287  24.719  -3.294  0.00  0.00    -0.650 OA
BRANCH  12  14
HETATM   14  O   UNK N   1      27.876  24.179  -4.741  0.00  0.00    -0.776 OA
HETATM   15  H   UNK N   1      28.618  24.736  -4.609  0.00  0.00     0.167 HD
ENDBRANCH  12  14
ENDBRANCH   1  12
TORSDOF 9
ENDMDL
