MODEL 1
REMARK VINA RESULT:      -4.2      0.000      0.000
REMARK  5 active torsions:
REMARK  status: ('A' for Active; 'I' for Inactive)
REMARK    1  A    between atoms: O_1  and  C_2 
REMARK    2  A    between atoms: C_2  and  C_4 
REMARK    3  A    between atoms: C_4  and  C_5 
REMARK    4  A    between atoms: C_5  and  C_6 
REMARK    5  A    between atoms: C_6  and  C_8 
ROOT
HETATM    1  C   UNK N   1      22.125  13.305  10.088  0.00  0.00     0.117 C 
ENDROOT
BRANCH   1   2
HETATM    2  C   UNK N   1      20.624  13.300  10.152  0.00  0.00     0.139 C 
HETATM    3  O   UNK N   1      20.031  12.611  10.970  0.00  0.00    -0.650 OA
BRANCH   2   4
HETATM    4  O   UNK N   1      19.920  14.064   9.297  0.00  0.00    -0.776 OA
HETATM    5  H   UNK N   1      19.012  14.234   9.459  0.00  0.00     0.167 HD
ENDBRANCH   2   4
ENDBRANCH   1   2
BRANCH   1   6
HETATM    6  C   UNK N   1      22.702  11.941  10.453  0.00  0.00     0.091 C 
BRANCH   6   7
HETATM    7  C   UNK N   1      23.521  11.929  11.709  0.00  0.00     0.155 C 
HETATM    8  O   UNK N   1      24.738  12.035  11.672  0.00  0.00    -0.295 OA
BRANCH   7   9
HETATM    9  C   UNK N   1      22.808  11.785  13.015  0.00  0.00     0.300 C 
HETATM   10  F   UNK N   1      23.574  12.258  14.065  0.00  0.00    -0.248 F 
ENDBRANCH   7   9
ENDBRANCH   6   7
ENDBRANCH   1   6
TORSDOF 5
ENDMDL
MODEL 2
REMARK VINA RESULT:      -4.2      2.419      4.441
REMARK  5 active torsions:
REMARK  status: ('A' for Active; 'I' for Inactive)
REMARK    1  A    between atoms: O_1  and  C_2 
REMARK    2  A    between atoms: C_2  and  C_4 
REMARK    3  A    between atoms: C_4  and  C_5 
REMARK    4  A    between atoms: C_5  and  C_6 
REMARK    5  A    between atoms: C_6  and  C_8 
ROOT
HETATM    1  C   UNK N   1      22.755  11.780  10.987  0.00  0.00     0.117 C 
ENDROOT
BRANCH   1   2
HETATM    2  C   UNK N   1      23.827  12.068  12.001  0.00  0.00     0.139 C 
HETATM    3  O   UNK N   1      23.593  12.000  13.199  0.00  0.00    -0.650 OA
BRANCH   2   4
HETATM    4  O   UNK N   1      25.061  12.406  11.586  0.00  0.00    -0.776 OA
HETATM    5  H   UNK N   1      25.251  12.451  10.669  0.00  0.00     0.167 HD
ENDBRANCH   2   4
ENDBRANCH   1   2
BRANCH   1   6
HETATM    6  C   UNK N   1      22.425  13.019  10.160  0.00  0.00     0.091 C 
BRANCH   6   7
HETATM    7  C   UNK N   1      20.973  13.392  10.155  0.00  0.00     0.155 C 
HETATM    8  O   UNK N   1      20.142  12.711  10.739  0.00  0.00    -0.295 OA
BRANCH   7   9
HETATM    9  C   UNK N   1      20.564  14.624   9.413  0.00  0.00     0.300 C 
HETATM   10  F   UNK N   1      19.242  14.949   9.661  0.00  0.00    -0.248 F 
ENDBRANCH   7   9
ENDBRANCH   6   7
ENDBRANCH   1   6
TORSDOF 5
ENDMDL
MODEL 3
REMARK VINA RESULT:      -4.2     13.170     13.522
REMARK  5 active torsions:
REMARK  status: ('A' for Active; 'I' for Inactive)
REMARK    1  A    between atoms: O_1  and  C_2 
REMARK    2  A    between atoms: C_2  and  C_4 
REMARK    3  A    between atoms: C_4  and  C_5 
REMARK    4  A    between atoms: C_5  and  C_6 
REMARK    5  A    between atoms: C_6  and  C_8 
ROOT
HETATM    1  C   UNK N   1      33.620  17.371   8.797  0.00  0.00     0.117 C 
ENDROOT
BRANCH   1   2
HETATM    2  C   UNK N   1      34.433  18.263   7.902  0.00  0.00     0.139 C 
HETATM    3  O   UNK N   1      34.378  18.153   6.685  0.00  0.00    -0.650 OA
BRANCH   2   4
HETATM    4  O   UNK N   1      35.235  19.197   8.445  0.00  0.00    -0.776 OA
HETATM    5  H   UNK N   1      35.363  19.222   9.374  0.00  0.00     0.167 HD
ENDBRANCH   2   4
ENDBRANCH   1   2
BRANCH   1   6
HETATM    6  C   UNK N   1      34.412  16.139   9.224  0.00  0.00     0.091 C 
BRANCH   6   7
HETATM    7  C   UNK N   1      35.218  16.323  10.474  0.00  0.00     0.155 C 
HETATM    8  O   UNK N   1      35.966  17.280  10.611  0.00  0.00    -0.295 OA
BRANCH   7   9
HETATM    9  C   UNK N   1      35.083  15.301  11.558  0.00  0.00     0.300 C 
HETATM   10  F   UNK N   1      34.166  14.323  11.220  0.00  0.00    -0.248 F 
ENDBRANCH   7   9
ENDBRANCH   6   7
ENDBRANCH   1   6
TORSDOF 5
ENDMDL
MODEL 4
REMARK VINA RESULT:      -3.9     11.009     12.301
REMARK  5 active torsions:
REMARK  status: ('A' for Active; 'I' for Inactive)
REMARK    1  A    between atoms: O_1  and  C_2 
REMARK    2  A    between atoms: C_2  and  C_4 
REMARK    3  A    between atoms: C_4  and  C_5 
REMARK    4  A    between atoms: C_5  and  C_6 
REMARK    5  A    between atoms: C_6  and  C_8 
ROOT
HETATM    1  C   UNK N   1      33.280  17.542   8.639  0.00  0.00     0.117 C 
ENDROOT
BRANCH   1   2
HETATM    2  C   UNK N   1      34.355  18.251   7.864  0.00  0.00     0.139 C 
HETATM    3  O   UNK N   1      35.035  19.123   8.386  0.00  0.00    -0.650 OA
BRANCH   2   4
HETATM    4  O   UNK N   1      34.574  17.922   6.578  0.00  0.00    -0.776 OA
HETATM    5  H   UNK N   1      34.325  18.513   5.895  0.00  0.00     0.167 HD
ENDBRANCH   2   4
ENDBRANCH   1   2
BRANCH   1   6
HETATM    6  C   UNK N   1      31.937  17.612   7.919  0.00  0.00     0.091 C 
BRANCH   6   7
HETATM    7  C   UNK N   1      30.744  17.538   8.823  0.00  0.00     0.155 C 
HETATM    8  O   UNK N   1      30.422  16.490   9.362  0.00  0.00    -0.295 OA
BRANCH   7   9
HETATM    9  C   UNK N   1      29.952  18.787   9.051  0.00  0.00     0.300 C 
HETATM   10  F   UNK N   1      29.819  19.063  10.399  0.00  0.00    -0.248 F 
ENDBRANCH   7   9
ENDBRANCH   6   7
ENDBRANCH   1   6
TORSDOF 5
ENDMDL
MODEL 5
REMARK VINA RESULT:      -3.9     13.622     14.894
REMARK  5 active torsions:
REMARK  status: ('A' for Active; 'I' for Inactive)
REMARK    1  A    between atoms: O_1  and  C_2 
REMARK    2  A    between atoms: C_2  and  C_4 
REMARK    3  A    between atoms: C_4  and  C_5 
REMARK    4  A    between atoms: C_5  and  C_6 
REMARK    5  A    between atoms: C_6  and  C_8 
ROOT
HETATM    1  C   UNK N   1      35.226  12.495  17.577  0.00  0.00     0.117 C 
ENDROOT
BRANCH   1   2
HETATM    2  C   UNK N   1      35.251  13.454  18.734  0.00  0.00     0.139 C 
HETATM    3  O   UNK N   1      35.306  14.662  18.549  0.00  0.00    -0.650 OA
BRANCH   2   4
HETATM    4  O   UNK N   1      35.213  12.980  19.992  0.00  0.00    -0.776 OA
HETATM    5  H   UNK N   1      35.847  12.350  20.275  0.00  0.00     0.167 HD
ENDBRANCH   2   4
ENDBRANCH   1   2
BRANCH   1   6
HETATM    6  C   UNK N   1      34.495  13.089  16.378  0.00  0.00     0.091 C 
BRANCH   6   7
HETATM    7  C   UNK N   1      35.328  13.202  15.137  0.00  0.00     0.155 C 
HETATM    8  O   UNK N   1      34.812  13.300  14.034  0.00  0.00    -0.295 OA
BRANCH   7   9
HETATM    9  C   UNK N   1      36.817  13.191  15.283  0.00  0.00     0.300 C 
HETATM   10  F   UNK N   1      37.308  14.454  15.558  0.00  0.00    -0.248 F 
ENDBRANCH   7   9
ENDBRANCH   6   7
ENDBRANCH   1   6
TORSDOF 5
ENDMDL
MODEL 6
REMARK VINA RESULT:      -3.9     18.982     19.732
REMARK  5 active torsions:
REMARK  status: ('A' for Active; 'I' for Inactive)
REMARK    1  A    between atoms: O_1  and  C_2 
REMARK    2  A    between atoms: C_2  and  C_4 
REMARK    3  A    between atoms: C_4  and  C_5 
REMARK    4  A    between atoms: C_5  and  C_6 
REMARK    5  A    between atoms: C_6  and  C_8 
ROOT
HETATM    1  C   UNK N   1      29.932  22.996  -3.648  0.00  0.00     0.117 C 
ENDROOT
BRANCH   1   2
HETATM    2  C   UNK N   1      30.653  22.703  -2.362  0.00  0.00     0.139 C 
HETATM    3  O   UNK N   1      30.230  23.121  -1.294  0.00  0.00    -0.650 OA
BRANCH   2   4
HETATM    4  O   UNK N   1      31.781  21.970  -2.384  0.00  0.00    -0.776 OA
HETATM    5  H   UNK N   1      32.532  22.250  -1.898  0.00  0.00     0.167 HD
ENDBRANCH   2   4
ENDBRANCH   1   2
BRANCH   1   6
HETATM    6  C   UNK N   1      29.122  24.284  -3.550  0.00  0.00     0.091 C 
BRANCH   6   7
HETATM    7  C   UNK N   1      27.639  24.081  -3.484  0.00  0.00     0.155 C 
HETATM    8  O   UNK N   1      27.081  23.821  -2.428  0.00  0.00    -0.295 OA
BRANCH   7   9
HETATM    9  C   UNK N   1      26.853  24.204  -4.751  0.00  0.00     0.300 C 
HETATM   10  F   UNK N   1      25.509  24.407  -4.496  0.00  0.00    -0.248 F 
ENDBRANCH   7   9
ENDBRANCH   6   7
ENDBRANCH   1   6
TORSDOF 5
ENDMDL
MODEL 7
REMARK VINA RESULT:      -3.8     14.755     15.239
REMARK  5 active torsions:
REMARK  status: ('A' for Active; 'I' for Inactive)
REMARK    1  A    between atoms: O_1  and  C_2 
REMARK    2  A    between atoms: C_2  and  C_4 
REMARK    3  A    between atoms: C_4  and  C_5 
REMARK    4  A    between atoms: C_5  and  C_6 
REMARK    5  A    between atoms: C_6  and  C_8 
ROOT
HETATM    1  C   UNK N   1      34.888  13.417  16.917  0.00  0.00     0.117 C 
ENDROOT
BRANCH   1   2
HETATM    2  C   UNK N   1      35.315  13.956  18.254  0.00  0.00     0.139 C 
HETATM    3  O   UNK N   1      35.267  13.259  19.257  0.00  0.00    -0.650 OA
BRANCH   2   4
HETATM    4  O   UNK N   1      35.756  15.223  18.349  0.00  0.00    -0.776 OA
HETATM    5  H   UNK N   1      35.166  15.937  18.200  0.00  0.00     0.167 HD
ENDBRANCH   2   4
ENDBRANCH   1   2
BRANCH   1   6
HETATM    6  C   UNK N   1      36.090  12.988  16.081  0.00  0.00     0.091 C 
BRANCH   6   7
HETATM    7  C   UNK N   1      36.725  14.095  15.295  0.00  0.00     0.155 C 
HETATM    8  O   UNK N   1      37.528  14.859  15.811  0.00  0.00    -0.295 OA
BRANCH   7   9
HETATM    9  C   UNK N   1      36.349  14.244  13.855  0.00  0.00     0.300 C 
HETATM   10  F   UNK N   1      36.941  13.269  13.074  0.00  0.00    -0.248 F 
ENDBRANCH   7   9
ENDBRANCH   6   7
ENDBRANCH   1   6
TORSDOF 5
ENDMDL
MODEL 8
REMARK VINA RESULT:      -3.8     21.173     22.127
REMARK  5 active torsions:
REMARK  status: ('A' for Active; 'I' for Inactive)
REMARK    1  A    between atoms: O_1  and  C_2 
REMARK    2  A    between atoms: C_2  and  C_4 
REMARK    3  A    between atoms: C_4  and  C_5 
REMARK    4  A    between atoms: C_5  and  C_6 
REMARK    5  A    between atoms: C_6  and  C_8 
ROOT
HETATM    1  C   UNK N   1      25.134  26.594  -5.505  0.00  0.00     0.117 C 
ENDROOT
BRANCH   1   2
HETATM    2  C   UNK N   1      25.484  25.180  -5.134  0.00  0.00     0.139 C 
HETATM    3  O   UNK N   1      25.304  24.261  -5.920  0.00  0.00    -0.650 OA
BRANCH   2   4
HETATM    4  O   UNK N   1      26.003  24.920  -3.920  0.00  0.00    -0.776 OA
HETATM    5  H   UNK N   1      25.446  24.898  -3.167  0.00  0.00     0.167 HD
ENDBRANCH   2   4
ENDBRANCH   1   2
BRANCH   1   6
HETATM    6  C   UNK N   1      26.251  27.561  -5.125  0.00  0.00     0.091 C 
BRANCH   6   7
HETATM    7  C   UNK N   1      25.987  28.353  -3.880  0.00  0.00     0.155 C 
HETATM    8  O   UNK N   1      25.464  27.841  -2.901  0.00  0.00    -0.295 OA
BRANCH   7   9
HETATM    9  C   UNK N   1      26.382  29.796  -3.865  0.00  0.00     0.300 C 
HETATM   10  F   UNK N   1      26.990  30.167  -5.050  0.00  0.00    -0.248 F 
ENDBRANCH   7   9
ENDBRANCH   6   7
ENDBRANCH   1   6
TORSDOF 5
ENDMDL
MODEL 9
REMARK VINA RESULT:      -3.7     12.814     14.168
REMARK  5 active torsions:
REMARK  status: ('A' for Active; 'I' for Inactive)
REMARK    1  A    between atoms: O_1  and  C_2 
REMARK    2  A    between atoms: C_2  and  C_4 
REMARK    3  A    between atoms: C_4  and  C_5 
REMARK    4  A    between atoms: C_5  and  C_6 
REMARK    5  A    between atoms: C_6  and  C_8 
ROOT
HETATM    1  C   UNK N   1      35.099  12.492  17.562  0.00  0.00     0.117 C 
ENDROOT
BRANCH   1   2
HETATM    2  C   UNK N   1      35.232  13.503  18.667  0.00  0.00     0.139 C 
HETATM    3  O   UNK N   1      35.143  13.167  19.840  0.00  0.00    -0.650 OA
BRANCH   2   4
HETATM    4  O   UNK N   1      35.452  14.795  18.364  0.00  0.00    -0.776 OA
HETATM    5  H   UNK N   1      34.991  15.194  17.652  0.00  0.00     0.167 HD
ENDBRANCH   2   4
ENDBRANCH   1   2
BRANCH   1   6
HETATM    6  C   UNK N   1      35.361  13.123  16.198  0.00  0.00     0.091 C 
BRANCH   6   7
HETATM    7  C   UNK N   1      34.726  12.400  15.049  0.00  0.00     0.155 C 
HETATM    8  O   UNK N   1      34.550  12.952  13.972  0.00  0.00    -0.295 OA
BRANCH   7   9
HETATM    9  C   UNK N   1      34.309  10.978  15.253  0.00  0.00     0.300 C 
HETATM   10  F   UNK N   1      33.055  10.736  14.723  0.00  0.00    -0.248 F 
ENDBRANCH   7   9
ENDBRANCH   6   7
ENDBRANCH   1   6
TORSDOF 5
ENDMDL
