REMARK  12 active torsions:
REMARK  status: ('A' for Active; 'I' for Inactive)
REMARK    1  A    between atoms: O_1  and  C_2 
REMARK    2  A    between atoms: C_2  and  C_3 
REMARK    3  A    between atoms: C_3  and  O_4 
REMARK    4  A    between atoms: C_3  and  C_5 
REMARK    5  A    between atoms: C_5  and  O_6 
REMARK    6  A    between atoms: C_5  and  C_7 
REMARK    7  A    between atoms: C_7  and  O_8 
REMARK    8  A    between atoms: C_7  and  C_9 
REMARK    9  A    between atoms: C_9  and  O_10 
REMARK   10  A    between atoms: O_10  and  P_11 
REMARK   11  A    between atoms: P_11  and  O_12 
REMARK   12  A    between atoms: P_11  and  O_13 
ROOT
HETATM    1  C   UNK N   1       6.074  -3.071  -0.369  0.00  0.00     0.173 C 
ENDROOT
BRANCH   1   2
HETATM    2  C   UNK N   1       4.809  -2.670   0.412  0.00  0.00     0.179 C 
BRANCH   2   3
HETATM    3  C   UNK N   1       3.511  -2.910  -0.381  0.00  0.00     0.173 C 
BRANCH   3   4
HETATM    4  C   UNK N   1       2.286  -2.401   0.367  0.00  0.00     0.198 C 
BRANCH   4   5
HETATM    5  O   UNK N   1       2.172  -1.018   0.226  0.00  0.00    -0.398 OA
HETATM    6  H   UNK N   1       2.965  -0.469   0.129  0.00  0.00     0.209 HD
ENDBRANCH   4   5
ENDBRANCH   3   4
BRANCH   3   7
HETATM    7  O   UNK N   1       3.336  -4.277  -0.596  0.00  0.00    -0.391 OA
HETATM    8  H   UNK N   1       2.452  -4.646  -0.746  0.00  0.00     0.210 HD
ENDBRANCH   3   7
ENDBRANCH   2   3
BRANCH   2   9
HETATM    9  O   UNK N   1       4.912  -1.327   0.780  0.00  0.00    -0.390 OA
HETATM   10  H   UNK N   1       5.755  -0.922   1.035  0.00  0.00     0.210 HD
ENDBRANCH   2   9
ENDBRANCH   1   2
BRANCH   1  11
HETATM   11  O   UNK N   1       5.942  -4.338  -0.933  0.00  0.00    -0.391 OA
HETATM   12  H   UNK N   1       5.132  -4.700  -1.325  0.00  0.00     0.210 HD
ENDBRANCH   1  11
BRANCH   1  13
HETATM   13  C   UNK N   1       7.282  -3.100   0.559  0.00  0.00     0.214 C 
BRANCH  13  14
HETATM   14  O   UNK N   1       7.781  -1.817   0.787  0.00  0.00    -0.294 OA
BRANCH  14  15
HETATM   15  P   UNK N   1       9.269  -1.737  -0.117  0.00  0.00     0.390 P 
HETATM   16  O   UNK N   1       8.946  -1.080  -1.485  0.00  0.00    -0.632 OA
BRANCH  15  17
HETATM   17  O   UNK N   1      10.433  -0.721   0.673  0.00  0.00    -0.307 OA
HETATM   18  H   UNK N   1      11.250  -1.000   1.114  0.00  0.00     0.222 HD
ENDBRANCH  15  17
BRANCH  15  19
HETATM   19  O   UNK N   1       9.950  -3.303  -0.447  0.00  0.00    -0.307 OA
HETATM   20  H   UNK N   1       9.383  -4.069  -0.630  0.00  0.00     0.222 HD
ENDBRANCH  15  19
ENDBRANCH  14  15
ENDBRANCH  13  14
ENDBRANCH   1  13
TORSDOF 12
