REMARK  7 active torsions:
REMARK  status: ('A' for Active; 'I' for Inactive)
REMARK    1  A    between atoms: C_6  and  C_3 
REMARK    2  A    between atoms: C_7  and  C_3 
REMARK    3  A    between atoms: C_9  and  C_6 
REMARK    4  A    between atoms: N_11  and  C_8 
REMARK    5  A    between atoms: C_10  and  C_9 
REMARK    6  A    between atoms: C_9  and  N_12 
REMARK    7  A    between atoms: O_14  and  C_10 
ROOT
HETATM    1  C   UNK N   1      -1.322   2.726  -0.301  0.00  0.00     0.015 C 
ENDROOT
BRANCH   1   2
HETATM    2  C   UNK N   1      -0.215   2.831   0.752  0.00  0.00     0.036 C 
BRANCH   2   3
HETATM    3  C   UNK N   1       1.206   2.872   0.188  0.00  0.00     0.173 C 
BRANCH   3   4
HETATM    4  C   UNK N   1       1.602   1.612  -0.538  0.00  0.00     0.163 C 
HETATM    5  O   UNK N   1       2.736   1.498  -0.974  0.00  0.00    -0.648 OA
BRANCH   4   6
HETATM    6  O   UNK N   1       0.727   0.599  -0.697  0.00  0.00    -0.775 OA
HETATM    7  H   UNK N   1      -0.187   0.774  -0.809  0.00  0.00     0.167 HD
ENDBRANCH   4   6
ENDBRANCH   3   4
BRANCH   3   8
HETATM    8  N   UNK N   1       1.361   4.021  -0.689  0.00  0.00    -0.418 N 
HETATM    9  H   UNK N   1       2.114   4.330  -1.304  0.00  0.00     0.150 HD
HETATM   10  H   UNK N   1       0.554   4.645  -0.689  0.00  0.00     0.150 HD
ENDBRANCH   3   8
ENDBRANCH   2   3
ENDBRANCH   1   2
BRANCH   1  11
HETATM   11  C   UNK N   1      -2.684   2.643   0.386  0.00  0.00     0.030 A 
HETATM   12  C   UNK N   1      -3.783   2.779  -0.636  0.00  0.00    -0.020 A 
HETATM   13  C   UNK N   1      -4.777   1.889  -0.767  0.00  0.00    -0.002 A 
HETATM   14  C   UNK N   1      -4.893   0.652   0.084  0.00  0.00     0.119 A 
HETATM   15  C   UNK N   1      -3.764   0.481   1.062  0.00  0.00    -0.002 A 
HETATM   16  C   UNK N   1      -2.777   1.374   1.201  0.00  0.00    -0.020 A 
BRANCH  14  17
HETATM   17  N   UNK N   1      -4.950  -0.511  -0.781  0.00  0.00    -0.420 N 
HETATM   18  H   UNK N   1      -5.678  -0.885  -1.390  0.00  0.00     0.150 HD
HETATM   19  H   UNK N   1      -4.093  -1.064  -0.781  0.00  0.00     0.150 HD
ENDBRANCH  14  17
ENDBRANCH   1  11
TORSDOF 7
