REMARK  5 active torsions:
REMARK  status: ('A' for Active; 'I' for Inactive)
REMARK    1  A    between atoms: C_3  and  C_2 
REMARK    2  A    between atoms: O_7  and  C_2 
REMARK    3  A    between atoms: C_4  and  O_8 
REMARK    4  A    between atoms: C_5  and  O_9 
REMARK    5  A    between atoms: C_6  and  O_10 
ROOT
HETATM    1  C   UNK N   1       1.987   1.255  -0.711  0.00  0.00     0.068 C 
HETATM    2  C   UNK N   1       0.768   1.945  -0.086  0.00  0.00     0.150 C 
HETATM    3  C   UNK N   1       2.153  -0.138  -0.108  0.00  0.00     0.154 C 
HETATM    4  C   UNK N   1       0.832  -0.902  -0.258  0.00  0.00     0.201 C 
HETATM    5  C   UNK N   1      -0.326  -0.069   0.323  0.00  0.00     0.288 C 
HETATM    6  O   UNK N   1      -0.408   1.186  -0.328  0.00  0.00    -0.351 OA
ENDROOT
BRANCH   2   7
HETATM    7  C   UNK N   1       0.618   3.316  -0.724  0.00  0.00     0.196 C 
BRANCH   7   8
HETATM    8  O   UNK N   1      -0.441   4.008  -0.132  0.00  0.00    -0.398 OA
HETATM    9  H   UNK N   1      -0.392   4.885   0.279  0.00  0.00     0.209 HD
ENDBRANCH   7   8
ENDBRANCH   2   7
BRANCH   3  10
HETATM   10  O   UNK N   1       2.502  -0.023   1.241  0.00  0.00    -0.393 OA
HETATM   11  H   UNK N   1       2.692  -0.193   2.177  0.00  0.00     0.210 HD
ENDBRANCH   3  10
BRANCH   5  12
HETATM   12  O   UNK N   1      -1.527  -0.754   0.121  0.00  0.00    -0.369 OA
HETATM   13  H   UNK N   1      -2.355  -0.270  -0.020  0.00  0.00     0.212 HD
ENDBRANCH   5  12
BRANCH   4  14
HETATM   14  O   UNK N   1       0.915  -2.141   0.380  0.00  0.00    -0.388 OA
HETATM   15  H   UNK N   1       0.199  -2.622   0.824  0.00  0.00     0.210 HD
ENDBRANCH   4  14
TORSDOF 5
