REMARK  3 active torsions:
REMARK  status: ('A' for Active; 'I' for Inactive)
REMARK    1  A    between atoms: O_2  and  C_3 
REMARK    2  A    between atoms: C_3  and  C_4 
REMARK    3  A    between atoms: C_4  and  O_5 
ROOT
HETATM    1  C   UNK N   1       1.270  -0.922  -0.000  0.00  0.00     0.193 C 
ENDROOT
BRANCH   1   2
HETATM    2  O   UNK N   1       2.651  -0.750   0.000  0.00  0.00    -0.394 OA
HETATM    3  C   UNK N   1       3.158  -2.047   0.000  0.00  0.00     0.201 C 
ENDBRANCH   1   2
BRANCH   1   4
HETATM    4  C   UNK N   1       0.594   0.431  -0.000  0.00  0.00     0.190 C 
BRANCH   4   5
HETATM    5  O   UNK N   1      -0.786   0.252   0.000  0.00  0.00    -0.399 OA
HETATM    6  H   UNK N   1      -1.375   1.023   0.000  0.00  0.00     0.209 HD
ENDBRANCH   4   5
ENDBRANCH   1   4
TORSDOF 3
