MODEL 1
REMARK VINA RESULT:      -5.2      0.000      0.000
REMARK  5 active torsions:
REMARK  status: ('A' for Active; 'I' for Inactive)
REMARK    1  A    between atoms: C_4  and  O_8 
REMARK    2  A    between atoms: C_5  and  O_9 
REMARK    3  A    between atoms: C_7  and  C_6 
REMARK    4  A    between atoms: O_11  and  C_6 
REMARK    5  A    between atoms: C_7  and  O_12 
ROOT
HETATM    1  C   UNK N   1      34.532  14.329   8.222  0.00  0.00     0.006 C 
HETATM    2  C   UNK N   1      35.039  15.574   8.264  0.00  0.00     0.020 C 
HETATM    3  C   UNK N   1      32.735  16.481   8.668  0.00  0.00     0.088 C 
HETATM    4  C   UNK N   1      33.126  13.985   8.666  0.00  0.00     0.169 C 
HETATM    5  C   UNK N   1      32.390  15.156   9.350  0.00  0.00     0.154 C 
HETATM    6  C   UNK N   1      34.251  16.764   8.761  0.00  0.00     0.162 C 
ENDROOT
BRANCH   6   7
HETATM    7  C   UNK N   1      34.571  18.023   7.995  0.00  0.00     0.180 C 
HETATM    8  O   UNK N   1      34.258  18.110   6.819  0.00  0.00    -0.648 OA
BRANCH   7   9
HETATM    9  O   UNK N   1      35.165  19.071   8.601  0.00  0.00    -0.774 OA
HETATM   10  H   UNK N   1      34.700  19.876   8.724  0.00  0.00     0.167 HD
ENDBRANCH   7   9
ENDBRANCH   6   7
BRANCH   6  11
HETATM   11  O   UNK N   1      34.615  16.981  10.092  0.00  0.00    -0.375 OA
HETATM   12  H   UNK N   1      35.331  17.211  10.705  0.00  0.00     0.211 HD
ENDBRANCH   6  11
BRANCH   5  13
HETATM   13  O   UNK N   1      32.746  15.225  10.699  0.00  0.00    -0.393 OA
HETATM   14  H   UNK N   1      33.149  14.806  11.475  0.00  0.00     0.210 HD
ENDBRANCH   5  13
BRANCH   4  15
HETATM   15  O   UNK N   1      32.413  13.575   7.538  0.00  0.00    -0.389 OA
HETATM   16  H   UNK N   1      31.864  12.901   7.109  0.00  0.00     0.210 HD
ENDBRANCH   4  15
TORSDOF 5
ENDMDL
MODEL 2
REMARK VINA RESULT:      -5.0      0.856      3.967
REMARK  5 active torsions:
REMARK  status: ('A' for Active; 'I' for Inactive)
REMARK    1  A    between atoms: C_4  and  O_8 
REMARK    2  A    between atoms: C_5  and  O_9 
REMARK    3  A    between atoms: C_7  and  C_6 
REMARK    4  A    between atoms: O_11  and  C_6 
REMARK    5  A    between atoms: C_7  and  O_12 
ROOT
HETATM    1  C   UNK N   1      32.581  17.644   8.225  0.00  0.00     0.006 C 
HETATM    2  C   UNK N   1      32.078  16.428   8.503  0.00  0.00     0.020 C 
HETATM    3  C   UNK N   1      34.411  15.530   8.714  0.00  0.00     0.088 C 
HETATM    4  C   UNK N   1      34.037  18.011   8.424  0.00  0.00     0.169 C 
HETATM    5  C   UNK N   1      34.853  16.926   9.156  0.00  0.00     0.154 C 
HETATM    6  C   UNK N   1      32.921  15.297   9.047  0.00  0.00     0.162 C 
ENDROOT
BRANCH   6   7
HETATM    7  C   UNK N   1      32.494  13.955   8.511  0.00  0.00     0.180 C 
HETATM    8  O   UNK N   1      32.189  13.845   7.334  0.00  0.00    -0.648 OA
BRANCH   7   9
HETATM    9  O   UNK N   1      32.478  12.864   9.303  0.00  0.00    -0.774 OA
HETATM   10  H   UNK N   1      32.282  12.020   8.946  0.00  0.00     0.167 HD
ENDBRANCH   7   9
ENDBRANCH   6   7
BRANCH   6  11
HETATM   11  O   UNK N   1      32.741  15.270  10.433  0.00  0.00    -0.375 OA
HETATM   12  H   UNK N   1      32.253  15.631  11.189  0.00  0.00     0.211 HD
ENDBRANCH   6  11
BRANCH   5  13
HETATM   13  O   UNK N   1      34.684  17.047  10.537  0.00  0.00    -0.393 OA
HETATM   14  H   UNK N   1      34.793  16.671  11.425  0.00  0.00     0.210 HD
ENDBRANCH   5  13
BRANCH   4  15
HETATM   15  O   UNK N   1      34.592  18.249   7.166  0.00  0.00    -0.389 OA
HETATM   16  H   UNK N   1      35.128  18.820   6.595  0.00  0.00     0.210 HD
ENDBRANCH   4  15
TORSDOF 5
ENDMDL
MODEL 3
REMARK VINA RESULT:      -5.0     10.386     12.278
REMARK  5 active torsions:
REMARK  status: ('A' for Active; 'I' for Inactive)
REMARK    1  A    between atoms: C_4  and  O_8 
REMARK    2  A    between atoms: C_5  and  O_9 
REMARK    3  A    between atoms: C_7  and  C_6 
REMARK    4  A    between atoms: O_11  and  C_6 
REMARK    5  A    between atoms: C_7  and  O_12 
ROOT
HETATM    1  C   UNK N   1      22.954  11.891  11.352  0.00  0.00     0.006 C 
HETATM    2  C   UNK N   1      21.811  12.392  10.851  0.00  0.00     0.020 C 
HETATM    3  C   UNK N   1      23.138  13.657   9.137  0.00  0.00     0.088 C 
HETATM    4  C   UNK N   1      24.290  11.991  10.646  0.00  0.00     0.169 C 
HETATM    5  C   UNK N   1      24.191  12.550   9.212  0.00  0.00     0.154 C 
HETATM    6  C   UNK N   1      21.745  13.112   9.523  0.00  0.00     0.162 C 
ENDROOT
BRANCH   6   7
HETATM    7  C   UNK N   1      20.752  14.246   9.535  0.00  0.00     0.180 C 
HETATM    8  O   UNK N   1      21.106  15.362   9.190  0.00  0.00    -0.648 OA
BRANCH   7   9
HETATM    9  O   UNK N   1      19.466  14.040   9.888  0.00  0.00    -0.774 OA
HETATM   10  H   UNK N   1      18.978  13.334   9.511  0.00  0.00     0.167 HD
ENDBRANCH   7   9
ENDBRANCH   6   7
BRANCH   6  11
HETATM   11  O   UNK N   1      21.312  12.188   8.568  0.00  0.00    -0.375 OA
HETATM   12  H   UNK N   1      21.561  11.634   7.812  0.00  0.00     0.211 HD
ENDBRANCH   6  11
BRANCH   5  13
HETATM   13  O   UNK N   1      23.852  11.529   8.320  0.00  0.00    -0.393 OA
HETATM   14  H   UNK N   1      23.865  10.587   8.091  0.00  0.00     0.210 HD
ENDBRANCH   5  13
BRANCH   4  15
HETATM   15  O   UNK N   1      25.117  12.811  11.416  0.00  0.00    -0.389 OA
HETATM   16  H   UNK N   1      25.218  13.618  11.944  0.00  0.00     0.210 HD
ENDBRANCH   4  15
TORSDOF 5
ENDMDL
MODEL 4
REMARK VINA RESULT:      -4.9      5.105      5.889
REMARK  5 active torsions:
REMARK  status: ('A' for Active; 'I' for Inactive)
REMARK    1  A    between atoms: C_4  and  O_8 
REMARK    2  A    between atoms: C_5  and  O_9 
REMARK    3  A    between atoms: C_7  and  C_6 
REMARK    4  A    between atoms: O_11  and  C_6 
REMARK    5  A    between atoms: C_7  and  O_12 
ROOT
HETATM    1  C   UNK N   1      34.758  12.362  13.342  0.00  0.00     0.006 C 
HETATM    2  C   UNK N   1      35.181  13.080  12.287  0.00  0.00     0.020 C 
HETATM    3  C   UNK N   1      36.372  14.641  13.849  0.00  0.00     0.088 C 
HETATM    4  C   UNK N   1      35.307  12.531  14.742  0.00  0.00     0.169 C 
HETATM    5  C   UNK N   1      36.532  13.467  14.817  0.00  0.00     0.154 C 
HETATM    6  C   UNK N   1      36.257  14.137  12.394  0.00  0.00     0.162 C 
ENDROOT
BRANCH   6   7
HETATM    7  C   UNK N   1      36.001  15.309  11.480  0.00  0.00     0.180 C 
HETATM    8  O   UNK N   1      34.854  15.658  11.253  0.00  0.00    -0.648 OA
BRANCH   7   9
HETATM    9  O   UNK N   1      37.023  16.002  10.937  0.00  0.00    -0.774 OA
HETATM   10  H   UNK N   1      37.162  15.997  10.011  0.00  0.00     0.167 HD
ENDBRANCH   7   9
ENDBRANCH   6   7
BRANCH   6  11
HETATM   11  O   UNK N   1      37.461  13.551  11.995  0.00  0.00    -0.375 OA
HETATM   12  H   UNK N   1      38.237  13.038  12.268  0.00  0.00     0.211 HD
ENDBRANCH   6  11
BRANCH   5  13
HETATM   13  O   UNK N   1      37.695  12.763  14.498  0.00  0.00    -0.393 OA
HETATM   14  H   UNK N   1      38.211  11.943  14.548  0.00  0.00     0.210 HD
ENDBRANCH   5  13
BRANCH   4  15
HETATM   15  O   UNK N   1      34.281  13.034  15.544  0.00  0.00    -0.389 OA
HETATM   16  H   UNK N   1      33.430  12.886  15.984  0.00  0.00     0.210 HD
ENDBRANCH   4  15
TORSDOF 5
ENDMDL
MODEL 5
REMARK VINA RESULT:      -4.9     12.981     14.291
REMARK  5 active torsions:
REMARK  status: ('A' for Active; 'I' for Inactive)
REMARK    1  A    between atoms: C_4  and  O_8 
REMARK    2  A    between atoms: C_5  and  O_9 
REMARK    3  A    between atoms: C_7  and  C_6 
REMARK    4  A    between atoms: O_11  and  C_6 
REMARK    5  A    between atoms: C_7  and  O_12 
ROOT
HETATM    1  C   UNK N   1      31.980  23.729  -4.213  0.00  0.00     0.006 C 
HETATM    2  C   UNK N   1      30.909  24.050  -3.465  0.00  0.00     0.020 C 
HETATM    3  C   UNK N   1      30.321  21.617  -3.291  0.00  0.00     0.088 C 
HETATM    4  C   UNK N   1      32.501  22.315  -4.360  0.00  0.00     0.169 C 
HETATM    5  C   UNK N   1      31.812  21.301  -3.423  0.00  0.00     0.154 C 
HETATM    6  C   UNK N   1      30.113  23.025  -2.691  0.00  0.00     0.162 C 
ENDROOT
BRANCH   6   7
HETATM    7  C   UNK N   1      28.639  23.343  -2.667  0.00  0.00     0.180 C 
HETATM    8  O   UNK N   1      27.978  23.067  -1.678  0.00  0.00    -0.648 OA
BRANCH   7   9
HETATM    9  O   UNK N   1      28.046  23.961  -3.708  0.00  0.00    -0.774 OA
HETATM   10  H   UNK N   1      27.767  23.471  -4.457  0.00  0.00     0.167 HD
ENDBRANCH   7   9
ENDBRANCH   6   7
BRANCH   6  11
HETATM   11  O   UNK N   1      30.568  23.052  -1.370  0.00  0.00    -0.375 OA
HETATM   12  H   UNK N   1      30.975  22.550  -0.647  0.00  0.00     0.211 HD
ENDBRANCH   6  11
BRANCH   5  13
HETATM   13  O   UNK N   1      32.405  21.335  -2.159  0.00  0.00    -0.393 OA
HETATM   14  H   UNK N   1      33.014  20.943  -1.515  0.00  0.00     0.210 HD
ENDBRANCH   5  13
BRANCH   4  15
HETATM   15  O   UNK N   1      32.316  21.929  -5.689  0.00  0.00    -0.389 OA
HETATM   16  H   UNK N   1      32.537  21.320  -6.409  0.00  0.00     0.210 HD
ENDBRANCH   4  15
TORSDOF 5
ENDMDL
MODEL 6
REMARK VINA RESULT:      -4.9     13.728     14.717
REMARK  5 active torsions:
REMARK  status: ('A' for Active; 'I' for Inactive)
REMARK    1  A    between atoms: C_4  and  O_8 
REMARK    2  A    between atoms: C_5  and  O_9 
REMARK    3  A    between atoms: C_7  and  C_6 
REMARK    4  A    between atoms: O_11  and  C_6 
REMARK    5  A    between atoms: C_7  and  O_12 
ROOT
HETATM    1  C   UNK N   1      22.100  17.968   3.851  0.00  0.00     0.006 C 
HETATM    2  C   UNK N   1      21.744  19.143   3.303  0.00  0.00     0.020 C 
HETATM    3  C   UNK N   1      20.273  17.921   1.680  0.00  0.00     0.088 C 
HETATM    4  C   UNK N   1      21.387  16.663   3.567  0.00  0.00     0.169 C 
HETATM    5  C   UNK N   1      20.095  16.833   2.741  0.00  0.00     0.154 C 
HETATM    6  C   UNK N   1      20.588  19.281   2.340  0.00  0.00     0.162 C 
ENDROOT
BRANCH   6   7
HETATM    7  C   UNK N   1      20.855  20.306   1.267  0.00  0.00     0.180 C 
HETATM    8  O   UNK N   1      21.277  21.408   1.577  0.00  0.00    -0.648 OA
BRANCH   7   9
HETATM    9  O   UNK N   1      20.670  20.010  -0.036  0.00  0.00    -0.774 OA
HETATM   10  H   UNK N   1      21.193  20.422  -0.696  0.00  0.00     0.167 HD
ENDBRANCH   7   9
ENDBRANCH   6   7
BRANCH   6  11
HETATM   11  O   UNK N   1      19.483  19.723   3.073  0.00  0.00    -0.375 OA
HETATM   12  H   UNK N   1      19.158  20.034   3.932  0.00  0.00     0.211 HD
ENDBRANCH   6  11
BRANCH   5  13
HETATM   13  O   UNK N   1      19.030  17.176   3.578  0.00  0.00    -0.393 OA
HETATM   14  H   UNK N   1      18.667  17.247   4.474  0.00  0.00     0.210 HD
ENDBRANCH   5  13
BRANCH   4  15
HETATM   15  O   UNK N   1      22.276  15.832   2.884  0.00  0.00    -0.389 OA
HETATM   16  H   UNK N   1      22.409  15.095   2.269  0.00  0.00     0.210 HD
ENDBRANCH   4  15
TORSDOF 5
ENDMDL
MODEL 7
REMARK VINA RESULT:      -4.8      2.949      3.486
REMARK  5 active torsions:
REMARK  status: ('A' for Active; 'I' for Inactive)
REMARK    1  A    between atoms: C_4  and  O_8 
REMARK    2  A    between atoms: C_5  and  O_9 
REMARK    3  A    between atoms: C_7  and  C_6 
REMARK    4  A    between atoms: O_11  and  C_6 
REMARK    5  A    between atoms: C_7  and  O_12 
ROOT
HETATM    1  C   UNK N   1      35.702  13.177   9.749  0.00  0.00     0.006 C 
HETATM    2  C   UNK N   1      35.793  14.489   9.471  0.00  0.00     0.020 C 
HETATM    3  C   UNK N   1      35.062  15.018  11.811  0.00  0.00     0.088 C 
HETATM    4  C   UNK N   1      35.549  12.629  11.152  0.00  0.00     0.169 C 
HETATM    5  C   UNK N   1      35.699  13.699  12.253  0.00  0.00     0.154 C 
HETATM    6  C   UNK N   1      35.751  15.558  10.539  0.00  0.00     0.162 C 
ENDROOT
BRANCH   6   7
HETATM    7  C   UNK N   1      35.037  16.802  10.075  0.00  0.00     0.180 C 
HETATM    8  O   UNK N   1      35.631  17.868  10.058  0.00  0.00    -0.648 OA
BRANCH   7   9
HETATM    9  O   UNK N   1      33.760  16.750   9.644  0.00  0.00    -0.774 OA
HETATM   10  H   UNK N   1      33.304  17.536   9.413  0.00  0.00     0.167 HD
ENDBRANCH   7   9
ENDBRANCH   6   7
BRANCH   6  11
HETATM   11  O   UNK N   1      37.071  15.916  10.825  0.00  0.00    -0.375 OA
HETATM   12  H   UNK N   1      37.743  16.032  11.515  0.00  0.00     0.211 HD
ENDBRANCH   6  11
BRANCH   5  13
HETATM   13  O   UNK N   1      37.050  13.912  12.536  0.00  0.00    -0.393 OA
HETATM   14  H   UNK N   1      37.744  14.485  12.897  0.00  0.00     0.210 HD
ENDBRANCH   5  13
BRANCH   4  15
HETATM   15  O   UNK N   1      34.289  12.035  11.241  0.00  0.00    -0.389 OA
HETATM   16  H   UNK N   1      33.457  11.796  10.805  0.00  0.00     0.210 HD
ENDBRANCH   4  15
TORSDOF 5
ENDMDL
MODEL 8
REMARK VINA RESULT:      -4.7      1.552      2.923
REMARK  5 active torsions:
REMARK  status: ('A' for Active; 'I' for Inactive)
REMARK    1  A    between atoms: C_4  and  O_8 
REMARK    2  A    between atoms: C_5  and  O_9 
REMARK    3  A    between atoms: C_7  and  C_6 
REMARK    4  A    between atoms: O_11  and  C_6 
REMARK    5  A    between atoms: C_7  and  O_12 
ROOT
HETATM    1  C   UNK N   1      31.844  16.120   7.341  0.00  0.00     0.006 C 
HETATM    2  C   UNK N   1      32.570  17.186   7.722  0.00  0.00     0.020 C 
HETATM    3  C   UNK N   1      34.668  15.846   7.417  0.00  0.00     0.088 C 
HETATM    4  C   UNK N   1      32.445  14.889   6.696  0.00  0.00     0.169 C 
HETATM    5  C   UNK N   1      33.938  15.044   6.339  0.00  0.00     0.154 C 
HETATM    6  C   UNK N   1      34.069  17.264   7.543  0.00  0.00     0.162 C 
ENDROOT
BRANCH   6   7
HETATM    7  C   UNK N   1      34.744  17.990   8.679  0.00  0.00     0.180 C 
HETATM    8  O   UNK N   1      34.840  17.450   9.769  0.00  0.00    -0.648 OA
BRANCH   7   9
HETATM    9  O   UNK N   1      35.277  19.216   8.498  0.00  0.00    -0.774 OA
HETATM   10  H   UNK N   1      35.515  19.744   9.235  0.00  0.00     0.167 HD
ENDBRANCH   7   9
ENDBRANCH   6   7
BRANCH   6  11
HETATM   11  O   UNK N   1      34.315  17.991   6.376  0.00  0.00    -0.375 OA
HETATM   12  H   UNK N   1      33.996  18.227   5.491  0.00  0.00     0.211 HD
ENDBRANCH   6  11
BRANCH   5  13
HETATM   13  O   UNK N   1      34.073  15.693   5.110  0.00  0.00    -0.393 OA
HETATM   14  H   UNK N   1      34.240  15.642   4.156  0.00  0.00     0.210 HD
ENDBRANCH   5  13
BRANCH   4  15
HETATM   15  O   UNK N   1      32.281  13.822   7.581  0.00  0.00    -0.389 OA
HETATM   16  H   UNK N   1      31.944  12.928   7.741  0.00  0.00     0.210 HD
ENDBRANCH   4  15
TORSDOF 5
ENDMDL
MODEL 9
REMARK VINA RESULT:      -4.7      5.000      6.345
REMARK  5 active torsions:
REMARK  status: ('A' for Active; 'I' for Inactive)
REMARK    1  A    between atoms: C_4  and  O_8 
REMARK    2  A    between atoms: C_5  and  O_9 
REMARK    3  A    between atoms: C_7  and  C_6 
REMARK    4  A    between atoms: O_11  and  C_6 
REMARK    5  A    between atoms: C_7  and  O_12 
ROOT
HETATM    1  C   UNK N   1      37.037  13.063  11.325  0.00  0.00     0.006 C 
HETATM    2  C   UNK N   1      36.889  12.693  12.609  0.00  0.00     0.020 C 
HETATM    3  C   UNK N   1      36.028  14.985  13.153  0.00  0.00     0.088 C 
HETATM    4  C   UNK N   1      36.450  14.335  10.749  0.00  0.00     0.169 C 
HETATM    5  C   UNK N   1      35.504  15.072  11.719  0.00  0.00     0.154 C 
HETATM    6  C   UNK N   1      36.115  13.514  13.615  0.00  0.00     0.162 C 
ENDROOT
BRANCH   6   7
HETATM    7  C   UNK N   1      36.727  13.459  14.991  0.00  0.00     0.180 C 
HETATM    8  O   UNK N   1      36.487  12.510  15.721  0.00  0.00    -0.648 OA
BRANCH   7   9
HETATM    9  O   UNK N   1      37.567  14.425  15.417  0.00  0.00    -0.774 OA
HETATM   10  H   UNK N   1      37.374  15.328  15.255  0.00  0.00     0.167 HD
ENDBRANCH   7   9
ENDBRANCH   6   7
BRANCH   6  11
HETATM   11  O   UNK N   1      34.833  12.966  13.705  0.00  0.00    -0.375 OA
HETATM   12  H   UNK N   1      33.929  13.080  14.038  0.00  0.00     0.211 HD
ENDBRANCH   6  11
BRANCH   5  13
HETATM   13  O   UNK N   1      34.225  14.514  11.661  0.00  0.00    -0.393 OA
HETATM   14  H   UNK N   1      33.649  13.780  11.395  0.00  0.00     0.210 HD
ENDBRANCH   5  13
BRANCH   4  15
HETATM   15  O   UNK N   1      37.510  15.172  10.398  0.00  0.00    -0.389 OA
HETATM   16  H   UNK N   1      37.815  16.059  10.154  0.00  0.00     0.210 HD
ENDBRANCH   4  15
TORSDOF 5
ENDMDL
