MODEL 1
REMARK VINA RESULT:      -3.1      0.000      0.000
REMARK  0 active torsions:
REMARK  status: ('A' for Active; 'I' for Inactive)
ROOT
HETATM    1  C   UNK N   1      21.342  12.334  10.981  0.00  0.00     0.156 C 
HETATM    2  N   UNK N   1      22.772  12.469  10.780  0.00  0.00    -0.356 N 
HETATM    3  C   UNK N   1      23.383  13.063   9.744  0.00  0.00     0.108 A 
HETATM    4  C   UNK N   1      24.744  12.963   9.958  0.00  0.00     0.106 A 
HETATM    5  N   UNK N   1      24.951  12.310  11.121  0.00  0.00    -0.361 N 
HETATM    6  C   UNK N   1      23.727  12.019  11.605  0.00  0.00     0.182 A 
HETATM    7  H   UNK N   1      25.818  12.091  11.533  0.00  0.00     0.166 HD
ENDROOT
TORSDOF 0
ENDMDL
MODEL 2
REMARK VINA RESULT:      -3.0      1.538      2.160
REMARK  0 active torsions:
REMARK  status: ('A' for Active; 'I' for Inactive)
ROOT
HETATM    1  C   UNK N   1      20.932  14.280   9.477  0.00  0.00     0.156 C 
HETATM    2  N   UNK N   1      21.689  13.259  10.178  0.00  0.00    -0.356 N 
HETATM    3  C   UNK N   1      23.008  13.036  10.087  0.00  0.00     0.108 A 
HETATM    4  C   UNK N   1      23.303  11.975  10.921  0.00  0.00     0.106 A 
HETATM    5  N   UNK N   1      22.162  11.561  11.512  0.00  0.00    -0.361 N 
HETATM    6  C   UNK N   1      21.188  12.364  11.040  0.00  0.00     0.182 A 
HETATM    7  H   UNK N   1      22.062  10.823  12.156  0.00  0.00     0.166 HD
ENDROOT
TORSDOF 0
ENDMDL
MODEL 3
REMARK VINA RESULT:      -2.9      1.051      2.605
REMARK  0 active torsions:
REMARK  status: ('A' for Active; 'I' for Inactive)
ROOT
HETATM    1  C   UNK N   1      24.236  13.110   9.553  0.00  0.00     0.156 C 
HETATM    2  N   UNK N   1      23.061  12.712  10.305  0.00  0.00    -0.356 N 
HETATM    3  C   UNK N   1      21.792  13.068  10.056  0.00  0.00     0.108 A 
HETATM    4  C   UNK N   1      21.000  12.464  11.014  0.00  0.00     0.106 A 
HETATM    5  N   UNK N   1      21.793  11.746  11.837  0.00  0.00    -0.361 N 
HETATM    6  C   UNK N   1      23.050  11.915  11.381  0.00  0.00     0.182 A 
HETATM    7  H   UNK N   1      21.511  11.209  12.613  0.00  0.00     0.166 HD
ENDROOT
TORSDOF 0
ENDMDL
MODEL 4
REMARK VINA RESULT:      -2.7     22.514     23.131
REMARK  0 active torsions:
REMARK  status: ('A' for Active; 'I' for Inactive)
ROOT
HETATM    1  C   UNK N   1      42.224  20.788   1.821  0.00  0.00     0.156 C 
HETATM    2  N   UNK N   1      42.811  21.659   2.822  0.00  0.00    -0.356 N 
HETATM    3  C   UNK N   1      43.393  21.283   3.970  0.00  0.00     0.108 A 
HETATM    4  C   UNK N   1      43.811  22.431   4.615  0.00  0.00     0.106 A 
HETATM    5  N   UNK N   1      43.480  23.496   3.854  0.00  0.00    -0.361 N 
HETATM    6  C   UNK N   1      42.869  22.996   2.762  0.00  0.00     0.182 A 
HETATM    7  H   UNK N   1      43.650  24.445   4.056  0.00  0.00     0.166 HD
ENDROOT
TORSDOF 0
ENDMDL
MODEL 5
REMARK VINA RESULT:      -2.7     12.059     12.729
REMARK  0 active torsions:
REMARK  status: ('A' for Active; 'I' for Inactive)
ROOT
HETATM    1  C   UNK N   1      36.923  14.152  10.107  0.00  0.00     0.156 C 
HETATM    2  N   UNK N   1      36.002  15.272  10.043  0.00  0.00    -0.356 N 
HETATM    3  C   UNK N   1      35.132  15.538   9.058  0.00  0.00     0.108 A 
HETATM    4  C   UNK N   1      34.460  16.694   9.406  0.00  0.00     0.106 A 
HETATM    5  N   UNK N   1      34.927  17.122  10.598  0.00  0.00    -0.361 N 
HETATM    6  C   UNK N   1      35.871  16.233  10.966  0.00  0.00     0.182 A 
HETATM    7  H   UNK N   1      34.637  17.920  11.097  0.00  0.00     0.166 HD
ENDROOT
TORSDOF 0
ENDMDL
MODEL 6
REMARK VINA RESULT:      -2.6     12.084     13.273
REMARK  0 active torsions:
REMARK  status: ('A' for Active; 'I' for Inactive)
ROOT
HETATM    1  C   UNK N   1      34.795  12.205  13.317  0.00  0.00     0.156 C 
HETATM    2  N   UNK N   1      35.659  13.178  13.959  0.00  0.00    -0.356 N 
HETATM    3  C   UNK N   1      36.135  13.122  15.211  0.00  0.00     0.108 A 
HETATM    4  C   UNK N   1      36.911  14.248  15.406  0.00  0.00     0.106 A 
HETATM    5  N   UNK N   1      36.901  14.980  14.271  0.00  0.00    -0.361 N 
HETATM    6  C   UNK N   1      36.126  14.302  13.401  0.00  0.00     0.182 A 
HETATM    7  H   UNK N   1      37.364  15.834  14.112  0.00  0.00     0.166 HD
ENDROOT
TORSDOF 0
ENDMDL
MODEL 7
REMARK VINA RESULT:      -2.5     10.786     11.745
REMARK  0 active torsions:
REMARK  status: ('A' for Active; 'I' for Inactive)
ROOT
HETATM    1  C   UNK N   1      33.472  14.742   8.513  0.00  0.00     0.156 C 
HETATM    2  N   UNK N   1      34.190  15.513   9.512  0.00  0.00    -0.356 N 
HETATM    3  C   UNK N   1      34.707  15.052  10.659  0.00  0.00     0.108 A 
HETATM    4  C   UNK N   1      35.300  16.122  11.302  0.00  0.00     0.106 A 
HETATM    5  N   UNK N   1      35.139  17.224  10.539  0.00  0.00    -0.361 N 
HETATM    6  C   UNK N   1      34.456  16.824   9.449  0.00  0.00     0.182 A 
HETATM    7  H   UNK N   1      35.456  18.135  10.739  0.00  0.00     0.166 HD
ENDROOT
TORSDOF 0
ENDMDL
MODEL 8
REMARK VINA RESULT:      -2.5      8.040      8.600
REMARK  0 active torsions:
REMARK  status: ('A' for Active; 'I' for Inactive)
ROOT
HETATM    1  C   UNK N   1      29.974  17.292   6.246  0.00  0.00     0.156 C 
HETATM    2  N   UNK N   1      29.344  17.762   7.466  0.00  0.00    -0.356 N 
HETATM    3  C   UNK N   1      29.829  17.653   8.711  0.00  0.00     0.108 A 
HETATM    4  C   UNK N   1      28.908  18.232   9.563  0.00  0.00     0.106 A 
HETATM    5  N   UNK N   1      27.870  18.688   8.829  0.00  0.00    -0.361 N 
HETATM    6  C   UNK N   1      28.162  18.387   7.548  0.00  0.00     0.182 A 
HETATM    7  H   UNK N   1      27.065  19.146   9.162  0.00  0.00     0.166 HD
ENDROOT
TORSDOF 0
ENDMDL
MODEL 9
REMARK VINA RESULT:      -2.5      9.744     10.550
REMARK  0 active torsions:
REMARK  status: ('A' for Active; 'I' for Inactive)
ROOT
HETATM    1  C   UNK N   1      20.377  17.085   4.345  0.00  0.00     0.156 C 
HETATM    2  N   UNK N   1      20.369  18.324   3.589  0.00  0.00    -0.356 N 
HETATM    3  C   UNK N   1      21.004  19.461   3.908  0.00  0.00     0.108 A 
HETATM    4  C   UNK N   1      20.724  20.380   2.916  0.00  0.00     0.106 A 
HETATM    5  N   UNK N   1      19.920  19.796   2.002  0.00  0.00    -0.361 N 
HETATM    6  C   UNK N   1      19.718  18.537   2.438  0.00  0.00     0.182 A 
HETATM    7  H   UNK N   1      19.557  20.205   1.183  0.00  0.00     0.166 HD
ENDROOT
TORSDOF 0
ENDMDL
