MODEL 1
REMARK VINA RESULT:      -4.3      0.000      0.000
REMARK  2 active torsions:
REMARK  status: ('A' for Active; 'I' for Inactive)
REMARK    1  A    between atoms: O_1  and  C_8 
REMARK    2  A    between atoms: C_4  and  C_8 
ROOT
HETATM    1  N   UNK N   1      24.855  12.585  11.182  0.00  0.00    -0.361 N 
HETATM    2  C   UNK N   1      23.696  12.021  11.562  0.00  0.00     0.106 A 
HETATM    3  C   UNK N   1      22.953  11.637  10.467  0.00  0.00     0.038 A 
HETATM    4  C   UNK N   1      24.866  12.567   9.837  0.00  0.00     0.088 A 
HETATM    5  C   UNK N   1      23.703  11.987   9.362  0.00  0.00     0.019 A 
HETATM    6  H   UNK N   1      25.558  12.940  11.772  0.00  0.00     0.165 HD
ENDROOT
BRANCH   2   7
HETATM    7  C   UNK N   1      23.292  11.846  12.964  0.00  0.00     0.193 C 
HETATM    8  O   UNK N   1      23.946  12.354  13.860  0.00  0.00    -0.645 OA
BRANCH   7   9
HETATM    9  O   UNK N   1      22.196  11.122  13.266  0.00  0.00    -0.772 OA
HETATM   10  H   UNK N   1      21.572  11.452  13.883  0.00  0.00     0.167 HD
ENDBRANCH   7   9
ENDBRANCH   2   7
TORSDOF 2
ENDMDL
MODEL 2
REMARK VINA RESULT:      -4.3     12.047     12.702
REMARK  2 active torsions:
REMARK  status: ('A' for Active; 'I' for Inactive)
REMARK    1  A    between atoms: O_1  and  C_8 
REMARK    2  A    between atoms: C_4  and  C_8 
ROOT
HETATM    1  N   UNK N   1      35.114  17.168  10.433  0.00  0.00    -0.361 N 
HETATM    2  C   UNK N   1      34.647  17.146   9.174  0.00  0.00     0.106 A 
HETATM    3  C   UNK N   1      34.038  15.942   8.895  0.00  0.00     0.038 A 
HETATM    4  C   UNK N   1      34.808  15.975  10.975  0.00  0.00     0.088 A 
HETATM    5  C   UNK N   1      34.141  15.192  10.049  0.00  0.00     0.019 A 
HETATM    6  H   UNK N   1      35.587  17.910  10.873  0.00  0.00     0.165 HD
ENDROOT
BRANCH   2   7
HETATM    7  C   UNK N   1      34.778  18.267   8.233  0.00  0.00     0.193 C 
HETATM    8  O   UNK N   1      35.299  19.311   8.590  0.00  0.00    -0.645 OA
BRANCH   7   9
HETATM    9  O   UNK N   1      34.324  18.147   6.970  0.00  0.00    -0.772 OA
HETATM   10  H   UNK N   1      33.403  18.163   6.800  0.00  0.00     0.167 HD
ENDBRANCH   7   9
ENDBRANCH   2   7
TORSDOF 2
ENDMDL
MODEL 3
REMARK VINA RESULT:      -4.3      2.125      2.697
REMARK  2 active torsions:
REMARK  status: ('A' for Active; 'I' for Inactive)
REMARK    1  A    between atoms: O_1  and  C_8 
REMARK    2  A    between atoms: C_4  and  C_8 
ROOT
HETATM    1  N   UNK N   1      21.360  11.920  11.917  0.00  0.00    -0.361 N 
HETATM    2  C   UNK N   1      22.566  12.361  11.522  0.00  0.00     0.106 A 
HETATM    3  C   UNK N   1      22.473  13.050  10.333  0.00  0.00     0.038 A 
HETATM    4  C   UNK N   1      20.480  12.323  10.983  0.00  0.00     0.088 A 
HETATM    5  C   UNK N   1      21.136  13.026   9.988  0.00  0.00     0.019 A 
HETATM    6  H   UNK N   1      21.159  11.403  12.731  0.00  0.00     0.165 HD
ENDROOT
BRANCH   2   7
HETATM    7  C   UNK N   1      23.808  12.129  12.272  0.00  0.00     0.193 C 
HETATM    8  O   UNK N   1      23.772  11.940  13.477  0.00  0.00    -0.645 OA
BRANCH   7   9
HETATM    9  O   UNK N   1      24.994  12.123  11.632  0.00  0.00    -0.772 OA
HETATM   10  H   UNK N   1      25.710  11.625  11.975  0.00  0.00     0.167 HD
ENDBRANCH   7   9
ENDBRANCH   2   7
TORSDOF 2
ENDMDL
MODEL 4
REMARK VINA RESULT:      -4.2     12.338     13.037
REMARK  2 active torsions:
REMARK  status: ('A' for Active; 'I' for Inactive)
REMARK    1  A    between atoms: O_1  and  C_8 
REMARK    2  A    between atoms: C_4  and  C_8 
ROOT
HETATM    1  N   UNK N   1      20.264  18.237   0.961  0.00  0.00    -0.361 N 
HETATM    2  C   UNK N   1      20.492  19.309   1.738  0.00  0.00     0.106 A 
HETATM    3  C   UNK N   1      20.279  19.010   3.065  0.00  0.00     0.038 A 
HETATM    4  C   UNK N   1      19.901  17.238   1.785  0.00  0.00     0.088 A 
HETATM    5  C   UNK N   1      19.900  17.682   3.096  0.00  0.00     0.019 A 
HETATM    6  H   UNK N   1      20.346  18.191  -0.019  0.00  0.00     0.165 HD
ENDROOT
BRANCH   2   7
HETATM    7  C   UNK N   1      20.913  20.619   1.221  0.00  0.00     0.193 C 
HETATM    8  O   UNK N   1      21.100  20.777   0.026  0.00  0.00    -0.645 OA
BRANCH   7   9
HETATM    9  O   UNK N   1      21.095  21.652   2.067  0.00  0.00    -0.772 OA
HETATM   10  H   UNK N   1      21.102  21.505   2.992  0.00  0.00     0.167 HD
ENDBRANCH   7   9
ENDBRANCH   2   7
TORSDOF 2
ENDMDL
MODEL 5
REMARK VINA RESULT:      -4.0      2.667      3.348
REMARK  2 active torsions:
REMARK  status: ('A' for Active; 'I' for Inactive)
REMARK    1  A    between atoms: O_1  and  C_8 
REMARK    2  A    between atoms: C_4  and  C_8 
ROOT
HETATM    1  N   UNK N   1      22.186  13.580   9.746  0.00  0.00    -0.361 N 
HETATM    2  C   UNK N   1      23.049  12.809  10.429  0.00  0.00     0.106 A 
HETATM    3  C   UNK N   1      22.384  11.994  11.318  0.00  0.00     0.038 A 
HETATM    4  C   UNK N   1      20.957  13.265  10.192  0.00  0.00     0.088 A 
HETATM    5  C   UNK N   1      21.043  12.286  11.166  0.00  0.00     0.019 A 
HETATM    6  H   UNK N   1      22.410  14.244   9.055  0.00  0.00     0.165 HD
ENDROOT
BRANCH   2   7
HETATM    7  C   UNK N   1      24.506  12.845  10.239  0.00  0.00     0.193 C 
HETATM    8  O   UNK N   1      24.977  13.107   9.144  0.00  0.00    -0.645 OA
BRANCH   7   9
HETATM    9  O   UNK N   1      25.329  12.588  11.274  0.00  0.00    -0.772 OA
HETATM   10  H   UNK N   1      25.911  13.253  11.586  0.00  0.00     0.167 HD
ENDBRANCH   7   9
ENDBRANCH   2   7
TORSDOF 2
ENDMDL
MODEL 6
REMARK VINA RESULT:      -3.9      2.042      2.546
REMARK  2 active torsions:
REMARK  status: ('A' for Active; 'I' for Inactive)
REMARK    1  A    between atoms: O_1  and  C_8 
REMARK    2  A    between atoms: C_4  and  C_8 
ROOT
HETATM    1  N   UNK N   1      23.281  12.320  11.652  0.00  0.00    -0.361 N 
HETATM    2  C   UNK N   1      22.336  12.301  10.698  0.00  0.00     0.106 A 
HETATM    3  C   UNK N   1      22.899  12.149   9.450  0.00  0.00     0.038 A 
HETATM    4  C   UNK N   1      24.462  12.181  11.024  0.00  0.00     0.088 A 
HETATM    5  C   UNK N   1      24.261  12.072   9.659  0.00  0.00     0.019 A 
HETATM    6  H   UNK N   1      23.137  12.418  12.621  0.00  0.00     0.165 HD
ENDROOT
BRANCH   2   7
HETATM    7  C   UNK N   1      20.896  12.427  10.968  0.00  0.00     0.193 C 
HETATM    8  O   UNK N   1      20.205  13.164  10.285  0.00  0.00    -0.645 OA
BRANCH   7   9
HETATM    9  O   UNK N   1      20.334  11.727  11.973  0.00  0.00    -0.772 OA
HETATM   10  H   UNK N   1      19.403  11.626  12.011  0.00  0.00     0.167 HD
ENDBRANCH   7   9
ENDBRANCH   2   7
TORSDOF 2
ENDMDL
MODEL 7
REMARK VINA RESULT:      -3.9     11.112     12.170
REMARK  2 active torsions:
REMARK  status: ('A' for Active; 'I' for Inactive)
REMARK    1  A    between atoms: O_1  and  C_8 
REMARK    2  A    between atoms: C_4  and  C_8 
ROOT
HETATM    1  N   UNK N   1      32.189  17.486   7.924  0.00  0.00    -0.361 N 
HETATM    2  C   UNK N   1      33.478  17.717   7.625  0.00  0.00     0.106 A 
HETATM    3  C   UNK N   1      33.714  17.533   6.281  0.00  0.00     0.038 A 
HETATM    4  C   UNK N   1      31.584  17.151   6.770  0.00  0.00     0.088 A 
HETATM    5  C   UNK N   1      32.499  17.170   5.733  0.00  0.00     0.019 A 
HETATM    6  H   UNK N   1      31.770  17.549   8.812  0.00  0.00     0.165 HD
ENDROOT
BRANCH   2   7
HETATM    7  C   UNK N   1      34.490  18.112   8.616  0.00  0.00     0.193 C 
HETATM    8  O   UNK N   1      35.204  19.080   8.412  0.00  0.00    -0.645 OA
BRANCH   7   9
HETATM    9  O   UNK N   1      34.632  17.407   9.755  0.00  0.00    -0.772 OA
HETATM   10  H   UNK N   1      34.002  17.496  10.444  0.00  0.00     0.167 HD
ENDBRANCH   7   9
ENDBRANCH   2   7
TORSDOF 2
ENDMDL
MODEL 8
REMARK VINA RESULT:      -3.8      2.798      3.481
REMARK  2 active torsions:
REMARK  status: ('A' for Active; 'I' for Inactive)
REMARK    1  A    between atoms: O_1  and  C_8 
REMARK    2  A    between atoms: C_4  and  C_8 
ROOT
HETATM    1  N   UNK N   1      22.156  11.977  11.783  0.00  0.00    -0.361 N 
HETATM    2  C   UNK N   1      22.184  12.498  10.544  0.00  0.00     0.106 A 
HETATM    3  C   UNK N   1      23.479  12.635  10.096  0.00  0.00     0.038 A 
HETATM    4  C   UNK N   1      23.437  11.775  12.141  0.00  0.00     0.088 A 
HETATM    5  C   UNK N   1      24.282  12.172  11.119  0.00  0.00     0.019 A 
HETATM    6  H   UNK N   1      21.356  11.781  12.322  0.00  0.00     0.165 HD
ENDROOT
BRANCH   2   7
HETATM    7  C   UNK N   1      20.981  12.866   9.785  0.00  0.00     0.193 C 
HETATM    8  O   UNK N   1      20.000  13.305  10.362  0.00  0.00    -0.645 OA
BRANCH   7   9
HETATM    9  O   UNK N   1      20.956  12.720   8.445  0.00  0.00    -0.772 OA
HETATM   10  H   UNK N   1      20.186  12.948   7.963  0.00  0.00     0.167 HD
ENDBRANCH   7   9
ENDBRANCH   2   7
TORSDOF 2
ENDMDL
MODEL 9
REMARK VINA RESULT:      -3.7     19.158     19.721
REMARK  2 active torsions:
REMARK  status: ('A' for Active; 'I' for Inactive)
REMARK    1  A    between atoms: O_1  and  C_8 
REMARK    2  A    between atoms: C_4  and  C_8 
ROOT
HETATM    1  N   UNK N   1      29.976  22.719  -4.563  0.00  0.00    -0.361 N 
HETATM    2  C   UNK N   1      30.755  21.840  -3.912  0.00  0.00     0.106 A 
HETATM    3  C   UNK N   1      30.933  20.694  -4.655  0.00  0.00     0.038 A 
HETATM    4  C   UNK N   1      29.645  22.143  -5.733  0.00  0.00     0.088 A 
HETATM    5  C   UNK N   1      30.222  20.888  -5.822  0.00  0.00     0.019 A 
HETATM    6  H   UNK N   1      29.700  23.610  -4.247  0.00  0.00     0.165 HD
ENDROOT
BRANCH   2   7
HETATM    7  C   UNK N   1      31.333  22.087  -2.583  0.00  0.00     0.193 C 
HETATM    8  O   UNK N   1      30.849  22.933  -1.850  0.00  0.00    -0.645 OA
BRANCH   7   9
HETATM    9  O   UNK N   1      32.401  21.377  -2.168  0.00  0.00    -0.772 OA
HETATM   10  H   UNK N   1      32.426  20.450  -2.295  0.00  0.00     0.167 HD
ENDBRANCH   7   9
ENDBRANCH   2   7
TORSDOF 2
ENDMDL
