MODEL 1
REMARK VINA RESULT:      -7.1      0.000      0.000
REMARK  21 active torsions:
REMARK  status: ('A' for Active; 'I' for Inactive)
REMARK    1  A    between atoms: C_4  and  C_1 
REMARK    2  A    between atoms: O_19  and  C_1 
REMARK    3  A    between atoms: C_5  and  C_2 
REMARK    4  A    between atoms: O_20  and  C_2 
REMARK    5  A    between atoms: C_6  and  C_3 
REMARK    6  A    between atoms: O_32  and  C_3 
REMARK    7  A    between atoms: C_7  and  O_21 
REMARK    8  A    between atoms: C_8  and  O_22 
REMARK    9  A    between atoms: C_9  and  O_23 
REMARK   10  A    between atoms: C_10  and  O_24 
REMARK   11  A    between atoms: C_11  and  O_25 
REMARK   12  A    between atoms: C_12  and  O_26 
REMARK   13  A    between atoms: C_13  and  O_27 
REMARK   14  A    between atoms: C_14  and  O_36 
REMARK   15  A    between atoms: C_15  and  O_37 
REMARK   16  A    between atoms: C_16  and  O_28 
REMARK   17  A    between atoms: C_17  and  O_37 
REMARK   18  A    between atoms: C_18  and  O_36 
REMARK   19  A    between atoms: P_38  and  O_29 
REMARK   20  A    between atoms: P_38  and  O_30 
REMARK   21  A    between atoms: P_38  and  O_32 
ROOT
HETATM    1  C   UNK N   1      25.822  19.325   3.273  0.00  0.00     0.179 C 
HETATM    2  C   UNK N   1      26.745  19.545   4.489  0.00  0.00     0.181 C 
HETATM    3  C   UNK N   1      25.742  17.285   5.092  0.00  0.00     0.205 C 
HETATM    4  C   UNK N   1      26.927  18.269   5.350  0.00  0.00     0.189 C 
HETATM    5  C   UNK N   1      24.430  18.081   4.817  0.00  0.00     0.292 C 
HETATM    6  O   UNK N   1      24.508  18.912   3.655  0.00  0.00    -0.348 OA
ENDROOT
BRANCH   4   7
HETATM    7  O   UNK N   1      27.071  18.742   6.684  0.00  0.00    -0.348 OA
BRANCH   7   8
HETATM    8  C   UNK N   1      28.392  18.690   7.187  0.00  0.00     0.292 C 
HETATM    9  C   UNK N   1      28.321  18.663   8.727  0.00  0.00     0.204 C 
HETATM   10  C   UNK N   1      29.738  18.481   9.287  0.00  0.00     0.183 C 
HETATM   11  C   UNK N   1      30.379  17.232   8.668  0.00  0.00     0.180 C 
HETATM   12  C   UNK N   1      30.328  17.372   7.130  0.00  0.00     0.180 C 
HETATM   13  O   UNK N   1      28.984  17.496   6.704  0.00  0.00    -0.348 OA
BRANCH   9  14
HETATM   14  O   UNK N   1      27.504  17.606   9.142  0.00  0.00    -0.388 OA
HETATM   15  H   UNK N   1      27.085  16.868   9.614  0.00  0.00     0.210 HD
ENDBRANCH   9  14
BRANCH  10  16
HETATM   16  O   UNK N   1      29.700  18.371  10.679  0.00  0.00    -0.390 OA
HETATM   17  H   UNK N   1      30.482  18.160  11.212  0.00  0.00     0.210 HD
ENDBRANCH  10  16
BRANCH  11  18
HETATM   18  O   UNK N   1      31.697  17.116   9.117  0.00  0.00    -0.390 OA
HETATM   19  H   UNK N   1      31.910  17.013  10.058  0.00  0.00     0.210 HD
ENDBRANCH  11  18
BRANCH  12  20
HETATM   20  C   UNK N   1      30.906  16.143   6.422  0.00  0.00     0.215 C 
BRANCH  20  21
HETATM   21  O   UNK N   1      32.252  15.933   6.750  0.00  0.00    -0.294 OA
BRANCH  21  22
HETATM   22  P   UNK N   1      33.237  16.819   5.607  0.00  0.00     0.390 P 
HETATM   23  O   UNK N   1      34.195  15.851   4.857  0.00  0.00    -0.632 OA
BRANCH  22  24
HETATM   24  O   UNK N   1      32.240  17.567   4.400  0.00  0.00    -0.307 OA
HETATM   25  H   UNK N   1      31.364  17.972   4.303  0.00  0.00     0.222 HD
ENDBRANCH  22  24
BRANCH  22  26
HETATM   26  O   UNK N   1      34.225  18.001   6.404  0.00  0.00    -0.307 OA
HETATM   27  H   UNK N   1      33.842  18.740   6.902  0.00  0.00     0.222 HD
ENDBRANCH  22  26
ENDBRANCH  21  22
ENDBRANCH  20  21
ENDBRANCH  12  20
ENDBRANCH   7   8
ENDBRANCH   4   7
BRANCH   2  28
HETATM   28  O   UNK N   1      27.991  20.056   4.119  0.00  0.00    -0.390 OA
HETATM   29  H   UNK N   1      28.180  20.333   3.209  0.00  0.00     0.210 HD
ENDBRANCH   2  28
BRANCH   3  30
HETATM   30  O   UNK N   1      26.072  16.519   3.969  0.00  0.00    -0.388 OA
HETATM   31  H   UNK N   1      26.561  16.375   3.143  0.00  0.00     0.210 HD
ENDBRANCH   3  30
BRANCH   1  32
HETATM   32  C   UNK N   1      25.693  20.644   2.514  0.00  0.00     0.198 C 
BRANCH  32  33
HETATM   33  O   UNK N   1      24.352  20.926   2.249  0.00  0.00    -0.398 OA
HETATM   34  H   UNK N   1      23.722  21.067   2.973  0.00  0.00     0.209 HD
ENDBRANCH  32  33
ENDBRANCH   1  32
BRANCH   5  35
HETATM   35  O   UNK N   1      23.206  17.345   4.794  0.00  0.00    -0.348 OA
BRANCH  35  36
HETATM   36  C   UNK N   1      22.862  16.584   5.949  0.00  0.00     0.189 C 
HETATM   37  C   UNK N   1      21.486  17.043   6.463  0.00  0.00     0.181 C 
HETATM   38  C   UNK N   1      20.343  16.667   5.482  0.00  0.00     0.179 C 
HETATM   39  O   UNK N   1      20.330  15.270   5.201  0.00  0.00    -0.349 OA
HETATM   40  C   UNK N   1      21.571  14.780   4.709  0.00  0.00     0.288 C 
HETATM   41  C   UNK N   1      22.729  15.068   5.677  0.00  0.00     0.204 C 
BRANCH  37  42
HETATM   42  O   UNK N   1      21.488  18.414   6.730  0.00  0.00    -0.390 OA
HETATM   43  H   UNK N   1      21.952  18.835   7.470  0.00  0.00     0.210 HD
ENDBRANCH  37  42
BRANCH  38  44
HETATM   44  C   UNK N   1      20.307  17.483   4.183  0.00  0.00     0.198 C 
BRANCH  44  45
HETATM   45  O   UNK N   1      19.272  17.054   3.351  0.00  0.00    -0.398 OA
HETATM   46  H   UNK N   1      19.137  17.315   2.427  0.00  0.00     0.209 HD
ENDBRANCH  44  45
ENDBRANCH  38  44
BRANCH  40  47
HETATM   47  O   UNK N   1      21.836  15.274   3.426  0.00  0.00    -0.369 OA
HETATM   48  H   UNK N   1      22.372  15.358   2.622  0.00  0.00     0.212 HD
ENDBRANCH  40  47
BRANCH  41  49
HETATM   49  O   UNK N   1      23.912  14.510   5.195  0.00  0.00    -0.388 OA
HETATM   50  H   UNK N   1      24.002  13.550   5.097  0.00  0.00     0.210 HD
ENDBRANCH  41  49
ENDBRANCH  35  36
ENDBRANCH   5  35
TORSDOF 21
ENDMDL
MODEL 2
REMARK VINA RESULT:      -7.0      4.779     11.230
REMARK  21 active torsions:
REMARK  status: ('A' for Active; 'I' for Inactive)
REMARK    1  A    between atoms: C_4  and  C_1 
REMARK    2  A    between atoms: O_19  and  C_1 
REMARK    3  A    between atoms: C_5  and  C_2 
REMARK    4  A    between atoms: O_20  and  C_2 
REMARK    5  A    between atoms: C_6  and  C_3 
REMARK    6  A    between atoms: O_32  and  C_3 
REMARK    7  A    between atoms: C_7  and  O_21 
REMARK    8  A    between atoms: C_8  and  O_22 
REMARK    9  A    between atoms: C_9  and  O_23 
REMARK   10  A    between atoms: C_10  and  O_24 
REMARK   11  A    between atoms: C_11  and  O_25 
REMARK   12  A    between atoms: C_12  and  O_26 
REMARK   13  A    between atoms: C_13  and  O_27 
REMARK   14  A    between atoms: C_14  and  O_36 
REMARK   15  A    between atoms: C_15  and  O_37 
REMARK   16  A    between atoms: C_16  and  O_28 
REMARK   17  A    between atoms: C_17  and  O_37 
REMARK   18  A    between atoms: C_18  and  O_36 
REMARK   19  A    between atoms: P_38  and  O_29 
REMARK   20  A    between atoms: P_38  and  O_30 
REMARK   21  A    between atoms: P_38  and  O_32 
ROOT
HETATM    1  C   UNK N   1      33.986  17.088   8.950  0.00  0.00     0.179 C 
HETATM    2  C   UNK N   1      32.729  16.657   8.167  0.00  0.00     0.181 C 
HETATM    3  C   UNK N   1      33.090  14.589   9.606  0.00  0.00     0.205 C 
HETATM    4  C   UNK N   1      32.056  15.390   8.752  0.00  0.00     0.189 C 
HETATM    5  C   UNK N   1      34.516  14.725   8.992  0.00  0.00     0.292 C 
HETATM    6  O   UNK N   1      34.992  16.074   8.965  0.00  0.00    -0.348 OA
ENDROOT
BRANCH   4   7
HETATM    7  O   UNK N   1      31.511  14.709   7.627  0.00  0.00    -0.348 OA
BRANCH   7   8
HETATM    8  C   UNK N   1      31.496  15.467   6.433  0.00  0.00     0.292 C 
HETATM    9  C   UNK N   1      31.874  14.534   5.265  0.00  0.00     0.204 C 
HETATM   10  C   UNK N   1      31.742  15.308   3.947  0.00  0.00     0.183 C 
HETATM   11  C   UNK N   1      30.332  15.905   3.840  0.00  0.00     0.180 C 
HETATM   12  C   UNK N   1      30.072  16.764   5.098  0.00  0.00     0.180 C 
HETATM   13  O   UNK N   1      30.177  15.959   6.258  0.00  0.00    -0.348 OA
BRANCH   9  14
HETATM   14  O   UNK N   1      31.022  13.424   5.254  0.00  0.00    -0.388 OA
HETATM   15  H   UNK N   1      30.569  12.586   5.068  0.00  0.00     0.210 HD
ENDBRANCH   9  14
BRANCH  10  16
HETATM   16  O   UNK N   1      32.000  14.467   2.861  0.00  0.00    -0.390 OA
HETATM   17  H   UNK N   1      31.645  13.567   2.797  0.00  0.00     0.210 HD
ENDBRANCH  10  16
BRANCH  11  18
HETATM   18  O   UNK N   1      30.242  16.677   2.679  0.00  0.00    -0.390 OA
HETATM   19  H   UNK N   1      30.915  17.337   2.449  0.00  0.00     0.210 HD
ENDBRANCH  11  18
BRANCH  12  20
HETATM   20  C   UNK N   1      28.663  17.365   5.102  0.00  0.00     0.215 C 
BRANCH  20  21
HETATM   21  O   UNK N   1      28.656  18.680   5.582  0.00  0.00    -0.294 OA
BRANCH  21  22
HETATM   22  P   UNK N   1      28.052  18.659   7.224  0.00  0.00     0.390 P 
HETATM   23  O   UNK N   1      29.227  18.803   8.233  0.00  0.00    -0.632 OA
BRANCH  22  24
HETATM   24  O   UNK N   1      26.994  20.005   7.497  0.00  0.00    -0.307 OA
HETATM   25  H   UNK N   1      27.026  20.939   7.759  0.00  0.00     0.222 HD
ENDBRANCH  22  24
BRANCH  22  26
HETATM   26  O   UNK N   1      27.249  17.165   7.584  0.00  0.00    -0.307 OA
HETATM   27  H   UNK N   1      27.639  16.304   7.364  0.00  0.00     0.222 HD
ENDBRANCH  22  26
ENDBRANCH  21  22
ENDBRANCH  20  21
ENDBRANCH  12  20
ENDBRANCH   7   8
ENDBRANCH   4   7
BRANCH   2  28
HETATM   28  O   UNK N   1      31.795  17.690   8.059  0.00  0.00    -0.390 OA
HETATM   29  H   UNK N   1      31.739  18.248   7.268  0.00  0.00     0.210 HD
ENDBRANCH   2  28
BRANCH   3  30
HETATM   30  O   UNK N   1      33.078  15.134  10.894  0.00  0.00    -0.388 OA
HETATM   31  H   UNK N   1      32.693  15.702  11.581  0.00  0.00     0.210 HD
ENDBRANCH   3  30
BRANCH   1  32
HETATM   32  C   UNK N   1      34.579  18.324   8.278  0.00  0.00     0.198 C 
BRANCH  32  33
HETATM   33  O   UNK N   1      34.520  18.199   6.888  0.00  0.00    -0.398 OA
HETATM   34  H   UNK N   1      34.164  18.915   6.341  0.00  0.00     0.209 HD
ENDBRANCH  32  33
ENDBRANCH   1  32
BRANCH   5  35
HETATM   35  O   UNK N   1      35.539  13.870   9.507  0.00  0.00    -0.348 OA
BRANCH  35  36
HETATM   36  C   UNK N   1      36.755  14.473   9.944  0.00  0.00     0.189 C 
HETATM   37  C   UNK N   1      36.722  14.620  11.476  0.00  0.00     0.181 C 
HETATM   38  C   UNK N   1      36.771  13.246  12.194  0.00  0.00     0.179 C 
HETATM   39  O   UNK N   1      37.905  12.482  11.792  0.00  0.00    -0.349 OA
HETATM   40  C   UNK N   1      37.991  12.296  10.384  0.00  0.00     0.288 C 
HETATM   41  C   UNK N   1      38.014  13.633   9.626  0.00  0.00     0.204 C 
BRANCH  37  42
HETATM   42  O   UNK N   1      35.606  15.359  11.878  0.00  0.00    -0.390 OA
HETATM   43  H   UNK N   1      35.639  16.174  12.402  0.00  0.00     0.210 HD
ENDBRANCH  37  42
BRANCH  38  44
HETATM   44  C   UNK N   1      35.488  12.411  12.087  0.00  0.00     0.198 C 
BRANCH  44  45
HETATM   45  O   UNK N   1      34.409  13.073  12.673  0.00  0.00    -0.398 OA
HETATM   46  H   UNK N   1      34.398  13.483  13.552  0.00  0.00     0.209 HD
ENDBRANCH  44  45
ENDBRANCH  38  44
BRANCH  40  47
HETATM   47  O   UNK N   1      36.969  11.458   9.922  0.00  0.00    -0.369 OA
HETATM   48  H   UNK N   1      36.229  10.844  10.046  0.00  0.00     0.212 HD
ENDBRANCH  40  47
BRANCH  41  49
HETATM   49  O   UNK N   1      38.172  13.411   8.259  0.00  0.00    -0.388 OA
HETATM   50  H   UNK N   1      39.029  13.558   7.831  0.00  0.00     0.210 HD
ENDBRANCH  41  49
ENDBRANCH  35  36
ENDBRANCH   5  35
TORSDOF 21
ENDMDL
MODEL 3
REMARK VINA RESULT:      -7.0      5.575     10.909
REMARK  21 active torsions:
REMARK  status: ('A' for Active; 'I' for Inactive)
REMARK    1  A    between atoms: C_4  and  C_1 
REMARK    2  A    between atoms: O_19  and  C_1 
REMARK    3  A    between atoms: C_5  and  C_2 
REMARK    4  A    between atoms: O_20  and  C_2 
REMARK    5  A    between atoms: C_6  and  C_3 
REMARK    6  A    between atoms: O_32  and  C_3 
REMARK    7  A    between atoms: C_7  and  O_21 
REMARK    8  A    between atoms: C_8  and  O_22 
REMARK    9  A    between atoms: C_9  and  O_23 
REMARK   10  A    between atoms: C_10  and  O_24 
REMARK   11  A    between atoms: C_11  and  O_25 
REMARK   12  A    between atoms: C_12  and  O_26 
REMARK   13  A    between atoms: C_13  and  O_27 
REMARK   14  A    between atoms: C_14  and  O_36 
REMARK   15  A    between atoms: C_15  and  O_37 
REMARK   16  A    between atoms: C_16  and  O_28 
REMARK   17  A    between atoms: C_17  and  O_37 
REMARK   18  A    between atoms: C_18  and  O_36 
REMARK   19  A    between atoms: P_38  and  O_29 
REMARK   20  A    between atoms: P_38  and  O_30 
REMARK   21  A    between atoms: P_38  and  O_32 
ROOT
HETATM    1  C   UNK N   1      34.762  15.106  10.654  0.00  0.00     0.179 C 
HETATM    2  C   UNK N   1      34.704  16.079   9.459  0.00  0.00     0.181 C 
HETATM    3  C   UNK N   1      33.339  14.144   8.527  0.00  0.00     0.205 C 
HETATM    4  C   UNK N   1      33.657  15.667   8.393  0.00  0.00     0.189 C 
HETATM    5  C   UNK N   1      34.611  13.365   8.978  0.00  0.00     0.292 C 
HETATM    6  O   UNK N   1      35.101  13.776  10.257  0.00  0.00    -0.348 OA
ENDROOT
BRANCH   4   7
HETATM    7  O   UNK N   1      34.212  16.085   7.151  0.00  0.00    -0.348 OA
BRANCH   7   8
HETATM    8  C   UNK N   1      33.339  16.853   6.346  0.00  0.00     0.292 C 
HETATM    9  C   UNK N   1      33.485  16.376   4.886  0.00  0.00     0.204 C 
HETATM   10  C   UNK N   1      32.455  17.112   4.018  0.00  0.00     0.183 C 
HETATM   11  C   UNK N   1      31.051  16.912   4.605  0.00  0.00     0.180 C 
HETATM   12  C   UNK N   1      31.071  17.377   6.079  0.00  0.00     0.180 C 
HETATM   13  O   UNK N   1      32.019  16.619   6.807  0.00  0.00    -0.348 OA
BRANCH   9  14
HETATM   14  O   UNK N   1      33.267  14.995   4.818  0.00  0.00    -0.388 OA
HETATM   15  H   UNK N   1      32.945  14.087   4.924  0.00  0.00     0.210 HD
ENDBRANCH   9  14
BRANCH  10  16
HETATM   16  O   UNK N   1      32.506  16.643   2.703  0.00  0.00    -0.390 OA
HETATM   17  H   UNK N   1      32.065  15.828   2.417  0.00  0.00     0.210 HD
ENDBRANCH  10  16
BRANCH  11  18
HETATM   18  O   UNK N   1      30.128  17.650   3.859  0.00  0.00    -0.390 OA
HETATM   19  H   UNK N   1      29.408  18.144   4.281  0.00  0.00     0.210 HD
ENDBRANCH  11  18
BRANCH  12  20
HETATM   20  C   UNK N   1      29.717  17.169   6.764  0.00  0.00     0.215 C 
BRANCH  20  21
HETATM   21  O   UNK N   1      29.369  18.255   7.577  0.00  0.00    -0.294 OA
BRANCH  21  22
HETATM   22  P   UNK N   1      29.375  17.716   9.241  0.00  0.00     0.390 P 
HETATM   23  O   UNK N   1      29.631  18.916  10.197  0.00  0.00    -0.632 OA
BRANCH  22  24
HETATM   24  O   UNK N   1      27.829  17.059   9.671  0.00  0.00    -0.307 OA
HETATM   25  H   UNK N   1      27.365  16.207   9.709  0.00  0.00     0.222 HD
ENDBRANCH  22  24
BRANCH  22  26
HETATM   26  O   UNK N   1      30.635  16.558   9.527  0.00  0.00    -0.307 OA
HETATM   27  H   UNK N   1      30.455  15.607   9.587  0.00  0.00     0.222 HD
ENDBRANCH  22  26
ENDBRANCH  21  22
ENDBRANCH  20  21
ENDBRANCH  12  20
ENDBRANCH   7   8
ENDBRANCH   4   7
BRANCH   2  28
HETATM   28  O   UNK N   1      34.484  17.398   9.863  0.00  0.00    -0.390 OA
HETATM   29  H   UNK N   1      33.829  17.622  10.541  0.00  0.00     0.210 HD
ENDBRANCH   2  28
BRANCH   3  30
HETATM   30  O   UNK N   1      32.337  14.011   9.495  0.00  0.00    -0.388 OA
HETATM   31  H   UNK N   1      31.607  13.526   9.911  0.00  0.00     0.210 HD
ENDBRANCH   3  30
BRANCH   1  32
HETATM   32  C   UNK N   1      35.836  15.591  11.625  0.00  0.00     0.198 C 
BRANCH  32  33
HETATM   33  O   UNK N   1      36.923  16.120  10.926  0.00  0.00    -0.398 OA
HETATM   34  H   UNK N   1      37.711  15.583  10.753  0.00  0.00     0.209 HD
ENDBRANCH  32  33
ENDBRANCH   1  32
BRANCH   5  35
HETATM   35  O   UNK N   1      34.564  11.938   8.923  0.00  0.00    -0.348 OA
BRANCH  35  36
HETATM   36  C   UNK N   1      34.342  11.230  10.141  0.00  0.00     0.189 C 
HETATM   37  C   UNK N   1      33.127  10.301   9.970  0.00  0.00     0.181 C 
HETATM   38  C   UNK N   1      33.415   9.144   8.977  0.00  0.00     0.179 C 
HETATM   39  O   UNK N   1      34.565   8.394   9.360  0.00  0.00    -0.349 OA
HETATM   40  C   UNK N   1      35.731   9.193   9.525  0.00  0.00     0.288 C 
HETATM   41  C   UNK N   1      35.520  10.317  10.552  0.00  0.00     0.204 C 
BRANCH  37  42
HETATM   42  O   UNK N   1      31.998  11.027   9.582  0.00  0.00    -0.390 OA
HETATM   43  H   UNK N   1      31.482  10.864   8.777  0.00  0.00     0.210 HD
ENDBRANCH  37  42
BRANCH  38  44
HETATM   44  C   UNK N   1      33.506   9.560   7.502  0.00  0.00     0.198 C 
BRANCH  44  45
HETATM   45  O   UNK N   1      32.407  10.337   7.133  0.00  0.00    -0.398 OA
HETATM   46  H   UNK N   1      32.240  10.709   6.253  0.00  0.00     0.209 HD
ENDBRANCH  44  45
ENDBRANCH  38  44
BRANCH  40  47
HETATM   47  O   UNK N   1      36.178   9.693   8.296  0.00  0.00    -0.369 OA
HETATM   48  H   UNK N   1      36.799   9.739   7.553  0.00  0.00     0.212 HD
ENDBRANCH  40  47
BRANCH  41  49
HETATM   49  O   UNK N   1      36.703  11.029  10.739  0.00  0.00    -0.388 OA
HETATM   50  H   UNK N   1      37.483  10.600  11.121  0.00  0.00     0.210 HD
ENDBRANCH  41  49
ENDBRANCH  35  36
ENDBRANCH   5  35
TORSDOF 21
ENDMDL
MODEL 4
REMARK VINA RESULT:      -6.9      3.883      8.593
REMARK  21 active torsions:
REMARK  status: ('A' for Active; 'I' for Inactive)
REMARK    1  A    between atoms: C_4  and  C_1 
REMARK    2  A    between atoms: O_19  and  C_1 
REMARK    3  A    between atoms: C_5  and  C_2 
REMARK    4  A    between atoms: O_20  and  C_2 
REMARK    5  A    between atoms: C_6  and  C_3 
REMARK    6  A    between atoms: O_32  and  C_3 
REMARK    7  A    between atoms: C_7  and  O_21 
REMARK    8  A    between atoms: C_8  and  O_22 
REMARK    9  A    between atoms: C_9  and  O_23 
REMARK   10  A    between atoms: C_10  and  O_24 
REMARK   11  A    between atoms: C_11  and  O_25 
REMARK   12  A    between atoms: C_12  and  O_26 
REMARK   13  A    between atoms: C_13  and  O_27 
REMARK   14  A    between atoms: C_14  and  O_36 
REMARK   15  A    between atoms: C_15  and  O_37 
REMARK   16  A    between atoms: C_16  and  O_28 
REMARK   17  A    between atoms: C_17  and  O_37 
REMARK   18  A    between atoms: C_18  and  O_36 
REMARK   19  A    between atoms: P_38  and  O_29 
REMARK   20  A    between atoms: P_38  and  O_30 
REMARK   21  A    between atoms: P_38  and  O_32 
ROOT
HETATM    1  C   UNK N   1      21.065  18.547   3.724  0.00  0.00     0.179 C 
HETATM    2  C   UNK N   1      20.701  17.060   3.916  0.00  0.00     0.181 C 
HETATM    3  C   UNK N   1      22.556  17.293   5.642  0.00  0.00     0.205 C 
HETATM    4  C   UNK N   1      21.323  16.444   5.194  0.00  0.00     0.189 C 
HETATM    5  C   UNK N   1      23.292  17.873   4.396  0.00  0.00     0.292 C 
HETATM    6  O   UNK N   1      22.475  18.752   3.618  0.00  0.00    -0.348 OA
ENDROOT
BRANCH   4   7
HETATM    7  O   UNK N   1      21.584  15.086   4.859  0.00  0.00    -0.348 OA
BRANCH   7   8
HETATM    8  C   UNK N   1      21.274  14.159   5.880  0.00  0.00     0.292 C 
HETATM    9  C   UNK N   1      22.450  13.169   6.007  0.00  0.00     0.204 C 
HETATM   10  C   UNK N   1      22.186  12.233   7.193  0.00  0.00     0.183 C 
HETATM   11  C   UNK N   1      21.929  13.063   8.457  0.00  0.00     0.180 C 
HETATM   12  C   UNK N   1      20.770  14.044   8.165  0.00  0.00     0.180 C 
HETATM   13  O   UNK N   1      21.118  14.889   7.086  0.00  0.00    -0.348 OA
BRANCH   9  14
HETATM   14  O   UNK N   1      23.640  13.876   6.212  0.00  0.00    -0.388 OA
HETATM   15  H   UNK N   1      24.318  14.541   6.412  0.00  0.00     0.210 HD
ENDBRANCH   9  14
BRANCH  10  16
HETATM   16  O   UNK N   1      23.273  11.375   7.386  0.00  0.00    -0.390 OA
HETATM   17  H   UNK N   1      23.654  11.197   8.259  0.00  0.00     0.210 HD
ENDBRANCH  10  16
BRANCH  11  18
HETATM   18  O   UNK N   1      21.608  12.210   9.516  0.00  0.00    -0.390 OA
HETATM   19  H   UNK N   1      22.187  12.113  10.288  0.00  0.00     0.210 HD
ENDBRANCH  11  18
BRANCH  12  20
HETATM   20  C   UNK N   1      20.472  14.953   9.362  0.00  0.00     0.215 C 
BRANCH  20  21
HETATM   21  O   UNK N   1      19.112  15.274   9.450  0.00  0.00    -0.294 OA
BRANCH  21  22
HETATM   22  P   UNK N   1      18.844  16.762   8.569  0.00  0.00     0.390 P 
HETATM   23  O   UNK N   1      20.138  17.625   8.561  0.00  0.00    -0.632 OA
BRANCH  22  24
HETATM   24  O   UNK N   1      18.462  16.425   6.911  0.00  0.00    -0.307 OA
HETATM   25  H   UNK N   1      17.857  15.882   6.381  0.00  0.00     0.222 HD
ENDBRANCH  22  24
BRANCH  22  26
HETATM   26  O   UNK N   1      17.597  17.718   9.303  0.00  0.00    -0.307 OA
HETATM   27  H   UNK N   1      16.659  17.483   9.231  0.00  0.00     0.222 HD
ENDBRANCH  22  26
ENDBRANCH  21  22
ENDBRANCH  20  21
ENDBRANCH  12  20
ENDBRANCH   7   8
ENDBRANCH   4   7
BRANCH   2  28
HETATM   28  O   UNK N   1      19.319  16.851   3.906  0.00  0.00    -0.390 OA
HETATM   29  H   UNK N   1      18.791  16.889   4.718  0.00  0.00     0.210 HD
ENDBRANCH   2  28
BRANCH   3  30
HETATM   30  O   UNK N   1      22.077  18.339   6.436  0.00  0.00    -0.388 OA
HETATM   31  H   UNK N   1      21.525  19.125   6.577  0.00  0.00     0.210 HD
ENDBRANCH   3  30
BRANCH   1  32
HETATM   32  C   UNK N   1      20.423  19.043   2.430  0.00  0.00     0.198 C 
BRANCH  32  33
HETATM   33  O   UNK N   1      19.052  19.236   2.609  0.00  0.00    -0.398 OA
HETATM   34  H   UNK N   1      18.720  19.837   3.293  0.00  0.00     0.209 HD
ENDBRANCH  32  33
ENDBRANCH   1  32
BRANCH   5  35
HETATM   35  O   UNK N   1      24.570  18.476   4.608  0.00  0.00    -0.348 OA
BRANCH  35  36
HETATM   36  C   UNK N   1      25.504  18.458   3.531  0.00  0.00     0.189 C 
HETATM   37  C   UNK N   1      25.956  19.897   3.232  0.00  0.00     0.181 C 
HETATM   38  C   UNK N   1      26.812  20.489   4.384  0.00  0.00     0.179 C 
HETATM   39  O   UNK N   1      27.935  19.666   4.682  0.00  0.00    -0.349 OA
HETATM   40  C   UNK N   1      27.586  18.320   4.980  0.00  0.00     0.288 C 
HETATM   41  C   UNK N   1      26.794  17.663   3.839  0.00  0.00     0.204 C 
BRANCH  37  42
HETATM   42  O   UNK N   1      24.858  20.714   2.950  0.00  0.00    -0.390 OA
HETATM   43  H   UNK N   1      24.883  21.503   2.387  0.00  0.00     0.210 HD
ENDBRANCH  37  42
BRANCH  38  44
HETATM   44  C   UNK N   1      26.033  20.830   5.662  0.00  0.00     0.198 C 
BRANCH  44  45
HETATM   45  O   UNK N   1      26.889  21.299   6.660  0.00  0.00    -0.398 OA
HETATM   46  H   UNK N   1      27.667  20.838   7.009  0.00  0.00     0.209 HD
ENDBRANCH  44  45
ENDBRANCH  38  44
BRANCH  40  47
HETATM   47  O   UNK N   1      26.904  18.233   6.200  0.00  0.00    -0.369 OA
HETATM   48  H   UNK N   1      26.548  17.751   6.962  0.00  0.00     0.212 HD
ENDBRANCH  40  47
BRANCH  41  49
HETATM   49  O   UNK N   1      26.534  16.326   4.138  0.00  0.00    -0.388 OA
HETATM   50  H   UNK N   1      25.820  15.850   3.688  0.00  0.00     0.210 HD
ENDBRANCH  41  49
ENDBRANCH  35  36
ENDBRANCH   5  35
TORSDOF 21
ENDMDL
MODEL 5
REMARK VINA RESULT:      -6.9      4.928     11.400
REMARK  21 active torsions:
REMARK  status: ('A' for Active; 'I' for Inactive)
REMARK    1  A    between atoms: C_4  and  C_1 
REMARK    2  A    between atoms: O_19  and  C_1 
REMARK    3  A    between atoms: C_5  and  C_2 
REMARK    4  A    between atoms: O_20  and  C_2 
REMARK    5  A    between atoms: C_6  and  C_3 
REMARK    6  A    between atoms: O_32  and  C_3 
REMARK    7  A    between atoms: C_7  and  O_21 
REMARK    8  A    between atoms: C_8  and  O_22 
REMARK    9  A    between atoms: C_9  and  O_23 
REMARK   10  A    between atoms: C_10  and  O_24 
REMARK   11  A    between atoms: C_11  and  O_25 
REMARK   12  A    between atoms: C_12  and  O_26 
REMARK   13  A    between atoms: C_13  and  O_27 
REMARK   14  A    between atoms: C_14  and  O_36 
REMARK   15  A    between atoms: C_15  and  O_37 
REMARK   16  A    between atoms: C_16  and  O_28 
REMARK   17  A    between atoms: C_17  and  O_37 
REMARK   18  A    between atoms: C_18  and  O_36 
REMARK   19  A    between atoms: P_38  and  O_29 
REMARK   20  A    between atoms: P_38  and  O_30 
REMARK   21  A    between atoms: P_38  and  O_32 
ROOT
HETATM    1  C   UNK N   1      34.122  17.067   9.084  0.00  0.00     0.179 C 
HETATM    2  C   UNK N   1      32.984  16.552   8.179  0.00  0.00     0.181 C 
HETATM    3  C   UNK N   1      33.240  14.567   9.751  0.00  0.00     0.205 C 
HETATM    4  C   UNK N   1      32.289  15.287   8.742  0.00  0.00     0.189 C 
HETATM    5  C   UNK N   1      34.724  14.732   9.304  0.00  0.00     0.292 C 
HETATM    6  O   UNK N   1      35.154  16.096   9.267  0.00  0.00    -0.348 OA
ENDROOT
BRANCH   4   7
HETATM    7  O   UNK N   1      31.906  14.536   7.595  0.00  0.00    -0.348 OA
BRANCH   7   8
HETATM    8  C   UNK N   1      31.700  15.308   6.429  0.00  0.00     0.292 C 
HETATM    9  C   UNK N   1      31.792  14.371   5.207  0.00  0.00     0.204 C 
HETATM   10  C   UNK N   1      31.447  15.169   3.943  0.00  0.00     0.183 C 
HETATM   11  C   UNK N   1      30.079  15.841   4.115  0.00  0.00     0.180 C 
HETATM   12  C   UNK N   1      30.118  16.697   5.401  0.00  0.00     0.180 C 
HETATM   13  O   UNK N   1      30.403  15.873   6.516  0.00  0.00    -0.348 OA
BRANCH   9  14
HETATM   14  O   UNK N   1      30.893  13.309   5.361  0.00  0.00    -0.388 OA
HETATM   15  H   UNK N   1      30.393  12.481   5.288  0.00  0.00     0.210 HD
ENDBRANCH   9  14
BRANCH  10  16
HETATM   16  O   UNK N   1      31.442  14.329   2.825  0.00  0.00    -0.390 OA
HETATM   17  H   UNK N   1      31.517  13.365   2.892  0.00  0.00     0.210 HD
ENDBRANCH  10  16
BRANCH  11  18
HETATM   18  O   UNK N   1      29.807  16.632   2.995  0.00  0.00    -0.390 OA
HETATM   19  H   UNK N   1      30.504  16.901   2.377  0.00  0.00     0.210 HD
ENDBRANCH  11  18
BRANCH  12  20
HETATM   20  C   UNK N   1      28.772  17.373   5.682  0.00  0.00     0.215 C 
BRANCH  20  21
HETATM   21  O   UNK N   1      28.215  16.947   6.895  0.00  0.00    -0.294 OA
BRANCH  21  22
HETATM   22  P   UNK N   1      28.177  18.313   7.987  0.00  0.00     0.390 P 
HETATM   23  O   UNK N   1      29.623  18.771   8.329  0.00  0.00    -0.632 OA
BRANCH  22  24
HETATM   24  O   UNK N   1      27.391  19.666   7.239  0.00  0.00    -0.307 OA
HETATM   25  H   UNK N   1      27.461  20.227   6.451  0.00  0.00     0.222 HD
ENDBRANCH  22  24
BRANCH  22  26
HETATM   26  O   UNK N   1      27.403  17.906   9.485  0.00  0.00    -0.307 OA
HETATM   27  H   UNK N   1      27.487  18.461  10.276  0.00  0.00     0.222 HD
ENDBRANCH  22  26
ENDBRANCH  21  22
ENDBRANCH  20  21
ENDBRANCH  12  20
ENDBRANCH   7   8
ENDBRANCH   4   7
BRANCH   2  28
HETATM   28  O   UNK N   1      32.035  17.542   7.911  0.00  0.00    -0.390 OA
HETATM   29  H   UNK N   1      31.848  18.254   8.542  0.00  0.00     0.210 HD
ENDBRANCH   2  28
BRANCH   3  30
HETATM   30  O   UNK N   1      33.055  15.168  11.000  0.00  0.00    -0.388 OA
HETATM   31  H   UNK N   1      32.513  15.641  11.651  0.00  0.00     0.210 HD
ENDBRANCH   3  30
BRANCH   1  32
HETATM   32  C   UNK N   1      34.750  18.294   8.426  0.00  0.00     0.198 C 
BRANCH  32  33
HETATM   33  O   UNK N   1      34.580  18.246   7.041  0.00  0.00    -0.398 OA
HETATM   34  H   UNK N   1      33.803  17.817   6.651  0.00  0.00     0.209 HD
ENDBRANCH  32  33
ENDBRANCH   1  32
BRANCH   5  35
HETATM   35  O   UNK N   1      35.707  13.942   9.977  0.00  0.00    -0.348 OA
BRANCH  35  36
HETATM   36  C   UNK N   1      35.370  12.597  10.308  0.00  0.00     0.189 C 
HETATM   37  C   UNK N   1      36.431  11.652   9.718  0.00  0.00     0.181 C 
HETATM   38  C   UNK N   1      37.809  11.816  10.414  0.00  0.00     0.179 C 
HETATM   39  O   UNK N   1      37.711  11.636  11.824  0.00  0.00    -0.349 OA
HETATM   40  C   UNK N   1      36.753  12.489  12.438  0.00  0.00     0.288 C 
HETATM   41  C   UNK N   1      35.352  12.317  11.829  0.00  0.00     0.204 C 
BRANCH  37  42
HETATM   42  O   UNK N   1      36.541  11.832   8.337  0.00  0.00    -0.390 OA
HETATM   43  H   UNK N   1      37.255  11.476   7.785  0.00  0.00     0.210 HD
ENDBRANCH  37  42
BRANCH  38  44
HETATM   44  C   UNK N   1      38.553  13.117  10.083  0.00  0.00     0.198 C 
BRANCH  44  45
HETATM   45  O   UNK N   1      38.385  13.463   8.742  0.00  0.00    -0.398 OA
HETATM   46  H   UNK N   1      37.594  13.864   8.349  0.00  0.00     0.209 HD
ENDBRANCH  44  45
ENDBRANCH  38  44
BRANCH  40  47
HETATM   47  O   UNK N   1      37.171  13.825  12.402  0.00  0.00    -0.369 OA
HETATM   48  H   UNK N   1      37.400  14.650  11.947  0.00  0.00     0.212 HD
ENDBRANCH  40  47
BRANCH  41  49
HETATM   49  O   UNK N   1      34.430  13.115  12.504  0.00  0.00    -0.388 OA
HETATM   50  H   UNK N   1      33.487  13.072  12.286  0.00  0.00     0.210 HD
ENDBRANCH  41  49
ENDBRANCH  35  36
ENDBRANCH   5  35
TORSDOF 21
ENDMDL
MODEL 6
REMARK VINA RESULT:      -6.8      4.152     10.406
REMARK  21 active torsions:
REMARK  status: ('A' for Active; 'I' for Inactive)
REMARK    1  A    between atoms: C_4  and  C_1 
REMARK    2  A    between atoms: O_19  and  C_1 
REMARK    3  A    between atoms: C_5  and  C_2 
REMARK    4  A    between atoms: O_20  and  C_2 
REMARK    5  A    between atoms: C_6  and  C_3 
REMARK    6  A    between atoms: O_32  and  C_3 
REMARK    7  A    between atoms: C_7  and  O_21 
REMARK    8  A    between atoms: C_8  and  O_22 
REMARK    9  A    between atoms: C_9  and  O_23 
REMARK   10  A    between atoms: C_10  and  O_24 
REMARK   11  A    between atoms: C_11  and  O_25 
REMARK   12  A    between atoms: C_12  and  O_26 
REMARK   13  A    between atoms: C_13  and  O_27 
REMARK   14  A    between atoms: C_14  and  O_36 
REMARK   15  A    between atoms: C_15  and  O_37 
REMARK   16  A    between atoms: C_16  and  O_28 
REMARK   17  A    between atoms: C_17  and  O_37 
REMARK   18  A    between atoms: C_18  and  O_36 
REMARK   19  A    between atoms: P_38  and  O_29 
REMARK   20  A    between atoms: P_38  and  O_30 
REMARK   21  A    between atoms: P_38  and  O_32 
ROOT
HETATM    1  C   UNK N   1      33.071  14.064   5.905  0.00  0.00     0.179 C 
HETATM    2  C   UNK N   1      32.412  15.450   5.750  0.00  0.00     0.181 C 
HETATM    3  C   UNK N   1      34.356  16.048   7.279  0.00  0.00     0.205 C 
HETATM    4  C   UNK N   1      33.304  16.606   6.269  0.00  0.00     0.189 C 
HETATM    5  C   UNK N   1      33.750  14.861   8.089  0.00  0.00     0.292 C 
HETATM    6  O   UNK N   1      33.371  13.753   7.267  0.00  0.00    -0.348 OA
ENDROOT
BRANCH   4   7
HETATM    7  O   UNK N   1      32.393  17.572   6.782  0.00  0.00    -0.348 OA
BRANCH   7   8
HETATM    8  C   UNK N   1      31.188  17.033   7.288  0.00  0.00     0.292 C 
HETATM    9  C   UNK N   1      31.140  17.300   8.806  0.00  0.00     0.204 C 
HETATM   10  C   UNK N   1      29.784  16.832   9.350  0.00  0.00     0.183 C 
HETATM   11  C   UNK N   1      28.653  17.504   8.561  0.00  0.00     0.180 C 
HETATM   12  C   UNK N   1      28.862  17.199   7.060  0.00  0.00     0.180 C 
HETATM   13  O   UNK N   1      30.117  17.700   6.640  0.00  0.00    -0.348 OA
BRANCH   9  14
HETATM   14  O   UNK N   1      31.306  18.669   9.048  0.00  0.00    -0.388 OA
HETATM   15  H   UNK N   1      31.585  19.597   9.049  0.00  0.00     0.210 HD
ENDBRANCH   9  14
BRANCH  10  16
HETATM   16  O   UNK N   1      29.676  17.135  10.710  0.00  0.00    -0.390 OA
HETATM   17  H   UNK N   1      30.414  17.032  11.332  0.00  0.00     0.210 HD
ENDBRANCH  10  16
BRANCH  11  18
HETATM   18  O   UNK N   1      27.423  17.014   9.005  0.00  0.00    -0.390 OA
HETATM   19  H   UNK N   1      26.795  17.571   9.491  0.00  0.00     0.210 HD
ENDBRANCH  11  18
BRANCH  12  20
HETATM   20  C   UNK N   1      27.801  17.873   6.184  0.00  0.00     0.215 C 
BRANCH  20  21
HETATM   21  O   UNK N   1      27.358  19.082   6.734  0.00  0.00    -0.294 OA
BRANCH  21  22
HETATM   22  P   UNK N   1      27.170  20.238   5.434  0.00  0.00     0.390 P 
HETATM   23  O   UNK N   1      27.397  21.684   5.959  0.00  0.00    -0.632 OA
BRANCH  22  24
HETATM   24  O   UNK N   1      28.360  19.963   4.203  0.00  0.00    -0.307 OA
HETATM   25  H   UNK N   1      28.470  19.488   3.365  0.00  0.00     0.222 HD
ENDBRANCH  22  24
BRANCH  22  26
HETATM   26  O   UNK N   1      25.571  20.183   4.763  0.00  0.00    -0.307 OA
HETATM   27  H   UNK N   1      25.101  20.985   4.488  0.00  0.00     0.222 HD
ENDBRANCH  22  26
ENDBRANCH  21  22
ENDBRANCH  20  21
ENDBRANCH  12  20
ENDBRANCH   7   8
ENDBRANCH   4   7
BRANCH   2  28
HETATM   28  O   UNK N   1      32.018  15.701   4.433  0.00  0.00    -0.390 OA
HETATM   29  H   UNK N   1      31.123  16.005   4.217  0.00  0.00     0.210 HD
ENDBRANCH   2  28
BRANCH   3  30
HETATM   30  O   UNK N   1      35.452  15.599   6.535  0.00  0.00    -0.388 OA
HETATM   31  H   UNK N   1      35.911  15.443   5.694  0.00  0.00     0.210 HD
ENDBRANCH   3  30
BRANCH   1  32
HETATM   32  C   UNK N   1      32.102  13.003   5.388  0.00  0.00     0.198 C 
BRANCH  32  33
HETATM   33  O   UNK N   1      30.782  13.426   5.555  0.00  0.00    -0.398 OA
HETATM   34  H   UNK N   1      30.311  13.265   6.386  0.00  0.00     0.209 HD
ENDBRANCH  32  33
ENDBRANCH   1  32
BRANCH   5  35
HETATM   35  O   UNK N   1      34.490  14.386   9.215  0.00  0.00    -0.348 OA
BRANCH  35  36
HETATM   36  C   UNK N   1      35.167  13.138   9.091  0.00  0.00     0.189 C 
HETATM   37  C   UNK N   1      36.656  13.337   9.426  0.00  0.00     0.181 C 
HETATM   38  C   UNK N   1      36.876  13.671  10.925  0.00  0.00     0.179 C 
HETATM   39  O   UNK N   1      36.303  12.681  11.775  0.00  0.00    -0.349 OA
HETATM   40  C   UNK N   1      34.921  12.455  11.527  0.00  0.00     0.288 C 
HETATM   41  C   UNK N   1      34.654  12.054  10.067  0.00  0.00     0.204 C 
BRANCH  37  42
HETATM   42  O   UNK N   1      37.222  14.314   8.604  0.00  0.00    -0.390 OA
HETATM   43  H   UNK N   1      37.749  15.066   8.917  0.00  0.00     0.210 HD
ENDBRANCH  37  42
BRANCH  38  44
HETATM   44  C   UNK N   1      36.429  15.076  11.350  0.00  0.00     0.198 C 
BRANCH  44  45
HETATM   45  O   UNK N   1      37.192  16.057  10.716  0.00  0.00    -0.398 OA
HETATM   46  H   UNK N   1      38.160  16.092  10.677  0.00  0.00     0.209 HD
ENDBRANCH  44  45
ENDBRANCH  38  44
BRANCH  40  47
HETATM   47  O   UNK N   1      34.152  13.562  11.906  0.00  0.00    -0.369 OA
HETATM   48  H   UNK N   1      34.024  14.503  12.100  0.00  0.00     0.212 HD
ENDBRANCH  40  47
BRANCH  41  49
HETATM   49  O   UNK N   1      33.302  11.771   9.882  0.00  0.00    -0.388 OA
HETATM   50  H   UNK N   1      32.702  11.712  10.641  0.00  0.00     0.210 HD
ENDBRANCH  41  49
ENDBRANCH  35  36
ENDBRANCH   5  35
TORSDOF 21
ENDMDL
MODEL 7
REMARK VINA RESULT:      -6.8      3.918      9.019
REMARK  21 active torsions:
REMARK  status: ('A' for Active; 'I' for Inactive)
REMARK    1  A    between atoms: C_4  and  C_1 
REMARK    2  A    between atoms: O_19  and  C_1 
REMARK    3  A    between atoms: C_5  and  C_2 
REMARK    4  A    between atoms: O_20  and  C_2 
REMARK    5  A    between atoms: C_6  and  C_3 
REMARK    6  A    between atoms: O_32  and  C_3 
REMARK    7  A    between atoms: C_7  and  O_21 
REMARK    8  A    between atoms: C_8  and  O_22 
REMARK    9  A    between atoms: C_9  and  O_23 
REMARK   10  A    between atoms: C_10  and  O_24 
REMARK   11  A    between atoms: C_11  and  O_25 
REMARK   12  A    between atoms: C_12  and  O_26 
REMARK   13  A    between atoms: C_13  and  O_27 
REMARK   14  A    between atoms: C_14  and  O_36 
REMARK   15  A    between atoms: C_15  and  O_37 
REMARK   16  A    between atoms: C_16  and  O_28 
REMARK   17  A    between atoms: C_17  and  O_37 
REMARK   18  A    between atoms: C_18  and  O_36 
REMARK   19  A    between atoms: P_38  and  O_29 
REMARK   20  A    between atoms: P_38  and  O_30 
REMARK   21  A    between atoms: P_38  and  O_32 
ROOT
HETATM    1  C   UNK N   1      31.141  13.342   4.434  0.00  0.00     0.179 C 
HETATM    2  C   UNK N   1      29.833  14.099   4.128  0.00  0.00     0.181 C 
HETATM    3  C   UNK N   1      31.256  16.010   5.022  0.00  0.00     0.205 C 
HETATM    4  C   UNK N   1      29.999  15.639   4.171  0.00  0.00     0.189 C 
HETATM    5  C   UNK N   1      31.440  14.989   6.185  0.00  0.00     0.292 C 
HETATM    6  O   UNK N   1      31.657  13.650   5.731  0.00  0.00    -0.348 OA
ENDROOT
BRANCH   4   7
HETATM    7  O   UNK N   1      28.751  16.131   4.647  0.00  0.00    -0.348 OA
BRANCH   7   8
HETATM    8  C   UNK N   1      28.741  17.514   4.945  0.00  0.00     0.292 C 
HETATM    9  C   UNK N   1      27.796  18.214   3.947  0.00  0.00     0.204 C 
HETATM   10  C   UNK N   1      27.676  19.695   4.333  0.00  0.00     0.183 C 
HETATM   11  C   UNK N   1      27.235  19.810   5.798  0.00  0.00     0.180 C 
HETATM   12  C   UNK N   1      28.236  19.018   6.669  0.00  0.00     0.180 C 
HETATM   13  O   UNK N   1      28.250  17.661   6.267  0.00  0.00    -0.348 OA
BRANCH   9  14
HETATM   14  O   UNK N   1      26.536  17.607   3.985  0.00  0.00    -0.388 OA
HETATM   15  H   UNK N   1      25.692  17.205   4.244  0.00  0.00     0.210 HD
ENDBRANCH   9  14
BRANCH  10  16
HETATM   16  O   UNK N   1      26.762  20.341   3.496  0.00  0.00    -0.390 OA
HETATM   17  H   UNK N   1      26.805  20.286   2.528  0.00  0.00     0.210 HD
ENDBRANCH  10  16
BRANCH  11  18
HETATM   18  O   UNK N   1      27.206  21.157   6.168  0.00  0.00    -0.390 OA
HETATM   19  H   UNK N   1      26.824  21.838   5.593  0.00  0.00     0.210 HD
ENDBRANCH  11  18
BRANCH  12  20
HETATM   20  C   UNK N   1      27.847  19.037   8.151  0.00  0.00     0.215 C 
BRANCH  20  21
HETATM   21  O   UNK N   1      27.910  17.761   8.725  0.00  0.00    -0.294 OA
BRANCH  21  22
HETATM   22  P   UNK N   1      29.453  17.601   9.533  0.00  0.00     0.390 P 
HETATM   23  O   UNK N   1      29.428  16.391  10.510  0.00  0.00    -0.632 OA
BRANCH  22  24
HETATM   24  O   UNK N   1      30.710  17.284   8.381  0.00  0.00    -0.307 OA
HETATM   25  H   UNK N   1      31.667  17.398   8.271  0.00  0.00     0.222 HD
ENDBRANCH  22  24
BRANCH  22  26
HETATM   26  O   UNK N   1      29.825  19.010  10.474  0.00  0.00    -0.307 OA
HETATM   27  H   UNK N   1      29.164  19.696  10.657  0.00  0.00     0.222 HD
ENDBRANCH  22  26
ENDBRANCH  21  22
ENDBRANCH  20  21
ENDBRANCH  12  20
ENDBRANCH   7   8
ENDBRANCH   4   7
BRANCH   2  28
HETATM   28  O   UNK N   1      29.273  13.711   2.908  0.00  0.00    -0.390 OA
HETATM   29  H   UNK N   1      29.570  12.916   2.440  0.00  0.00     0.210 HD
ENDBRANCH   2  28
BRANCH   3  30
HETATM   30  O   UNK N   1      32.365  15.960   4.171  0.00  0.00    -0.388 OA
HETATM   31  H   UNK N   1      33.277  15.700   3.967  0.00  0.00     0.210 HD
ENDBRANCH   3  30
BRANCH   1  32
HETATM   32  C   UNK N   1      30.858  11.842   4.389  0.00  0.00     0.198 C 
BRANCH  32  33
HETATM   33  O   UNK N   1      29.603  11.566   4.935  0.00  0.00    -0.398 OA
HETATM   34  H   UNK N   1      28.984  12.282   5.141  0.00  0.00     0.209 HD
ENDBRANCH  32  33
ENDBRANCH   1  32
BRANCH   5  35
HETATM   35  O   UNK N   1      32.397  15.308   7.197  0.00  0.00    -0.348 OA
BRANCH  35  36
HETATM   36  C   UNK N   1      33.469  14.394   7.415  0.00  0.00     0.189 C 
HETATM   37  C   UNK N   1      34.806  15.145   7.286  0.00  0.00     0.181 C 
HETATM   38  C   UNK N   1      35.015  16.162   8.440  0.00  0.00     0.179 C 
HETATM   39  O   UNK N   1      34.916  15.538   9.717  0.00  0.00    -0.349 OA
HETATM   40  C   UNK N   1      33.695  14.833   9.908  0.00  0.00     0.288 C 
HETATM   41  C   UNK N   1      33.471  13.764   8.827  0.00  0.00     0.204 C 
BRANCH  37  42
HETATM   42  O   UNK N   1      34.905  15.770   6.040  0.00  0.00    -0.390 OA
HETATM   43  H   UNK N   1      34.253  16.386   5.674  0.00  0.00     0.210 HD
ENDBRANCH  37  42
BRANCH  38  44
HETATM   44  C   UNK N   1      34.125  17.410   8.375  0.00  0.00     0.198 C 
BRANCH  44  45
HETATM   45  O   UNK N   1      34.561  18.286   7.379  0.00  0.00    -0.398 OA
HETATM   46  H   UNK N   1      34.281  18.282   6.451  0.00  0.00     0.209 HD
ENDBRANCH  44  45
ENDBRANCH  38  44
BRANCH  40  47
HETATM   47  O   UNK N   1      32.612  15.715   9.994  0.00  0.00    -0.369 OA
HETATM   48  H   UNK N   1      32.212  16.599  10.012  0.00  0.00     0.212 HD
ENDBRANCH  40  47
BRANCH  41  49
HETATM   49  O   UNK N   1      32.304  13.048   9.090  0.00  0.00    -0.388 OA
HETATM   50  H   UNK N   1      31.885  12.515   8.398  0.00  0.00     0.210 HD
ENDBRANCH  41  49
ENDBRANCH  35  36
ENDBRANCH   5  35
TORSDOF 21
ENDMDL
MODEL 8
REMARK VINA RESULT:      -6.8      3.975      9.023
REMARK  21 active torsions:
REMARK  status: ('A' for Active; 'I' for Inactive)
REMARK    1  A    between atoms: C_4  and  C_1 
REMARK    2  A    between atoms: O_19  and  C_1 
REMARK    3  A    between atoms: C_5  and  C_2 
REMARK    4  A    between atoms: O_20  and  C_2 
REMARK    5  A    between atoms: C_6  and  C_3 
REMARK    6  A    between atoms: O_32  and  C_3 
REMARK    7  A    between atoms: C_7  and  O_21 
REMARK    8  A    between atoms: C_8  and  O_22 
REMARK    9  A    between atoms: C_9  and  O_23 
REMARK   10  A    between atoms: C_10  and  O_24 
REMARK   11  A    between atoms: C_11  and  O_25 
REMARK   12  A    between atoms: C_12  and  O_26 
REMARK   13  A    between atoms: C_13  and  O_27 
REMARK   14  A    between atoms: C_14  and  O_36 
REMARK   15  A    between atoms: C_15  and  O_37 
REMARK   16  A    between atoms: C_16  and  O_28 
REMARK   17  A    between atoms: C_17  and  O_37 
REMARK   18  A    between atoms: C_18  and  O_36 
REMARK   19  A    between atoms: P_38  and  O_29 
REMARK   20  A    between atoms: P_38  and  O_30 
REMARK   21  A    between atoms: P_38  and  O_32 
ROOT
HETATM    1  C   UNK N   1      20.938  19.945   2.740  0.00  0.00     0.179 C 
HETATM    2  C   UNK N   1      20.224  18.595   2.526  0.00  0.00     0.181 C 
HETATM    3  C   UNK N   1      21.737  17.996   4.483  0.00  0.00     0.205 C 
HETATM    4  C   UNK N   1      20.449  17.599   3.692  0.00  0.00     0.189 C 
HETATM    5  C   UNK N   1      22.798  18.602   3.517  0.00  0.00     0.292 C 
HETATM    6  O   UNK N   1      22.354  19.798   2.869  0.00  0.00    -0.348 OA
ENDROOT
BRANCH   4   7
HETATM    7  O   UNK N   1      20.460  16.313   3.081  0.00  0.00    -0.348 OA
BRANCH   7   8
HETATM    8  C   UNK N   1      19.837  15.297   3.842  0.00  0.00     0.292 C 
HETATM    9  C   UNK N   1      19.406  14.171   2.881  0.00  0.00     0.204 C 
HETATM   10  C   UNK N   1      18.841  13.005   3.703  0.00  0.00     0.183 C 
HETATM   11  C   UNK N   1      19.871  12.570   4.754  0.00  0.00     0.180 C 
HETATM   12  C   UNK N   1      20.250  13.805   5.601  0.00  0.00     0.180 C 
HETATM   13  O   UNK N   1      20.796  14.810   4.767  0.00  0.00    -0.348 OA
BRANCH   9  14
HETATM   14  O   UNK N   1      20.509  13.739   2.136  0.00  0.00    -0.388 OA
HETATM   15  H   UNK N   1      21.108  13.334   1.489  0.00  0.00     0.210 HD
ENDBRANCH   9  14
BRANCH  10  16
HETATM   16  O   UNK N   1      18.514  11.934   2.867  0.00  0.00    -0.390 OA
HETATM   17  H   UNK N   1      18.858  11.848   1.964  0.00  0.00     0.210 HD
ENDBRANCH  10  16
BRANCH  11  18
HETATM   18  O   UNK N   1      19.322  11.564   5.553  0.00  0.00    -0.390 OA
HETATM   19  H   UNK N   1      18.373  11.531   5.755  0.00  0.00     0.210 HD
ENDBRANCH  11  18
BRANCH  12  20
HETATM   20  C   UNK N   1      21.316  13.476   6.652  0.00  0.00     0.215 C 
BRANCH  20  21
HETATM   21  O   UNK N   1      20.761  12.878   7.791  0.00  0.00    -0.294 OA
BRANCH  21  22
HETATM   22  P   UNK N   1      20.817  14.038   9.099  0.00  0.00     0.390 P 
HETATM   23  O   UNK N   1      19.434  14.124   9.805  0.00  0.00    -0.632 OA
BRANCH  22  24
HETATM   24  O   UNK N   1      21.960  13.539  10.303  0.00  0.00    -0.307 OA
HETATM   25  H   UNK N   1      22.428  13.888  11.078  0.00  0.00     0.222 HD
ENDBRANCH  22  24
BRANCH  22  26
HETATM   26  O   UNK N   1      21.194  15.629   8.519  0.00  0.00    -0.307 OA
HETATM   27  H   UNK N   1      21.633  15.775   7.666  0.00  0.00     0.222 HD
ENDBRANCH  22  26
ENDBRANCH  21  22
ENDBRANCH  20  21
ENDBRANCH  12  20
ENDBRANCH   7   8
ENDBRANCH   4   7
BRANCH   2  28
HETATM   28  O   UNK N   1      18.857  18.754   2.288  0.00  0.00    -0.390 OA
HETATM   29  H   UNK N   1      18.189  18.295   2.820  0.00  0.00     0.210 HD
ENDBRANCH   2  28
BRANCH   3  30
HETATM   30  O   UNK N   1      21.363  18.952   5.434  0.00  0.00    -0.388 OA
HETATM   31  H   UNK N   1      21.167  19.224   6.345  0.00  0.00     0.210 HD
ENDBRANCH   3  30
BRANCH   1  32
HETATM   32  C   UNK N   1      20.671  20.835   1.529  0.00  0.00     0.198 C 
BRANCH  32  33
HETATM   33  O   UNK N   1      20.693  20.080   0.354  0.00  0.00    -0.398 OA
HETATM   34  H   UNK N   1      20.096  19.325   0.239  0.00  0.00     0.209 HD
ENDBRANCH  32  33
ENDBRANCH   1  32
BRANCH   5  35
HETATM   35  O   UNK N   1      24.118  18.802   4.029  0.00  0.00    -0.348 OA
BRANCH  35  36
HETATM   36  C   UNK N   1      25.214  18.641   3.132  0.00  0.00     0.189 C 
HETATM   37  C   UNK N   1      26.055  19.929   3.128  0.00  0.00     0.181 C 
HETATM   38  C   UNK N   1      26.781  20.154   4.481  0.00  0.00     0.179 C 
HETATM   39  O   UNK N   1      27.587  19.035   4.838  0.00  0.00    -0.349 OA
HETATM   40  C   UNK N   1      26.867  17.809   4.873  0.00  0.00     0.288 C 
HETATM   41  C   UNK N   1      26.182  17.503   3.532  0.00  0.00     0.204 C 
BRANCH  37  42
HETATM   42  O   UNK N   1      25.268  21.034   2.789  0.00  0.00    -0.390 OA
HETATM   43  H   UNK N   1      25.234  21.443   1.911  0.00  0.00     0.210 HD
ENDBRANCH  37  42
BRANCH  38  44
HETATM   44  C   UNK N   1      25.871  20.563   5.647  0.00  0.00     0.198 C 
BRANCH  44  45
HETATM   45  O   UNK N   1      26.558  20.513   6.860  0.00  0.00    -0.398 OA
HETATM   46  H   UNK N   1      26.959  19.724   7.258  0.00  0.00     0.209 HD
ENDBRANCH  44  45
ENDBRANCH  38  44
BRANCH  40  47
HETATM   47  O   UNK N   1      25.955  17.788   5.935  0.00  0.00    -0.369 OA
HETATM   48  H   UNK N   1      25.239  17.393   6.455  0.00  0.00     0.212 HD
ENDBRANCH  40  47
BRANCH  41  49
HETATM   49  O   UNK N   1      25.550  16.262   3.583  0.00  0.00    -0.388 OA
HETATM   50  H   UNK N   1      24.922  16.057   4.291  0.00  0.00     0.210 HD
ENDBRANCH  41  49
ENDBRANCH  35  36
ENDBRANCH   5  35
TORSDOF 21
ENDMDL
MODEL 9
REMARK VINA RESULT:      -6.7      3.541      7.084
REMARK  21 active torsions:
REMARK  status: ('A' for Active; 'I' for Inactive)
REMARK    1  A    between atoms: C_4  and  C_1 
REMARK    2  A    between atoms: O_19  and  C_1 
REMARK    3  A    between atoms: C_5  and  C_2 
REMARK    4  A    between atoms: O_20  and  C_2 
REMARK    5  A    between atoms: C_6  and  C_3 
REMARK    6  A    between atoms: O_32  and  C_3 
REMARK    7  A    between atoms: C_7  and  O_21 
REMARK    8  A    between atoms: C_8  and  O_22 
REMARK    9  A    between atoms: C_9  and  O_23 
REMARK   10  A    between atoms: C_10  and  O_24 
REMARK   11  A    between atoms: C_11  and  O_25 
REMARK   12  A    between atoms: C_12  and  O_26 
REMARK   13  A    between atoms: C_13  and  O_27 
REMARK   14  A    between atoms: C_14  and  O_36 
REMARK   15  A    between atoms: C_15  and  O_37 
REMARK   16  A    between atoms: C_16  and  O_28 
REMARK   17  A    between atoms: C_17  and  O_37 
REMARK   18  A    between atoms: C_18  and  O_36 
REMARK   19  A    between atoms: P_38  and  O_29 
REMARK   20  A    between atoms: P_38  and  O_30 
REMARK   21  A    between atoms: P_38  and  O_32 
ROOT
HETATM    1  C   UNK N   1      20.500  18.003   3.840  0.00  0.00     0.179 C 
HETATM    2  C   UNK N   1      20.228  16.694   4.608  0.00  0.00     0.181 C 
HETATM    3  C   UNK N   1      21.996  17.736   6.113  0.00  0.00     0.205 C 
HETATM    4  C   UNK N   1      20.840  16.688   6.031  0.00  0.00     0.189 C 
HETATM    5  C   UNK N   1      22.739  17.827   4.746  0.00  0.00     0.292 C 
HETATM    6  O   UNK N   1      21.896  18.257   3.673  0.00  0.00    -0.348 OA
ENDROOT
BRANCH   4   7
HETATM    7  O   UNK N   1      21.204  15.333   6.271  0.00  0.00    -0.348 OA
BRANCH   7   8
HETATM    8  C   UNK N   1      21.678  15.074   7.578  0.00  0.00     0.292 C 
HETATM    9  C   UNK N   1      20.595  14.279   8.335  0.00  0.00     0.204 C 
HETATM   10  C   UNK N   1      21.141  13.883   9.712  0.00  0.00     0.183 C 
HETATM   11  C   UNK N   1      22.467  13.129   9.543  0.00  0.00     0.180 C 
HETATM   12  C   UNK N   1      23.428  14.018   8.722  0.00  0.00     0.180 C 
HETATM   13  O   UNK N   1      22.859  14.299   7.457  0.00  0.00    -0.348 OA
BRANCH   9  14
HETATM   14  O   UNK N   1      20.257  13.133   7.607  0.00  0.00    -0.388 OA
HETATM   15  H   UNK N   1      19.804  12.416   7.136  0.00  0.00     0.210 HD
ENDBRANCH   9  14
BRANCH  10  16
HETATM   16  O   UNK N   1      20.213  13.090  10.393  0.00  0.00    -0.390 OA
HETATM   17  H   UNK N   1      19.507  13.463  10.944  0.00  0.00     0.210 HD
ENDBRANCH  10  16
BRANCH  11  18
HETATM   18  O   UNK N   1      23.002  12.841  10.801  0.00  0.00    -0.390 OA
HETATM   19  H   UNK N   1      22.721  12.065  11.311  0.00  0.00     0.210 HD
ENDBRANCH  11  18
BRANCH  12  20
HETATM   20  C   UNK N   1      24.769  13.324   8.459  0.00  0.00     0.215 C 
BRANCH  20  21
HETATM   21  O   UNK N   1      25.126  13.369   7.106  0.00  0.00    -0.294 OA
BRANCH  21  22
HETATM   22  P   UNK N   1      25.925  14.895   6.803  0.00  0.00     0.390 P 
HETATM   23  O   UNK N   1      26.577  15.433   8.109  0.00  0.00    -0.632 OA
BRANCH  22  24
HETATM   24  O   UNK N   1      27.209  14.690   5.655  0.00  0.00    -0.307 OA
HETATM   25  H   UNK N   1      27.359  14.689   4.696  0.00  0.00     0.222 HD
ENDBRANCH  22  24
BRANCH  22  26
HETATM   26  O   UNK N   1      24.803  16.101   6.258  0.00  0.00    -0.307 OA
HETATM   27  H   UNK N   1      25.087  16.872   5.742  0.00  0.00     0.222 HD
ENDBRANCH  22  26
ENDBRANCH  21  22
ENDBRANCH  20  21
ENDBRANCH  12  20
ENDBRANCH   7   8
ENDBRANCH   4   7
BRANCH   2  28
HETATM   28  O   UNK N   1      18.865  16.392   4.670  0.00  0.00    -0.390 OA
HETATM   29  H   UNK N   1      18.211  16.872   4.139  0.00  0.00     0.210 HD
ENDBRANCH   2  28
BRANCH   3  30
HETATM   30  O   UNK N   1      21.416  18.973   6.417  0.00  0.00    -0.388 OA
HETATM   31  H   UNK N   1      21.247  19.715   7.019  0.00  0.00     0.210 HD
ENDBRANCH   3  30
BRANCH   1  32
HETATM   32  C   UNK N   1      19.877  17.891   2.450  0.00  0.00     0.198 C 
BRANCH  32  33
HETATM   33  O   UNK N   1      18.589  18.429   2.447  0.00  0.00    -0.398 OA
HETATM   34  H   UNK N   1      17.811  17.853   2.485  0.00  0.00     0.209 HD
ENDBRANCH  32  33
ENDBRANCH   1  32
BRANCH   5  35
HETATM   35  O   UNK N   1      23.965  18.560   4.710  0.00  0.00    -0.348 OA
BRANCH  35  36
HETATM   36  C   UNK N   1      24.647  18.659   3.463  0.00  0.00     0.189 C 
HETATM   37  C   UNK N   1      25.071  20.121   3.235  0.00  0.00     0.181 C 
HETATM   38  C   UNK N   1      26.169  20.571   4.235  0.00  0.00     0.179 C 
HETATM   39  O   UNK N   1      27.304  19.711   4.193  0.00  0.00    -0.349 OA
HETATM   40  C   UNK N   1      26.985  18.342   4.408  0.00  0.00     0.288 C 
HETATM   41  C   UNK N   1      25.948  17.826   3.398  0.00  0.00     0.204 C 
BRANCH  37  42
HETATM   42  O   UNK N   1      23.964  20.972   3.287  0.00  0.00    -0.390 OA
HETATM   43  H   UNK N   1      23.357  21.140   2.550  0.00  0.00     0.210 HD
ENDBRANCH  37  42
BRANCH  38  44
HETATM   44  C   UNK N   1      25.690  20.768   5.680  0.00  0.00     0.198 C 
BRANCH  44  45
HETATM   45  O   UNK N   1      26.757  21.088   6.522  0.00  0.00    -0.398 OA
HETATM   46  H   UNK N   1      26.690  21.495   7.400  0.00  0.00     0.209 HD
ENDBRANCH  44  45
ENDBRANCH  38  44
BRANCH  40  47
HETATM   47  O   UNK N   1      26.574  18.121   5.728  0.00  0.00    -0.369 OA
HETATM   48  H   UNK N   1      26.606  18.279   6.684  0.00  0.00     0.212 HD
ENDBRANCH  40  47
BRANCH  41  49
HETATM   49  O   UNK N   1      25.717  16.466   3.595  0.00  0.00    -0.388 OA
HETATM   50  H   UNK N   1      26.021  15.814   2.945  0.00  0.00     0.210 HD
ENDBRANCH  41  49
ENDBRANCH  35  36
ENDBRANCH   5  35
TORSDOF 21
ENDMDL
