MODEL 1
REMARK VINA RESULT:      -4.9      0.000      0.000
REMARK  6 active torsions:
REMARK  status: ('A' for Active; 'I' for Inactive)
REMARK    1  A    between atoms: C_2  and  N_1 
REMARK    2  A    between atoms: C_2  and  C_3 
REMARK    3  A    between atoms: C_2  and  C_10 
REMARK    4  A    between atoms: C_3  and  N_4 
REMARK       I    between atoms: C_6  and  N_7 
REMARK       I    between atoms: C_6  and  N_8 
REMARK    5  A    between atoms: N_8  and  O_9 
REMARK    6  A    between atoms: C_10  and  O_11 
ROOT
HETATM    1  N   UNK N   1      20.466  19.216   1.541  0.00  0.00    -0.222 N 
ATOM      2  HN  UNK N   1      20.195  18.806   0.648  1.00  0.00     0.177 HD
HETATM    3  C   UNK N   1      20.564  20.499   1.615  0.00  0.00     0.691 C 
HETATM    4  N   UNK N   1      20.923  21.134   2.831  0.00  0.00    -0.233 N 
HETATM    5  N   UNK N   1      20.347  21.281   0.456  0.00  0.00    -0.099 N 
HETATM    6  H   UNK N   1      21.103  20.663   3.676  0.00  0.00     0.174 HD
HETATM    7  H   UNK N   1      20.996  22.116   2.830  0.00  0.00     0.174 HD
HETATM    8  H   UNK N   1      20.076  20.844  -0.383  0.00  0.00     0.213 HD
ENDROOT
BRANCH   1   9
HETATM    9  C   UNK N   1      20.717  18.325   2.654  0.00  0.00     0.173 C 
BRANCH   9  10
HETATM   10  C   UNK N   1      20.154  16.929   2.406  0.00  0.00     0.191 C 
BRANCH  10  11
HETATM   11  N   UNK N   1      21.107  15.926   2.857  0.00  0.00    -0.416 N 
HETATM   12  H   UNK N   1      21.660  15.403   2.177  0.00  0.00     0.150 HD
HETATM   13  H   UNK N   1      21.223  15.746   3.854  0.00  0.00     0.150 HD
ENDBRANCH  10  11
BRANCH  10  14
HETATM   14  C   UNK N   1      19.860  16.748   0.945  0.00  0.00     0.164 C 
HETATM   15  O   UNK N   1      20.717  16.294   0.205  0.00  0.00    -0.648 OA
BRANCH  14  16
HETATM   16  O   UNK N   1      18.660  17.097   0.437  0.00  0.00    -0.775 OA
HETATM   17  H   UNK N   1      17.857  16.776   0.800  0.00  0.00     0.167 HD
ENDBRANCH  14  16
ENDBRANCH  10  14
ENDBRANCH   9  10
ENDBRANCH   1   9
BRANCH   5  18
HETATM   18  O   UNK N   1      20.506  22.609   0.489  0.00  0.00    -0.276 OA
HETATM   19  H   UNK N   1      20.407  23.091   1.327  0.00  0.00     0.245 HD
ENDBRANCH   5  18
TORSDOF 6
ENDMDL
MODEL 2
REMARK VINA RESULT:      -4.7     10.003     11.865
REMARK  6 active torsions:
REMARK  status: ('A' for Active; 'I' for Inactive)
REMARK    1  A    between atoms: C_2  and  N_1 
REMARK    2  A    between atoms: C_2  and  C_3 
REMARK    3  A    between atoms: C_2  and  C_10 
REMARK    4  A    between atoms: C_3  and  N_4 
REMARK       I    between atoms: C_6  and  N_7 
REMARK       I    between atoms: C_6  and  N_8 
REMARK    5  A    between atoms: N_8  and  O_9 
REMARK    6  A    between atoms: C_10  and  O_11 
ROOT
HETATM    1  N   UNK N   1      22.514  11.566  10.808  0.00  0.00    -0.222 N 
ATOM      2  HN  UNK N   1      21.591  11.218  11.066  1.00  0.00     0.177 HD
HETATM    3  C   UNK N   1      23.350  11.833  11.752  0.00  0.00     0.691 C 
HETATM    4  N   UNK N   1      24.653  12.307  11.460  0.00  0.00    -0.233 N 
HETATM    5  N   UNK N   1      22.945  11.685  13.100  0.00  0.00    -0.099 N 
HETATM    6  H   UNK N   1      25.007  12.449  10.552  0.00  0.00     0.174 HD
HETATM    7  H   UNK N   1      25.248  12.507  12.219  0.00  0.00     0.174 HD
HETATM    8  H   UNK N   1      22.049  11.335  13.304  0.00  0.00     0.213 HD
ENDROOT
BRANCH   1   9
HETATM    9  C   UNK N   1      22.811  11.732   9.400  0.00  0.00     0.173 C 
BRANCH   9  10
HETATM   10  C   UNK N   1      21.691  12.459   8.661  0.00  0.00     0.191 C 
BRANCH  10  11
HETATM   11  N   UNK N   1      22.235  13.155   7.506  0.00  0.00    -0.416 N 
HETATM   12  H   UNK N   1      21.615  13.665   6.876  0.00  0.00     0.150 HD
HETATM   13  H   UNK N   1      23.238  13.134   7.325  0.00  0.00     0.150 HD
ENDBRANCH  10  11
BRANCH  10  14
HETATM   14  C   UNK N   1      21.015  13.431   9.585  0.00  0.00     0.164 C 
HETATM   15  O   UNK N   1      21.467  14.556   9.717  0.00  0.00    -0.648 OA
BRANCH  14  16
HETATM   16  O   UNK N   1      19.921  13.067  10.284  0.00  0.00    -0.775 OA
HETATM   17  H   UNK N   1      19.720  13.442  11.120  0.00  0.00     0.167 HD
ENDBRANCH  14  16
ENDBRANCH  10  14
ENDBRANCH   9  10
ENDBRANCH   1   9
BRANCH   5  18
HETATM   18  O   UNK N   1      23.770  12.017  14.100  0.00  0.00    -0.276 OA
HETATM   19  H   UNK N   1      23.719  11.548  14.948  0.00  0.00     0.245 HD
ENDBRANCH   5  18
TORSDOF 6
ENDMDL
MODEL 3
REMARK VINA RESULT:      -4.6     13.880     14.690
REMARK  6 active torsions:
REMARK  status: ('A' for Active; 'I' for Inactive)
REMARK    1  A    between atoms: C_2  and  N_1 
REMARK    2  A    between atoms: C_2  and  C_3 
REMARK    3  A    between atoms: C_2  and  C_10 
REMARK    4  A    between atoms: C_3  and  N_4 
REMARK       I    between atoms: C_6  and  N_7 
REMARK       I    between atoms: C_6  and  N_8 
REMARK    5  A    between atoms: N_8  and  O_9 
REMARK    6  A    between atoms: C_10  and  O_11 
ROOT
HETATM    1  N   UNK N   1      32.031  17.617   8.675  0.00  0.00    -0.222 N 
ATOM      2  HN  UNK N   1      32.340  18.447   8.170  1.00  0.00     0.177 HD
HETATM    3  C   UNK N   1      30.857  17.630   9.207  0.00  0.00     0.691 C 
HETATM    4  N   UNK N   1      30.362  16.503   9.910  0.00  0.00    -0.233 N 
HETATM    5  N   UNK N   1      30.067  18.801   9.118  0.00  0.00    -0.099 N 
HETATM    6  H   UNK N   1      30.852  15.658  10.028  0.00  0.00     0.174 HD
HETATM    7  H   UNK N   1      29.464  16.571  10.308  0.00  0.00     0.174 HD
HETATM    8  H   UNK N   1      30.400  19.576   8.611  0.00  0.00     0.213 HD
ENDROOT
BRANCH   1   9
HETATM    9  C   UNK N   1      32.936  16.489   8.752  0.00  0.00     0.173 C 
BRANCH   9  10
HETATM   10  C   UNK N   1      34.396  16.931   8.811  0.00  0.00     0.191 C 
BRANCH  10  11
HETATM   11  N   UNK N   1      34.770  17.211  10.189  0.00  0.00    -0.416 N 
HETATM   12  H   UNK N   1      35.163  18.119  10.439  0.00  0.00     0.150 HD
HETATM   13  H   UNK N   1      34.639  16.498  10.906  0.00  0.00     0.150 HD
ENDBRANCH  10  11
BRANCH  10  14
HETATM   14  C   UNK N   1      34.596  18.151   7.959  0.00  0.00     0.164 C 
HETATM   15  O   UNK N   1      34.994  19.187   8.466  0.00  0.00    -0.648 OA
BRANCH  14  16
HETATM   16  O   UNK N   1      34.324  18.119   6.638  0.00  0.00    -0.775 OA
HETATM   17  H   UNK N   1      33.757  17.473   6.265  0.00  0.00     0.167 HD
ENDBRANCH  14  16
ENDBRANCH  10  14
ENDBRANCH   9  10
ENDBRANCH   1   9
BRANCH   5  18
HETATM   18  O   UNK N   1      28.872  18.864   9.717  0.00  0.00    -0.276 OA
HETATM   19  H   UNK N   1      28.067  18.643   9.221  0.00  0.00     0.245 HD
ENDBRANCH   5  18
TORSDOF 6
ENDMDL
MODEL 4
REMARK VINA RESULT:      -4.6      2.148      4.698
REMARK  6 active torsions:
REMARK  status: ('A' for Active; 'I' for Inactive)
REMARK    1  A    between atoms: C_2  and  N_1 
REMARK    2  A    between atoms: C_2  and  C_3 
REMARK    3  A    between atoms: C_2  and  C_10 
REMARK    4  A    between atoms: C_3  and  N_4 
REMARK       I    between atoms: C_6  and  N_7 
REMARK       I    between atoms: C_6  and  N_8 
REMARK    5  A    between atoms: N_8  and  O_9 
REMARK    6  A    between atoms: C_10  and  O_11 
ROOT
HETATM    1  N   UNK N   1      19.797  17.534   0.529  0.00  0.00    -0.222 N 
ATOM      2  HN  UNK N   1      19.543  18.177  -0.221  1.00  0.00     0.177 HD
HETATM    3  C   UNK N   1      19.213  16.385   0.569  0.00  0.00     0.691 C 
HETATM    4  N   UNK N   1      19.531  15.440   1.576  0.00  0.00    -0.233 N 
HETATM    5  N   UNK N   1      18.214  16.080  -0.385  0.00  0.00    -0.099 N 
HETATM    6  H   UNK N   1      20.203  15.579   2.282  0.00  0.00     0.174 HD
HETATM    7  H   UNK N   1      19.047  14.583   1.568  0.00  0.00     0.174 HD
HETATM    8  H   UNK N   1      18.007  16.726  -1.098  0.00  0.00     0.213 HD
ENDROOT
BRANCH   1   9
HETATM    9  C   UNK N   1      20.795  17.962   1.486  0.00  0.00     0.173 C 
BRANCH   9  10
HETATM   10  C   UNK N   1      20.404  19.267   2.174  0.00  0.00     0.191 C 
BRANCH  10  11
HETATM   11  N   UNK N   1      18.971  19.281   2.425  0.00  0.00    -0.416 N 
HETATM   12  H   UNK N   1      18.543  20.071   2.908  0.00  0.00     0.150 HD
HETATM   13  H   UNK N   1      18.393  18.499   2.117  0.00  0.00     0.150 HD
ENDBRANCH  10  11
BRANCH  10  14
HETATM   14  C   UNK N   1      20.794  20.435   1.315  0.00  0.00     0.164 C 
HETATM   15  O   UNK N   1      20.951  20.280   0.115  0.00  0.00    -0.648 OA
BRANCH  14  16
HETATM   16  O   UNK N   1      20.988  21.654   1.859  0.00  0.00    -0.775 OA
HETATM   17  H   UNK N   1      20.280  22.158   2.210  0.00  0.00     0.167 HD
ENDBRANCH  14  16
ENDBRANCH  10  14
ENDBRANCH   9  10
ENDBRANCH   1   9
BRANCH   5  18
HETATM   18  O   UNK N   1      17.546  14.922  -0.327  0.00  0.00    -0.276 OA
HETATM   19  H   UNK N   1      16.792  14.766  -0.918  0.00  0.00     0.245 HD
ENDBRANCH   5  18
TORSDOF 6
ENDMDL
MODEL 5
REMARK VINA RESULT:      -4.6     14.490     15.573
REMARK  6 active torsions:
REMARK  status: ('A' for Active; 'I' for Inactive)
REMARK    1  A    between atoms: C_2  and  N_1 
REMARK    2  A    between atoms: C_2  and  C_3 
REMARK    3  A    between atoms: C_2  and  C_10 
REMARK    4  A    between atoms: C_3  and  N_4 
REMARK       I    between atoms: C_6  and  N_7 
REMARK       I    between atoms: C_6  and  N_8 
REMARK    5  A    between atoms: N_8  and  O_9 
REMARK    6  A    between atoms: C_10  and  O_11 
ROOT
HETATM    1  N   UNK N   1      32.329  15.812   7.868  0.00  0.00    -0.222 N 
ATOM      2  HN  UNK N   1      32.361  15.526   6.890  1.00  0.00     0.177 HD
HETATM    3  C   UNK N   1      32.387  14.895   8.771  0.00  0.00     0.691 C 
HETATM    4  N   UNK N   1      32.362  15.225  10.150  0.00  0.00    -0.233 N 
HETATM    5  N   UNK N   1      32.441  13.536   8.380  0.00  0.00    -0.099 N 
HETATM    6  H   UNK N   1      32.313  16.143  10.504  0.00  0.00     0.174 HD
HETATM    7  H   UNK N   1      32.396  14.486  10.798  0.00  0.00     0.174 HD
HETATM    8  H   UNK N   1      32.481  13.306   7.424  0.00  0.00     0.213 HD
ENDROOT
BRANCH   1   9
HETATM    9  C   UNK N   1      32.221  17.225   8.163  0.00  0.00     0.173 C 
BRANCH   9  10
HETATM   10  C   UNK N   1      33.377  18.023   7.566  0.00  0.00     0.191 C 
BRANCH  10  11
HETATM   11  N   UNK N   1      33.910  17.325   6.407  0.00  0.00    -0.416 N 
HETATM   12  H   UNK N   1      34.593  17.782   5.802  0.00  0.00     0.150 HD
HETATM   13  H   UNK N   1      33.601  16.376   6.197  0.00  0.00     0.150 HD
ENDBRANCH  10  11
BRANCH  10  14
HETATM   14  C   UNK N   1      34.451  18.217   8.597  0.00  0.00     0.164 C 
HETATM   15  O   UNK N   1      35.278  19.102   8.452  0.00  0.00    -0.648 OA
BRANCH  14  16
HETATM   16  O   UNK N   1      34.521  17.413   9.677  0.00  0.00    -0.775 OA
HETATM   17  H   UNK N   1      34.171  16.543   9.670  0.00  0.00     0.167 HD
ENDBRANCH  14  16
ENDBRANCH  10  14
ENDBRANCH   9  10
ENDBRANCH   1   9
BRANCH   5  18
HETATM   18  O   UNK N   1      32.436  12.561   9.297  0.00  0.00    -0.276 OA
HETATM   19  H   UNK N   1      32.033  11.702   9.091  0.00  0.00     0.245 HD
ENDBRANCH   5  18
TORSDOF 6
ENDMDL
MODEL 6
REMARK VINA RESULT:      -4.5     18.288     19.616
REMARK  6 active torsions:
REMARK  status: ('A' for Active; 'I' for Inactive)
REMARK    1  A    between atoms: C_2  and  N_1 
REMARK    2  A    between atoms: C_2  and  C_3 
REMARK    3  A    between atoms: C_2  and  C_10 
REMARK    4  A    between atoms: C_3  and  N_4 
REMARK       I    between atoms: C_6  and  N_7 
REMARK       I    between atoms: C_6  and  N_8 
REMARK    5  A    between atoms: N_8  and  O_9 
REMARK    6  A    between atoms: C_10  and  O_11 
ROOT
HETATM    1  N   UNK N   1      35.296  13.618  12.332  0.00  0.00    -0.222 N 
ATOM      2  HN  UNK N   1      34.514  13.579  12.985  1.00  0.00     0.177 HD
HETATM    3  C   UNK N   1      36.456  13.242  12.749  0.00  0.00     0.691 C 
HETATM    4  N   UNK N   1      37.581  13.257  11.888  0.00  0.00    -0.233 N 
HETATM    5  N   UNK N   1      36.614  12.843  14.098  0.00  0.00    -0.099 N 
HETATM    6  H   UNK N   1      37.559  13.532  10.943  0.00  0.00     0.174 HD
HETATM    7  H   UNK N   1      38.447  12.972  12.261  0.00  0.00     0.174 HD
HETATM    8  H   UNK N   1      35.829  12.811  14.691  0.00  0.00     0.213 HD
ENDROOT
BRANCH   1   9
HETATM    9  C   UNK N   1      35.039  14.090  10.988  0.00  0.00     0.173 C 
BRANCH   9  10
HETATM   10  C   UNK N   1      34.556  15.538  10.973  0.00  0.00     0.191 C 
BRANCH  10  11
HETATM   11  N   UNK N   1      33.514  15.699   9.971  0.00  0.00    -0.416 N 
HETATM   12  H   UNK N   1      33.678  16.284   9.151  0.00  0.00     0.150 HD
HETATM   13  H   UNK N   1      32.618  15.228  10.089  0.00  0.00     0.150 HD
ENDBRANCH  10  11
BRANCH  10  14
HETATM   14  C   UNK N   1      35.707  16.458  10.681  0.00  0.00     0.164 C 
HETATM   15  O   UNK N   1      35.494  17.571  10.230  0.00  0.00    -0.648 OA
BRANCH  14  16
HETATM   16  O   UNK N   1      36.977  16.060  10.897  0.00  0.00    -0.775 OA
HETATM   17  H   UNK N   1      37.416  15.466  10.319  0.00  0.00     0.167 HD
ENDBRANCH  14  16
ENDBRANCH  10  14
ENDBRANCH   9  10
ENDBRANCH   1   9
BRANCH   5  18
HETATM   18  O   UNK N   1      37.819  12.511  14.574  0.00  0.00    -0.276 OA
HETATM   19  H   UNK N   1      38.513  13.185  14.657  0.00  0.00     0.245 HD
ENDBRANCH   5  18
TORSDOF 6
ENDMDL
MODEL 7
REMARK VINA RESULT:      -4.5     15.776     16.928
REMARK  6 active torsions:
REMARK  status: ('A' for Active; 'I' for Inactive)
REMARK    1  A    between atoms: C_2  and  N_1 
REMARK    2  A    between atoms: C_2  and  C_3 
REMARK    3  A    between atoms: C_2  and  C_10 
REMARK    4  A    between atoms: C_3  and  N_4 
REMARK       I    between atoms: C_6  and  N_7 
REMARK       I    between atoms: C_6  and  N_8 
REMARK    5  A    between atoms: N_8  and  O_9 
REMARK    6  A    between atoms: C_10  and  O_11 
ROOT
HETATM    1  N   UNK N   1      34.633  16.483  10.104  0.00  0.00    -0.222 N 
ATOM      2  HN  UNK N   1      35.211  17.319  10.026  1.00  0.00     0.177 HD
HETATM    3  C   UNK N   1      34.965  15.593  10.975  0.00  0.00     0.691 C 
HETATM    4  N   UNK N   1      34.195  14.415  11.145  0.00  0.00    -0.233 N 
HETATM    5  N   UNK N   1      36.137  15.778  11.745  0.00  0.00    -0.099 N 
HETATM    6  H   UNK N   1      33.376  14.204  10.641  0.00  0.00     0.174 HD
HETATM    7  H   UNK N   1      34.501  13.761  11.815  0.00  0.00     0.174 HD
HETATM    8  H   UNK N   1      36.661  16.605  11.644  0.00  0.00     0.213 HD
ENDROOT
BRANCH   1   9
HETATM    9  C   UNK N   1      33.482  16.365   9.233  0.00  0.00     0.173 C 
BRANCH   9  10
HETATM   10  C   UNK N   1      33.113  17.699   8.590  0.00  0.00     0.191 C 
BRANCH  10  11
HETATM   11  N   UNK N   1      31.990  17.515   7.684  0.00  0.00    -0.416 N 
HETATM   12  H   UNK N   1      31.421  18.314   7.404  0.00  0.00     0.150 HD
HETATM   13  H   UNK N   1      31.770  16.584   7.329  0.00  0.00     0.150 HD
ENDBRANCH  10  11
BRANCH  10  14
HETATM   14  C   UNK N   1      34.294  18.254   7.849  0.00  0.00     0.164 C 
HETATM   15  O   UNK N   1      35.031  19.058   8.397  0.00  0.00    -0.648 OA
BRANCH  14  16
HETATM   16  O   UNK N   1      34.543  17.886   6.576  0.00  0.00    -0.775 OA
HETATM   17  H   UNK N   1      35.367  17.521   6.318  0.00  0.00     0.167 HD
ENDBRANCH  14  16
ENDBRANCH  10  14
ENDBRANCH   9  10
ENDBRANCH   1   9
BRANCH   5  18
HETATM   18  O   UNK N   1      36.542  14.839  12.609  0.00  0.00    -0.276 OA
HETATM   19  H   UNK N   1      36.183  14.822  13.512  0.00  0.00     0.245 HD
ENDBRANCH   5  18
TORSDOF 6
ENDMDL
MODEL 8
REMARK VINA RESULT:      -4.4      2.243      4.347
REMARK  6 active torsions:
REMARK  status: ('A' for Active; 'I' for Inactive)
REMARK    1  A    between atoms: C_2  and  N_1 
REMARK    2  A    between atoms: C_2  and  C_3 
REMARK    3  A    between atoms: C_2  and  C_10 
REMARK    4  A    between atoms: C_3  and  N_4 
REMARK       I    between atoms: C_6  and  N_7 
REMARK       I    between atoms: C_6  and  N_8 
REMARK    5  A    between atoms: N_8  and  O_9 
REMARK    6  A    between atoms: C_10  and  O_11 
ROOT
HETATM    1  N   UNK N   1      20.762  17.285   2.375  0.00  0.00    -0.222 N 
ATOM      2  HN  UNK N   1      21.397  16.559   2.047  1.00  0.00     0.177 HD
HETATM    3  C   UNK N   1      19.626  17.414   1.779  0.00  0.00     0.691 C 
HETATM    4  N   UNK N   1      18.691  18.395   2.195  0.00  0.00    -0.233 N 
HETATM    5  N   UNK N   1      19.327  16.590   0.669  0.00  0.00    -0.099 N 
HETATM    6  H   UNK N   1      18.828  19.015   2.948  0.00  0.00     0.174 HD
HETATM    7  H   UNK N   1      17.844  18.460   1.697  0.00  0.00     0.174 HD
HETATM    8  H   UNK N   1      19.966  15.894   0.392  0.00  0.00     0.213 HD
ENDROOT
BRANCH   1   9
HETATM    9  C   UNK N   1      21.185  18.111   3.487  0.00  0.00     0.173 C 
BRANCH   9  10
HETATM   10  C   UNK N   1      22.067  19.270   3.034  0.00  0.00     0.191 C 
BRANCH  10  11
HETATM   11  N   UNK N   1      23.292  19.293   3.819  0.00  0.00    -0.416 N 
HETATM   12  H   UNK N   1      23.887  20.121   3.816  0.00  0.00     0.150 HD
HETATM   13  H   UNK N   1      23.555  18.479   4.375  0.00  0.00     0.150 HD
ENDBRANCH  10  11
BRANCH  10  14
HETATM   14  C   UNK N   1      21.327  20.568   3.186  0.00  0.00     0.164 C 
HETATM   15  O   UNK N   1      20.260  20.591   3.778  0.00  0.00    -0.648 OA
BRANCH  14  16
HETATM   16  O   UNK N   1      21.821  21.707   2.661  0.00  0.00    -0.775 OA
HETATM   17  H   UNK N   1      22.663  22.040   2.904  0.00  0.00     0.167 HD
ENDBRANCH  14  16
ENDBRANCH  10  14
ENDBRANCH   9  10
ENDBRANCH   1   9
BRANCH   5  18
HETATM   18  O   UNK N   1      18.184  16.747  -0.010  0.00  0.00    -0.276 OA
HETATM   19  H   UNK N   1      18.166  17.294  -0.812  0.00  0.00     0.245 HD
ENDBRANCH   5  18
TORSDOF 6
ENDMDL
MODEL 9
REMARK VINA RESULT:      -4.4      3.366      3.925
REMARK  6 active torsions:
REMARK  status: ('A' for Active; 'I' for Inactive)
REMARK    1  A    between atoms: C_2  and  N_1 
REMARK    2  A    between atoms: C_2  and  C_3 
REMARK    3  A    between atoms: C_2  and  C_10 
REMARK    4  A    between atoms: C_3  and  N_4 
REMARK       I    between atoms: C_6  and  N_7 
REMARK       I    between atoms: C_6  and  N_8 
REMARK    5  A    between atoms: N_8  and  O_9 
REMARK    6  A    between atoms: C_10  and  O_11 
ROOT
HETATM    1  N   UNK N   1      20.915  18.896   2.936  0.00  0.00    -0.222 N 
ATOM      2  HN  UNK N   1      20.664  17.975   2.578  1.00  0.00     0.177 HD
HETATM    3  C   UNK N   1      20.869  19.896   2.125  0.00  0.00     0.691 C 
HETATM    4  N   UNK N   1      21.192  21.206   2.562  0.00  0.00    -0.233 N 
HETATM    5  N   UNK N   1      20.528  19.677   0.769  0.00  0.00    -0.099 N 
HETATM    6  H   UNK N   1      21.451  21.440   3.482  0.00  0.00     0.174 HD
HETATM    7  H   UNK N   1      21.153  21.932   1.898  0.00  0.00     0.174 HD
HETATM    8  H   UNK N   1      20.282  18.772   0.469  0.00  0.00     0.213 HD
ENDROOT
BRANCH   1   9
HETATM    9  C   UNK N   1      21.301  19.006   4.327  0.00  0.00     0.173 C 
BRANCH   9  10
HETATM   10  C   UNK N   1      22.515  18.141   4.654  0.00  0.00     0.191 C 
BRANCH  10  11
HETATM   11  N   UNK N   1      22.431  17.674   6.029  0.00  0.00    -0.416 N 
HETATM   12  H   UNK N   1      21.740  18.073   6.664  0.00  0.00     0.150 HD
HETATM   13  H   UNK N   1      23.065  16.946   6.359  0.00  0.00     0.150 HD
ENDBRANCH  10  11
BRANCH  10  14
HETATM   14  C   UNK N   1      23.776  18.929   4.447  0.00  0.00     0.164 C 
HETATM   15  O   UNK N   1      23.873  19.679   3.490  0.00  0.00    -0.648 OA
BRANCH  14  16
HETATM   16  O   UNK N   1      24.812  18.806   5.303  0.00  0.00    -0.775 OA
HETATM   17  H   UNK N   1      25.564  19.364   5.253  0.00  0.00     0.167 HD
ENDBRANCH  14  16
ENDBRANCH  10  14
ENDBRANCH   9  10
ENDBRANCH   1   9
BRANCH   5  18
HETATM   18  O   UNK N   1      20.536  20.686  -0.109  0.00  0.00    -0.276 OA
HETATM   19  H   UNK N   1      20.628  21.601   0.203  0.00  0.00     0.245 HD
ENDBRANCH   5  18
TORSDOF 6
ENDMDL
