REMARK  3 active torsions:
REMARK  status: ('A' for Active; 'I' for Inactive)
REMARK    1  A    between atoms: C_2  and  C_3 
REMARK    2  A    between atoms: C_3  and  N_4 
REMARK    3  A    between atoms: N_4  and  C_5 
ROOT
HETATM    1  C   UNK N   1       0.922   1.143   0.000  0.00  0.00     0.028 A 
HETATM    2  C   UNK N   1       2.180   0.530  -0.000  0.00  0.00     0.029 A 
HETATM    3  C   UNK N   1       2.279  -0.866  -0.000  0.00  0.00     0.002 A 
HETATM    4  C   UNK N   1       1.123  -1.652  -0.000  0.00  0.00     0.000 A 
HETATM    5  C   UNK N   1      -0.135  -1.044   0.000  0.00  0.00     0.002 A 
HETATM    6  C   UNK N   1      -0.236   0.349   0.000  0.00  0.00     0.029 A 
ENDROOT
BRANCH   1   7
HETATM    7  N   UNK N   1       0.829   2.558   0.000  0.00  0.00    -0.386 N 
HETATM    8  H   UNK N   1       1.652   3.098  -0.000  0.00  0.00     0.160 HD
BRANCH   7   9
HETATM    9  C   UNK N   1      -0.452   3.220   0.000  0.00  0.00     0.146 C 
BRANCH   9  10
HETATM   10  C   UNK N   1      -0.275   4.696  -0.000  0.00  0.00    -0.018 C 
HETATM   11  C   UNK N   1      -1.348   5.481  -0.000  0.00  0.00     0.008 C 
ENDBRANCH   9  10
ENDBRANCH   7   9
ENDBRANCH   1   7
TORSDOF 3
