REMARK  9 active torsions:
REMARK  status: ('A' for Active; 'I' for Inactive)
REMARK    1  A    between atoms: C_3  and  C_2 
REMARK    2  A    between atoms: C_4  and  C_3 
REMARK    3  A    between atoms: C_7  and  C_4 
REMARK    4  A    between atoms: C_7  and  C_5 
REMARK    5  A    between atoms: N_9  and  C_5 
REMARK    6  A    between atoms: N_9  and  C_6 
REMARK    7  A    between atoms: C_7  and  C_8 
REMARK    8  A    between atoms: O_12  and  C_8 
REMARK    9  A    between atoms: O_13  and  N_9 
ROOT
HETATM    1  C   UNK N   1      -0.835  -2.064   0.074  0.00  0.00     0.104 C 
ENDROOT
BRANCH   1   2
HETATM    2  C   UNK N   1      -2.138  -2.571  -0.549  0.00  0.00     0.017 C 
BRANCH   2   3
HETATM    3  C   UNK N   1      -3.313  -2.378   0.402  0.00  0.00     0.001 C 
BRANCH   3   4
HETATM    4  C   UNK N   1      -4.613  -2.689  -0.307  0.00  0.00    -0.005 C 
HETATM    5  C   UNK N   1      -5.601  -1.570  -0.051  0.00  0.00     0.005 C 
ENDBRANCH   3   4
ENDBRANCH   2   3
ENDBRANCH   1   2
BRANCH   1   6
HETATM    6  C   UNK N   1       0.308  -2.460  -0.873  0.00  0.00     0.173 C 
BRANCH   6   7
HETATM    7  N   UNK N   1       1.627  -2.151  -0.365  0.00  0.00    -0.235 N 
BRANCH   7   8
HETATM    8  C   UNK N   1       2.471  -3.160  -0.056  0.00  0.00     0.376 C 
HETATM    9  O   UNK N   1       3.613  -2.924   0.310  0.00  0.00    -0.281 OA
ENDBRANCH   7   8
BRANCH   7  10
HETATM   10  O   UNK N   1       2.058  -0.883  -0.336  0.00  0.00    -0.285 OA
HETATM   11  H   UNK N   1       3.009  -0.695  -0.314  0.00  0.00     0.245 HD
ENDBRANCH   7  10
ENDBRANCH   6   7
ENDBRANCH   1   6
BRANCH   1  12
HETATM   12  C   UNK N   1      -0.891  -0.567   0.314  0.00  0.00     0.145 C 
HETATM   13  O   UNK N   1      -0.028  -0.024   0.984  0.00  0.00    -0.650 OA
BRANCH  12  14
HETATM   14  O   UNK N   1      -1.909   0.172  -0.171  0.00  0.00    -0.776 OA
HETATM   15  H   UNK N   1      -1.817   1.042  -0.508  0.00  0.00     0.167 HD
ENDBRANCH  12  14
ENDBRANCH   1  12
TORSDOF 9
