MODEL 1
REMARK VINA RESULT:      -6.5      0.000      0.000
REMARK  9 active torsions:
REMARK  status: ('A' for Active; 'I' for Inactive)
REMARK    1  A    between atoms: C_2  and  C_1 
REMARK    2  A    between atoms: O_19  and  C_1 
REMARK    3  A    between atoms: C_3  and  O_12 
REMARK    4  A    between atoms: C_4  and  O_13 
REMARK    5  A    between atoms: O_14  and  C_5 
REMARK    6  A    between atoms: O_15  and  C_6 
REMARK    7  A    between atoms: P_21  and  O_16 
REMARK    8  A    between atoms: P_21  and  O_17 
REMARK    9  A    between atoms: P_21  and  O_19 
ROOT
HETATM    1  C   UNK N   1      34.524  14.458  10.687  0.00  0.00     0.181 C 
HETATM    2  C   UNK N   1      35.911  14.151  10.159  0.00  0.00     0.183 C 
HETATM    3  C   UNK N   1      36.468  13.373  11.318  0.00  0.00     0.213 C 
HETATM    4  C   UNK N   1      35.254  13.108  13.532  0.00  0.00     0.179 A 
HETATM    5  C   UNK N   1      36.664  14.366  14.533  0.00  0.00     0.221 A 
HETATM    6  C   UNK N   1      35.778  14.080  12.502  0.00  0.00     0.233 A 
HETATM    7  N   UNK N   1      35.779  13.296  14.677  0.00  0.00    -0.302 N 
ATOM      8  HN  UNK N   1      35.590  12.770  15.530  1.00  0.00     0.171 HD
HETATM    9  N   UNK N   1      36.694  14.839  13.341  0.00  0.00    -0.315 N 
ATOM     10  HN  UNK N   1      37.268  15.624  13.031  1.00  0.00     0.166 HD
HETATM   11  O   UNK N   1      34.731  14.897  12.010  0.00  0.00    -0.341 OA
ENDROOT
BRANCH   3  12
HETATM   12  O   UNK N   1      37.866  13.417  11.359  0.00  0.00    -0.387 OA
HETATM   13  H   UNK N   1      38.409  13.875  10.698  0.00  0.00     0.210 HD
ENDBRANCH   3  12
BRANCH   4  14
HETATM   14  O   UNK N   1      34.327  12.160  13.298  0.00  0.00    -0.345 OA
HETATM   15  H   UNK N   1      33.910  11.503  12.775  0.00  0.00     0.219 HD
ENDBRANCH   4  14
BRANCH   2  16
HETATM   16  O   UNK N   1      35.893  13.408   8.974  0.00  0.00    -0.390 OA
HETATM   17  H   UNK N   1      35.850  12.455   8.804  0.00  0.00     0.210 HD
ENDBRANCH   2  16
BRANCH   5  18
HETATM   18  O   UNK N   1      37.407  14.854  15.542  0.00  0.00    -0.332 OA
HETATM   19  H   UNK N   1      37.637  15.729  15.785  0.00  0.00     0.220 HD
ENDBRANCH   5  18
BRANCH   1  20
HETATM   20  C   UNK N   1      33.844  15.533   9.847  0.00  0.00     0.215 C 
BRANCH  20  21
HETATM   21  O   UNK N   1      34.747  16.115   8.944  0.00  0.00    -0.294 OA
BRANCH  21  22
HETATM   22  P   UNK N   1      34.139  17.710   8.599  0.00  0.00     0.390 P 
HETATM   23  O   UNK N   1      34.813  17.340   7.250  0.00  0.00    -0.632 OA
BRANCH  22  24
HETATM   24  O   UNK N   1      35.239  19.029   8.345  0.00  0.00    -0.307 OA
HETATM   25  H   UNK N   1      35.497  19.597   9.087  0.00  0.00     0.222 HD
ENDBRANCH  22  24
BRANCH  22  26
HETATM   26  O   UNK N   1      35.342  17.772   9.851  0.00  0.00    -0.307 OA
HETATM   27  H   UNK N   1      35.539  18.605  10.308  0.00  0.00     0.222 HD
ENDBRANCH  22  26
ENDBRANCH  21  22
ENDBRANCH  20  21
ENDBRANCH   1  20
TORSDOF 9
ENDMDL
MODEL 2
REMARK VINA RESULT:      -6.1      3.802      6.766
REMARK  9 active torsions:
REMARK  status: ('A' for Active; 'I' for Inactive)
REMARK    1  A    between atoms: C_2  and  C_1 
REMARK    2  A    between atoms: O_19  and  C_1 
REMARK    3  A    between atoms: C_3  and  O_12 
REMARK    4  A    between atoms: C_4  and  O_13 
REMARK    5  A    between atoms: O_14  and  C_5 
REMARK    6  A    between atoms: O_15  and  C_6 
REMARK    7  A    between atoms: P_21  and  O_16 
REMARK    8  A    between atoms: P_21  and  O_17 
REMARK    9  A    between atoms: P_21  and  O_19 
ROOT
HETATM    1  C   UNK N   1      33.749  15.864   9.850  0.00  0.00     0.181 C 
HETATM    2  C   UNK N   1      34.814  16.784   9.287  0.00  0.00     0.183 C 
HETATM    3  C   UNK N   1      33.956  17.707   8.468  0.00  0.00     0.213 C 
HETATM    4  C   UNK N   1      31.471  17.340   8.095  0.00  0.00     0.179 A 
HETATM    5  C   UNK N   1      31.784  16.851   6.037  0.00  0.00     0.221 A 
HETATM    6  C   UNK N   1      32.853  16.740   7.995  0.00  0.00     0.233 A 
HETATM    7  N   UNK N   1      30.890  17.392   6.963  0.00  0.00    -0.302 N 
ATOM      8  HN  UNK N   1      29.957  17.756   6.771  1.00  0.00     0.171 HD
HETATM    9  N   UNK N   1      32.888  16.469   6.565  0.00  0.00    -0.315 N 
ATOM     10  HN  UNK N   1      33.668  16.043   6.063  1.00  0.00     0.166 HD
HETATM   11  O   UNK N   1      32.931  15.543   8.749  0.00  0.00    -0.341 OA
ENDROOT
BRANCH   3  12
HETATM   12  O   UNK N   1      34.674  18.310   7.430  0.00  0.00    -0.387 OA
HETATM   13  H   UNK N   1      35.098  19.180   7.503  0.00  0.00     0.210 HD
ENDBRANCH   3  12
BRANCH   4  14
HETATM   14  O   UNK N   1      30.893  17.761   9.236  0.00  0.00    -0.345 OA
HETATM   15  H   UNK N   1      30.369  17.647  10.005  0.00  0.00     0.219 HD
ENDBRANCH   4  14
BRANCH   2  16
HETATM   16  O   UNK N   1      35.532  17.459  10.278  0.00  0.00    -0.390 OA
HETATM   17  H   UNK N   1      36.223  17.170  10.895  0.00  0.00     0.210 HD
ENDBRANCH   2  16
BRANCH   5  18
HETATM   18  O   UNK N   1      31.514  16.740   4.724  0.00  0.00    -0.332 OA
HETATM   19  H   UNK N   1      31.802  17.231   3.981  0.00  0.00     0.220 HD
ENDBRANCH   5  18
BRANCH   1  20
HETATM   20  C   UNK N   1      34.373  14.613  10.460  0.00  0.00     0.215 C 
BRANCH  20  21
HETATM   21  O   UNK N   1      34.552  14.762  11.843  0.00  0.00    -0.294 OA
BRANCH  21  22
HETATM   22  P   UNK N   1      35.885  13.731  12.280  0.00  0.00     0.390 P 
HETATM   23  O   UNK N   1      34.949  13.558  13.508  0.00  0.00    -0.632 OA
BRANCH  22  24
HETATM   24  O   UNK N   1      36.916  14.151  13.612  0.00  0.00    -0.307 OA
HETATM   25  H   UNK N   1      37.192  13.472  14.248  0.00  0.00     0.222 HD
ENDBRANCH  22  24
BRANCH  22  26
HETATM   26  O   UNK N   1      36.403  15.385  12.173  0.00  0.00    -0.307 OA
HETATM   27  H   UNK N   1      36.302  15.883  11.346  0.00  0.00     0.222 HD
ENDBRANCH  22  26
ENDBRANCH  21  22
ENDBRANCH  20  21
ENDBRANCH   1  20
TORSDOF 9
ENDMDL
MODEL 3
REMARK VINA RESULT:      -6.0      1.780      2.582
REMARK  9 active torsions:
REMARK  status: ('A' for Active; 'I' for Inactive)
REMARK    1  A    between atoms: C_2  and  C_1 
REMARK    2  A    between atoms: O_19  and  C_1 
REMARK    3  A    between atoms: C_3  and  O_12 
REMARK    4  A    between atoms: C_4  and  O_13 
REMARK    5  A    between atoms: O_14  and  C_5 
REMARK    6  A    between atoms: O_15  and  C_6 
REMARK    7  A    between atoms: P_21  and  O_16 
REMARK    8  A    between atoms: P_21  and  O_17 
REMARK    9  A    between atoms: P_21  and  O_19 
ROOT
HETATM    1  C   UNK N   1      35.176  14.530  10.090  0.00  0.00     0.181 C 
HETATM    2  C   UNK N   1      36.011  15.078  11.229  0.00  0.00     0.183 C 
HETATM    3  C   UNK N   1      36.527  13.795  11.817  0.00  0.00     0.213 C 
HETATM    4  C   UNK N   1      35.751  11.500  11.057  0.00  0.00     0.179 A 
HETATM    5  C   UNK N   1      34.708  11.170  12.895  0.00  0.00     0.221 A 
HETATM    6  C   UNK N   1      35.330  12.857  11.569  0.00  0.00     0.233 A 
HETATM    7  N   UNK N   1      35.384  10.562  11.836  0.00  0.00    -0.302 N 
ATOM      8  HN  UNK N   1      35.551   9.563  11.710  1.00  0.00     0.171 HD
HETATM    9  N   UNK N   1      34.647  12.447  12.787  0.00  0.00    -0.315 N 
ATOM     10  HN  UNK N   1      34.193  13.075  13.450  1.00  0.00     0.166 HD
HETATM   11  O   UNK N   1      34.436  13.475  10.660  0.00  0.00    -0.341 OA
ENDROOT
BRANCH   3  12
HETATM   12  O   UNK N   1      36.876  13.936  13.165  0.00  0.00    -0.387 OA
HETATM   13  H   UNK N   1      36.746  14.754  13.671  0.00  0.00     0.210 HD
ENDBRANCH   3  12
BRANCH   4  14
HETATM   14  O   UNK N   1      36.418  11.281   9.909  0.00  0.00    -0.345 OA
HETATM   15  H   UNK N   1      37.090  11.460   9.279  0.00  0.00     0.219 HD
ENDBRANCH   4  14
BRANCH   2  16
HETATM   16  O   UNK N   1      37.040  15.921  10.796  0.00  0.00    -0.390 OA
HETATM   17  H   UNK N   1      37.930  16.094  11.141  0.00  0.00     0.210 HD
ENDBRANCH   2  16
BRANCH   5  18
HETATM   18  O   UNK N   1      34.172  10.488  13.922  0.00  0.00    -0.332 OA
HETATM   19  H   UNK N   1      34.561  10.029  14.641  0.00  0.00     0.220 HD
ENDBRANCH   5  18
BRANCH   1  20
HETATM   20  C   UNK N   1      34.258  15.605   9.518  0.00  0.00     0.215 C 
BRANCH  20  21
HETATM   21  O   UNK N   1      34.900  16.329   8.502  0.00  0.00    -0.294 OA
BRANCH  21  22
HETATM   22  P   UNK N   1      34.076  17.859   8.392  0.00  0.00     0.390 P 
HETATM   23  O   UNK N   1      34.735  17.764   6.989  0.00  0.00    -0.632 OA
BRANCH  22  24
HETATM   24  O   UNK N   1      34.983  19.336   8.293  0.00  0.00    -0.307 OA
HETATM   25  H   UNK N   1      34.531  20.191   8.362  0.00  0.00     0.222 HD
ENDBRANCH  22  24
BRANCH  22  26
HETATM   26  O   UNK N   1      35.313  17.917   9.611  0.00  0.00    -0.307 OA
HETATM   27  H   UNK N   1      35.913  18.678   9.672  0.00  0.00     0.222 HD
ENDBRANCH  22  26
ENDBRANCH  21  22
ENDBRANCH  20  21
ENDBRANCH   1  20
TORSDOF 9
ENDMDL
MODEL 4
REMARK VINA RESULT:      -5.8      3.592      4.998
REMARK  9 active torsions:
REMARK  status: ('A' for Active; 'I' for Inactive)
REMARK    1  A    between atoms: C_2  and  C_1 
REMARK    2  A    between atoms: O_19  and  C_1 
REMARK    3  A    between atoms: C_3  and  O_12 
REMARK    4  A    between atoms: C_4  and  O_13 
REMARK    5  A    between atoms: O_14  and  C_5 
REMARK    6  A    between atoms: O_15  and  C_6 
REMARK    7  A    between atoms: P_21  and  O_16 
REMARK    8  A    between atoms: P_21  and  O_17 
REMARK    9  A    between atoms: P_21  and  O_19 
ROOT
HETATM    1  C   UNK N   1      32.653  16.789   8.097  0.00  0.00     0.181 C 
HETATM    2  C   UNK N   1      33.665  17.765   8.663  0.00  0.00     0.183 C 
HETATM    3  C   UNK N   1      34.729  16.805   9.116  0.00  0.00     0.213 C 
HETATM    4  C   UNK N   1      34.440  14.282   9.081  0.00  0.00     0.179 A 
HETATM    5  C   UNK N   1      34.360  14.194  11.216  0.00  0.00     0.221 A 
HETATM    6  C   UNK N   1      33.871  15.600   9.550  0.00  0.00     0.233 A 
HETATM    7  N   UNK N   1      34.710  13.506  10.053  0.00  0.00    -0.302 N 
ATOM      8  HN  UNK N   1      35.104  12.567   9.994  1.00  0.00     0.171 HD
HETATM    9  N   UNK N   1      33.883  15.363  10.986  0.00  0.00    -0.315 N 
ATOM     10  HN  UNK N   1      33.563  16.021  11.697  1.00  0.00     0.166 HD
HETATM   11  O   UNK N   1      32.551  15.772   9.066  0.00  0.00    -0.341 OA
ENDROOT
BRANCH   3  12
HETATM   12  O   UNK N   1      35.523  17.342  10.136  0.00  0.00    -0.387 OA
HETATM   13  H   UNK N   1      35.916  18.228  10.101  0.00  0.00     0.210 HD
ENDBRANCH   3  12
BRANCH   4  14
HETATM   14  O   UNK N   1      34.631  13.939   7.793  0.00  0.00    -0.345 OA
HETATM   15  H   UNK N   1      34.641  14.106   6.870  0.00  0.00     0.219 HD
ENDBRANCH   4  14
BRANCH   2  16
HETATM   16  O   UNK N   1      34.136  18.677   7.713  0.00  0.00    -0.390 OA
HETATM   17  H   UNK N   1      33.874  19.585   7.496  0.00  0.00     0.210 HD
ENDBRANCH   2  16
BRANCH   5  18
HETATM   18  O   UNK N   1      34.505  13.684  12.451  0.00  0.00    -0.332 OA
HETATM   19  H   UNK N   1      34.000  13.784  13.234  0.00  0.00     0.220 HD
ENDBRANCH   5  18
BRANCH   1  20
HETATM   20  C   UNK N   1      31.308  17.470   7.865  0.00  0.00     0.215 C 
BRANCH  20  21
HETATM   21  O   UNK N   1      30.300  16.873   8.636  0.00  0.00    -0.294 OA
BRANCH  21  22
HETATM   22  P   UNK N   1      29.377  18.175   9.332  0.00  0.00     0.390 P 
HETATM   23  O   UNK N   1      29.145  17.044  10.372  0.00  0.00    -0.632 OA
BRANCH  22  24
HETATM   24  O   UNK N   1      27.645  18.075   9.412  0.00  0.00    -0.307 OA
HETATM   25  H   UNK N   1      27.215  17.228   9.610  0.00  0.00     0.222 HD
ENDBRANCH  22  24
BRANCH  22  26
HETATM   26  O   UNK N   1      28.706  17.701   7.801  0.00  0.00    -0.307 OA
HETATM   27  H   UNK N   1      27.966  17.074   7.757  0.00  0.00     0.222 HD
ENDBRANCH  22  26
ENDBRANCH  21  22
ENDBRANCH  20  21
ENDBRANCH   1  20
TORSDOF 9
ENDMDL
MODEL 5
REMARK VINA RESULT:      -5.8      4.362      6.087
REMARK  9 active torsions:
REMARK  status: ('A' for Active; 'I' for Inactive)
REMARK    1  A    between atoms: C_2  and  C_1 
REMARK    2  A    between atoms: O_19  and  C_1 
REMARK    3  A    between atoms: C_3  and  O_12 
REMARK    4  A    between atoms: C_4  and  O_13 
REMARK    5  A    between atoms: O_14  and  C_5 
REMARK    6  A    between atoms: O_15  and  C_6 
REMARK    7  A    between atoms: P_21  and  O_16 
REMARK    8  A    between atoms: P_21  and  O_17 
REMARK    9  A    between atoms: P_21  and  O_19 
ROOT
HETATM    1  C   UNK N   1      31.189  16.419   7.588  0.00  0.00     0.181 C 
HETATM    2  C   UNK N   1      31.898  17.372   6.646  0.00  0.00     0.183 C 
HETATM    3  C   UNK N   1      33.322  16.940   6.861  0.00  0.00     0.213 C 
HETATM    4  C   UNK N   1      34.020  15.261   8.632  0.00  0.00     0.179 A 
HETATM    5  C   UNK N   1      34.984  16.779   9.788  0.00  0.00     0.221 A 
HETATM    6  C   UNK N   1      33.288  16.552   8.352  0.00  0.00     0.233 A 
HETATM    7  N   UNK N   1      34.980  15.424   9.452  0.00  0.00    -0.302 N 
ATOM      8  HN  UNK N   1      35.620  14.708   9.794  1.00  0.00     0.171 HD
HETATM    9  N   UNK N   1      34.057  17.446   9.205  0.00  0.00    -0.315 N 
ATOM     10  HN  UNK N   1      33.885  18.445   9.321  1.00  0.00     0.166 HD
HETATM   11  O   UNK N   1      31.941  16.463   8.779  0.00  0.00    -0.341 OA
ENDROOT
BRANCH   3  12
HETATM   12  O   UNK N   1      34.232  17.958   6.553  0.00  0.00    -0.387 OA
HETATM   13  H   UNK N   1      34.440  18.692   7.152  0.00  0.00     0.210 HD
ENDBRANCH   3  12
BRANCH   4  14
HETATM   14  O   UNK N   1      33.701  14.063   8.106  0.00  0.00    -0.345 OA
HETATM   15  H   UNK N   1      33.900  13.199   7.799  0.00  0.00     0.219 HD
ENDBRANCH   4  14
BRANCH   2  16
HETATM   16  O   UNK N   1      31.490  17.230   5.316  0.00  0.00    -0.390 OA
HETATM   17  H   UNK N   1      31.050  17.837   4.701  0.00  0.00     0.210 HD
ENDBRANCH   2  16
BRANCH   5  18
HETATM   18  O   UNK N   1      35.868  17.329  10.640  0.00  0.00    -0.332 OA
HETATM   19  H   UNK N   1      36.456  16.950  11.264  0.00  0.00     0.220 HD
ENDBRANCH   5  18
BRANCH   1  20
HETATM   20  C   UNK N   1      29.748  16.858   7.827  0.00  0.00     0.215 C 
BRANCH  20  21
HETATM   21  O   UNK N   1      29.429  17.984   7.053  0.00  0.00    -0.294 OA
BRANCH  21  22
HETATM   22  P   UNK N   1      28.233  18.875   7.952  0.00  0.00     0.390 P 
HETATM   23  O   UNK N   1      29.396  18.801   8.978  0.00  0.00    -0.632 OA
BRANCH  22  24
HETATM   24  O   UNK N   1      27.473  18.164   9.341  0.00  0.00    -0.307 OA
HETATM   25  H   UNK N   1      27.395  17.200   9.414  0.00  0.00     0.222 HD
ENDBRANCH  22  24
BRANCH  22  26
HETATM   26  O   UNK N   1      27.664  17.272   7.602  0.00  0.00    -0.307 OA
HETATM   27  H   UNK N   1      27.696  16.576   8.278  0.00  0.00     0.222 HD
ENDBRANCH  22  26
ENDBRANCH  21  22
ENDBRANCH  20  21
ENDBRANCH   1  20
TORSDOF 9
ENDMDL
MODEL 6
REMARK VINA RESULT:      -5.7      2.895      5.865
REMARK  9 active torsions:
REMARK  status: ('A' for Active; 'I' for Inactive)
REMARK    1  A    between atoms: C_2  and  C_1 
REMARK    2  A    between atoms: O_19  and  C_1 
REMARK    3  A    between atoms: C_3  and  O_12 
REMARK    4  A    between atoms: C_4  and  O_13 
REMARK    5  A    between atoms: O_14  and  C_5 
REMARK    6  A    between atoms: O_15  and  C_6 
REMARK    7  A    between atoms: P_21  and  O_16 
REMARK    8  A    between atoms: P_21  and  O_17 
REMARK    9  A    between atoms: P_21  and  O_19 
ROOT
HETATM    1  C   UNK N   1      36.087  14.838  12.297  0.00  0.00     0.181 C 
HETATM    2  C   UNK N   1      36.531  13.794  11.292  0.00  0.00     0.183 C 
HETATM    3  C   UNK N   1      36.068  14.444  10.018  0.00  0.00     0.213 C 
HETATM    4  C   UNK N   1      34.670  16.562   9.960  0.00  0.00     0.179 A 
HETATM    5  C   UNK N   1      32.950  15.489   9.280  0.00  0.00     0.221 A 
HETATM    6  C   UNK N   1      34.791  15.158  10.502  0.00  0.00     0.233 A 
HETATM    7  N   UNK N   1      33.613  16.718   9.268  0.00  0.00    -0.302 N 
ATOM      8  HN  UNK N   1      33.310  17.571   8.797  1.00  0.00     0.171 HD
HETATM    9  N   UNK N   1      33.564  14.591   9.959  0.00  0.00    -0.315 N 
ATOM     10  HN  UNK N   1      33.245  13.632  10.097  1.00  0.00     0.166 HD
HETATM   11  O   UNK N   1      34.771  15.168  11.918  0.00  0.00    -0.341 OA
ENDROOT
BRANCH   3  12
HETATM   12  O   UNK N   1      35.853  13.510   8.999  0.00  0.00    -0.387 OA
HETATM   13  H   UNK N   1      36.365  13.485   8.175  0.00  0.00     0.210 HD
ENDBRANCH   3  12
BRANCH   4  14
HETATM   14  O   UNK N   1      35.551  17.555  10.185  0.00  0.00    -0.345 OA
HETATM   15  H   UNK N   1      35.792  18.421  10.452  0.00  0.00     0.219 HD
ENDBRANCH   4  14
BRANCH   2  16
HETATM   16  O   UNK N   1      37.912  13.572  11.308  0.00  0.00    -0.390 OA
HETATM   17  H   UNK N   1      38.651  14.085  11.670  0.00  0.00     0.210 HD
ENDBRANCH   2  16
BRANCH   5  18
HETATM   18  O   UNK N   1      31.784  15.269   8.647  0.00  0.00    -0.332 OA
HETATM   19  H   UNK N   1      31.491  14.568   8.099  0.00  0.00     0.220 HD
ENDBRANCH   5  18
BRANCH   1  20
HETATM   20  C   UNK N   1      36.133  14.283  13.717  0.00  0.00     0.215 C 
BRANCH  20  21
HETATM   21  O   UNK N   1      36.221  12.883  13.710  0.00  0.00    -0.294 OA
BRANCH  21  22
HETATM   22  P   UNK N   1      35.957  12.364  15.351  0.00  0.00     0.390 P 
HETATM   23  O   UNK N   1      34.619  13.088  15.039  0.00  0.00    -0.632 OA
BRANCH  22  24
HETATM   24  O   UNK N   1      35.846  13.533  16.630  0.00  0.00    -0.307 OA
HETATM   25  H   UNK N   1      36.113  14.452  16.474  0.00  0.00     0.222 HD
ENDBRANCH  22  24
BRANCH  22  26
HETATM   26  O   UNK N   1      37.266  13.504  15.273  0.00  0.00    -0.307 OA
HETATM   27  H   UNK N   1      37.708  13.694  14.430  0.00  0.00     0.222 HD
ENDBRANCH  22  26
ENDBRANCH  21  22
ENDBRANCH  20  21
ENDBRANCH   1  20
TORSDOF 9
ENDMDL
MODEL 7
REMARK VINA RESULT:      -5.5     11.524     13.637
REMARK  9 active torsions:
REMARK  status: ('A' for Active; 'I' for Inactive)
REMARK    1  A    between atoms: C_2  and  C_1 
REMARK    2  A    between atoms: O_19  and  C_1 
REMARK    3  A    between atoms: C_3  and  O_12 
REMARK    4  A    between atoms: C_4  and  O_13 
REMARK    5  A    between atoms: O_14  and  C_5 
REMARK    6  A    between atoms: O_15  and  C_6 
REMARK    7  A    between atoms: P_21  and  O_16 
REMARK    8  A    between atoms: P_21  and  O_17 
REMARK    9  A    between atoms: P_21  and  O_19 
ROOT
HETATM    1  C   UNK N   1      24.787  19.058   3.462  0.00  0.00     0.181 C 
HETATM    2  C   UNK N   1      25.761  20.213   3.584  0.00  0.00     0.183 C 
HETATM    3  C   UNK N   1      27.022  19.459   3.900  0.00  0.00     0.213 C 
HETATM    4  C   UNK N   1      27.080  16.961   4.352  0.00  0.00     0.179 A 
HETATM    5  C   UNK N   1      27.515  17.277   6.422  0.00  0.00     0.221 A 
HETATM    6  C   UNK N   1      26.463  18.286   4.730  0.00  0.00     0.233 A 
HETATM    7  N   UNK N   1      27.673  16.413   5.337  0.00  0.00    -0.302 N 
ATOM      8  HN  UNK N   1      28.166  15.520   5.333  1.00  0.00     0.171 HD
HETATM    9  N   UNK N   1      26.843  18.331   6.134  0.00  0.00    -0.315 N 
ATOM     10  HN  UNK N   1      26.612  19.081   6.786  1.00  0.00     0.166 HD
HETATM   11  O   UNK N   1      25.055  18.241   4.578  0.00  0.00    -0.341 OA
ENDROOT
BRANCH   3  12
HETATM   12  O   UNK N   1      27.952  20.251   4.582  0.00  0.00    -0.387 OA
HETATM   13  H   UNK N   1      28.498  19.929   5.317  0.00  0.00     0.210 HD
ENDBRANCH   3  12
BRANCH   4  14
HETATM   14  O   UNK N   1      27.009  16.395   3.132  0.00  0.00    -0.345 OA
HETATM   15  H   UNK N   1      27.140  16.379   2.204  0.00  0.00     0.219 HD
ENDBRANCH   4  14
BRANCH   2  16
HETATM   16  O   UNK N   1      25.867  20.965   2.410  0.00  0.00    -0.390 OA
HETATM   17  H   UNK N   1      26.622  21.391   1.975  0.00  0.00     0.210 HD
ENDBRANCH   2  16
BRANCH   5  18
HETATM   18  O   UNK N   1      28.014  17.029   7.646  0.00  0.00    -0.332 OA
HETATM   19  H   UNK N   1      28.130  17.575   8.398  0.00  0.00     0.220 HD
ENDBRANCH   5  18
BRANCH   1  20
HETATM   20  C   UNK N   1      23.345  19.555   3.473  0.00  0.00     0.215 C 
BRANCH  20  21
HETATM   21  O   UNK N   1      23.108  20.439   2.409  0.00  0.00    -0.294 OA
BRANCH  21  22
HETATM   22  P   UNK N   1      21.380  20.615   2.291  0.00  0.00     0.390 P 
HETATM   23  O   UNK N   1      21.764  20.358   0.809  0.00  0.00    -0.632 OA
BRANCH  22  24
HETATM   24  O   UNK N   1      20.694  21.984   1.475  0.00  0.00    -0.307 OA
HETATM   25  H   UNK N   1      20.556  21.961   0.515  0.00  0.00     0.222 HD
ENDBRANCH  22  24
BRANCH  22  26
HETATM   26  O   UNK N   1      22.109  22.096   2.832  0.00  0.00    -0.307 OA
HETATM   27  H   UNK N   1      22.637  22.119   3.647  0.00  0.00     0.222 HD
ENDBRANCH  22  26
ENDBRANCH  21  22
ENDBRANCH  20  21
ENDBRANCH   1  20
TORSDOF 9
ENDMDL
MODEL 8
REMARK VINA RESULT:      -5.4      2.672      4.170
REMARK  9 active torsions:
REMARK  status: ('A' for Active; 'I' for Inactive)
REMARK    1  A    between atoms: C_2  and  C_1 
REMARK    2  A    between atoms: O_19  and  C_1 
REMARK    3  A    between atoms: C_3  and  O_12 
REMARK    4  A    between atoms: C_4  and  O_13 
REMARK    5  A    between atoms: O_14  and  C_5 
REMARK    6  A    between atoms: O_15  and  C_6 
REMARK    7  A    between atoms: P_21  and  O_16 
REMARK    8  A    between atoms: P_21  and  O_17 
REMARK    9  A    between atoms: P_21  and  O_19 
ROOT
HETATM    1  C   UNK N   1      35.932  12.762  13.189  0.00  0.00     0.181 C 
HETATM    2  C   UNK N   1      35.990  13.947  14.132  0.00  0.00     0.183 C 
HETATM    3  C   UNK N   1      36.577  13.286  15.347  0.00  0.00     0.213 C 
HETATM    4  C   UNK N   1      36.949  10.781  15.531  0.00  0.00     0.179 A 
HETATM    5  C   UNK N   1      35.384  10.587  16.976  0.00  0.00     0.221 A 
HETATM    6  C   UNK N   1      35.953  11.880  15.246  0.00  0.00     0.233 A 
HETATM    7  N   UNK N   1      36.597  10.064  16.523  0.00  0.00    -0.302 N 
ATOM      8  HN  UNK N   1      37.102   9.266  16.910  1.00  0.00     0.171 HD
HETATM    9  N   UNK N   1      34.983  11.595  16.293  0.00  0.00    -0.315 N 
ATOM     10  HN  UNK N   1      34.120  12.114  16.456  1.00  0.00     0.166 HD
HETATM   11  O   UNK N   1      35.387  11.715  13.958  0.00  0.00    -0.341 OA
ENDROOT
BRANCH   3  12
HETATM   12  O   UNK N   1      36.258  13.971  16.525  0.00  0.00    -0.387 OA
HETATM   13  H   UNK N   1      36.093  14.926  16.563  0.00  0.00     0.210 HD
ENDBRANCH   3  12
BRANCH   4  14
HETATM   14  O   UNK N   1      38.072  10.554  14.824  0.00  0.00    -0.345 OA
HETATM   15  H   UNK N   1      38.896  10.135  14.666  0.00  0.00     0.219 HD
ENDBRANCH   4  14
BRANCH   2  16
HETATM   16  O   UNK N   1      36.788  14.990  13.652  0.00  0.00    -0.390 OA
HETATM   17  H   UNK N   1      37.618  14.998  13.151  0.00  0.00     0.210 HD
ENDBRANCH   2  16
BRANCH   5  18
HETATM   18  O   UNK N   1      34.704  10.082  18.021  0.00  0.00    -0.332 OA
HETATM   19  H   UNK N   1      34.030   9.434  18.076  0.00  0.00     0.220 HD
ENDBRANCH   5  18
BRANCH   1  20
HETATM   20  C   UNK N   1      35.060  13.071  11.976  0.00  0.00     0.215 C 
BRANCH  20  21
HETATM   21  O   UNK N   1      34.520  14.363  12.059  0.00  0.00    -0.294 OA
BRANCH  21  22
HETATM   22  P   UNK N   1      34.684  15.067  10.475  0.00  0.00     0.390 P 
HETATM   23  O   UNK N   1      35.442  16.102  11.350  0.00  0.00    -0.632 OA
BRANCH  22  24
HETATM   24  O   UNK N   1      33.879  16.556  10.091  0.00  0.00    -0.307 OA
HETATM   25  H   UNK N   1      32.910  16.603  10.102  0.00  0.00     0.222 HD
ENDBRANCH  22  24
BRANCH  22  26
HETATM   26  O   UNK N   1      33.014  15.016  10.950  0.00  0.00    -0.307 OA
HETATM   27  H   UNK N   1      32.742  15.304  11.836  0.00  0.00     0.222 HD
ENDBRANCH  22  26
ENDBRANCH  21  22
ENDBRANCH  20  21
ENDBRANCH   1  20
TORSDOF 9
ENDMDL
MODEL 9
REMARK VINA RESULT:      -5.4      1.897      2.573
REMARK  9 active torsions:
REMARK  status: ('A' for Active; 'I' for Inactive)
REMARK    1  A    between atoms: C_2  and  C_1 
REMARK    2  A    between atoms: O_19  and  C_1 
REMARK    3  A    between atoms: C_3  and  O_12 
REMARK    4  A    between atoms: C_4  and  O_13 
REMARK    5  A    between atoms: O_14  and  C_5 
REMARK    6  A    between atoms: O_15  and  C_6 
REMARK    7  A    between atoms: P_21  and  O_16 
REMARK    8  A    between atoms: P_21  and  O_17 
REMARK    9  A    between atoms: P_21  and  O_19 
ROOT
HETATM    1  C   UNK N   1      35.651  13.487  11.380  0.00  0.00     0.181 C 
HETATM    2  C   UNK N   1      37.060  13.222  11.874  0.00  0.00     0.183 C 
HETATM    3  C   UNK N   1      36.766  12.291  13.016  0.00  0.00     0.213 C 
HETATM    4  C   UNK N   1      34.416  11.769  13.823  0.00  0.00     0.179 A 
HETATM    5  C   UNK N   1      34.725  12.859  15.637  0.00  0.00     0.221 A 
HETATM    6  C   UNK N   1      35.420  12.854  13.514  0.00  0.00     0.233 A 
HETATM    7  N   UNK N   1      34.041  11.798  15.040  0.00  0.00    -0.302 N 
ATOM      8  HN  UNK N   1      33.374  11.170  15.489  1.00  0.00     0.171 HD
HETATM    9  N   UNK N   1      35.500  13.480  14.826  0.00  0.00    -0.315 N 
ATOM     10  HN  UNK N   1      36.080  14.286  15.062  1.00  0.00     0.166 HD
HETATM   11  O   UNK N   1      34.904  13.748  12.545  0.00  0.00    -0.341 OA
ENDROOT
BRANCH   3  12
HETATM   12  O   UNK N   1      37.783  12.300  13.977  0.00  0.00    -0.387 OA
HETATM   13  H   UNK N   1      38.276  11.509  14.246  0.00  0.00     0.210 HD
ENDBRANCH   3  12
BRANCH   4  14
HETATM   14  O   UNK N   1      33.942  10.878  12.932  0.00  0.00    -0.345 OA
HETATM   15  H   UNK N   1      33.304  10.551  12.328  0.00  0.00     0.219 HD
ENDBRANCH   4  14
BRANCH   2  16
HETATM   16  O   UNK N   1      37.878  12.637  10.903  0.00  0.00    -0.390 OA
HETATM   17  H   UNK N   1      37.743  11.889  10.301  0.00  0.00     0.210 HD
ENDBRANCH   2  16
BRANCH   5  18
HETATM   18  O   UNK N   1      34.582  13.198  16.931  0.00  0.00    -0.332 OA
HETATM   19  H   UNK N   1      33.907  13.660  17.387  0.00  0.00     0.220 HD
ENDBRANCH   5  18
BRANCH   1  20
HETATM   20  C   UNK N   1      35.621  14.675  10.424  0.00  0.00     0.215 C 
BRANCH  20  21
HETATM   21  O   UNK N   1      34.521  15.506  10.686  0.00  0.00    -0.294 OA
BRANCH  21  22
HETATM   22  P   UNK N   1      33.383  15.236   9.396  0.00  0.00     0.390 P 
HETATM   23  O   UNK N   1      33.756  16.727   9.170  0.00  0.00    -0.632 OA
BRANCH  22  24
HETATM   24  O   UNK N   1      31.837  16.025   9.414  0.00  0.00    -0.307 OA
HETATM   25  H   UNK N   1      31.255  15.973   8.640  0.00  0.00     0.222 HD
ENDBRANCH  22  24
BRANCH  22  26
HETATM   26  O   UNK N   1      32.608  15.059  10.940  0.00  0.00    -0.307 OA
HETATM   27  H   UNK N   1      32.954  14.436  11.599  0.00  0.00     0.222 HD
ENDBRANCH  22  26
ENDBRANCH  21  22
ENDBRANCH  20  21
ENDBRANCH   1  20
TORSDOF 9
ENDMDL
