MODEL 1
REMARK VINA RESULT:      -4.1      0.000      0.000
REMARK  1 active torsions:
REMARK  status: ('A' for Active; 'I' for Inactive)
REMARK    1  A    between atoms: C_2  and  N_1 
ROOT
HETATM    1  C   UNK N   1      33.468  17.683   8.752  0.00  0.00     0.177 A 
HETATM    2  C   UNK N   1      32.926  16.740   7.677  0.00  0.00     0.061 A 
HETATM    3  C   UNK N   1      33.615  17.141   6.358  0.00  0.00     0.181 A 
HETATM    4  O   UNK N   1      34.557  18.076   6.699  0.00  0.00    -0.320 OA
HETATM    5  C   UNK N   1      34.516  18.389   7.994  0.00  0.00     0.281 A 
HETATM    6  O   UNK N   1      35.269  19.211   8.488  0.00  0.00    -0.263 OA
ENDROOT
BRANCH   1   7
HETATM    7  N   UNK N   1      34.057  16.913   9.834  0.00  0.00    -0.418 N 
HETATM    8  H   UNK N   1      34.012  15.919  10.058  0.00  0.00     0.150 HD
HETATM    9  H   UNK N   1      34.615  17.465  10.487  0.00  0.00     0.150 HD
ENDBRANCH   1   7
TORSDOF 1
ENDMDL
MODEL 2
REMARK VINA RESULT:      -3.9     12.091     12.673
REMARK  1 active torsions:
REMARK  status: ('A' for Active; 'I' for Inactive)
REMARK    1  A    between atoms: C_2  and  N_1 
ROOT
HETATM    1  C   UNK N   1      24.290  11.886  11.047  0.00  0.00     0.177 A 
HETATM    2  C   UNK N   1      23.279  12.039   9.910  0.00  0.00     0.061 A 
HETATM    3  C   UNK N   1      21.886  12.080  10.568  0.00  0.00     0.181 A 
HETATM    4  O   UNK N   1      22.113  12.125  11.918  0.00  0.00    -0.320 OA
HETATM    5  C   UNK N   1      23.407  12.032  12.219  0.00  0.00     0.281 A 
HETATM    6  O   UNK N   1      23.810  12.042  13.369  0.00  0.00    -0.263 OA
ENDROOT
BRANCH   1   7
HETATM    7  N   UNK N   1      25.255  12.970  11.001  0.00  0.00    -0.418 N 
HETATM    8  H   UNK N   1      25.715  13.496  11.745  0.00  0.00     0.150 HD
HETATM    9  H   UNK N   1      25.521  13.256  10.059  0.00  0.00     0.150 HD
ENDBRANCH   1   7
TORSDOF 1
ENDMDL
MODEL 3
REMARK VINA RESULT:      -3.8     14.088     14.519
REMARK  1 active torsions:
REMARK  status: ('A' for Active; 'I' for Inactive)
REMARK    1  A    between atoms: C_2  and  N_1 
ROOT
HETATM    1  C   UNK N   1      21.137  20.068   1.419  0.00  0.00     0.177 A 
HETATM    2  C   UNK N   1      20.220  18.975   1.968  0.00  0.00     0.061 A 
HETATM    3  C   UNK N   1      20.459  18.928   3.489  0.00  0.00     0.181 A 
HETATM    4  O   UNK N   1      21.277  19.991   3.770  0.00  0.00    -0.320 OA
HETATM    5  C   UNK N   1      21.660  20.642   2.672  0.00  0.00     0.281 A 
HETATM    6  O   UNK N   1      22.399  21.610   2.714  0.00  0.00    -0.263 OA
ENDROOT
BRANCH   1   7
HETATM    7  N   UNK N   1      20.352  21.056   0.698  0.00  0.00    -0.418 N 
HETATM    8  H   UNK N   1      19.356  21.101   0.484  0.00  0.00     0.150 HD
HETATM    9  H   UNK N   1      20.894  21.845   0.343  0.00  0.00     0.150 HD
ENDBRANCH   1   7
TORSDOF 1
ENDMDL
MODEL 4
REMARK VINA RESULT:      -3.7     11.303     11.707
REMARK  1 active torsions:
REMARK  status: ('A' for Active; 'I' for Inactive)
REMARK    1  A    between atoms: C_2  and  N_1 
ROOT
HETATM    1  C   UNK N   1      44.251  21.955   4.291  0.00  0.00     0.177 A 
HETATM    2  C   UNK N   1      43.670  20.783   3.499  0.00  0.00     0.061 A 
HETATM    3  C   UNK N   1      42.607  21.377   2.556  0.00  0.00     0.181 A 
HETATM    4  O   UNK N   1      42.715  22.737   2.684  0.00  0.00    -0.320 OA
HETATM    5  C   UNK N   1      43.605  23.092   3.610  0.00  0.00     0.281 A 
HETATM    6  O   UNK N   1      43.835  24.258   3.878  0.00  0.00    -0.263 OA
ENDROOT
BRANCH   1   7
HETATM    7  N   UNK N   1      45.691  22.009   4.111  0.00  0.00    -0.418 N 
HETATM    8  H   UNK N   1      46.297  21.610   3.394  0.00  0.00     0.150 HD
HETATM    9  H   UNK N   1      46.185  22.539   4.830  0.00  0.00     0.150 HD
ENDBRANCH   1   7
TORSDOF 1
ENDMDL
MODEL 5
REMARK VINA RESULT:      -3.6     14.112     14.634
REMARK  1 active torsions:
REMARK  status: ('A' for Active; 'I' for Inactive)
REMARK    1  A    between atoms: C_2  and  N_1 
ROOT
HETATM    1  C   UNK N   1      20.564  19.040   1.969  0.00  0.00     0.177 A 
HETATM    2  C   UNK N   1      21.364  19.134   3.269  0.00  0.00     0.061 A 
HETATM    3  C   UNK N   1      22.448  20.204   3.038  0.00  0.00     0.181 A 
HETATM    4  O   UNK N   1      22.166  20.762   1.819  0.00  0.00    -0.320 OA
HETATM    5  C   UNK N   1      21.143  20.164   1.211  0.00  0.00     0.281 A 
HETATM    6  O   UNK N   1      20.747  20.510   0.111  0.00  0.00    -0.263 OA
ENDROOT
BRANCH   1   7
HETATM    7  N   UNK N   1      19.156  19.281   2.236  0.00  0.00    -0.418 N 
HETATM    8  H   UNK N   1      18.520  18.874   2.923  0.00  0.00     0.150 HD
HETATM    9  H   UNK N   1      18.727  19.980   1.630  0.00  0.00     0.150 HD
ENDBRANCH   1   7
TORSDOF 1
ENDMDL
MODEL 6
REMARK VINA RESULT:      -3.5     12.024     12.653
REMARK  1 active torsions:
REMARK  status: ('A' for Active; 'I' for Inactive)
REMARK    1  A    between atoms: C_2  and  N_1 
ROOT
HETATM    1  C   UNK N   1      23.389  11.748  11.517  0.00  0.00     0.177 A 
HETATM    2  C   UNK N   1      24.633  12.258  10.790  0.00  0.00     0.061 A 
HETATM    3  C   UNK N   1      24.130  13.095   9.599  0.00  0.00     0.181 A 
HETATM    4  O   UNK N   1      22.772  13.185   9.754  0.00  0.00    -0.320 OA
HETATM    5  C   UNK N   1      22.331  12.474  10.791  0.00  0.00     0.281 A 
HETATM    6  O   UNK N   1      21.150  12.417  11.086  0.00  0.00    -0.263 OA
ENDROOT
BRANCH   1   7
HETATM    7  N   UNK N   1      23.424  12.161  12.909  0.00  0.00    -0.418 N 
HETATM    8  H   UNK N   1      24.153  12.615  13.460  0.00  0.00     0.150 HD
HETATM    9  H   UNK N   1      22.568  11.962  13.428  0.00  0.00     0.150 HD
ENDBRANCH   1   7
TORSDOF 1
ENDMDL
MODEL 7
REMARK VINA RESULT:      -3.4      1.934      2.653
REMARK  1 active torsions:
REMARK  status: ('A' for Active; 'I' for Inactive)
REMARK    1  A    between atoms: C_2  and  N_1 
ROOT
HETATM    1  C   UNK N   1      33.841  16.520   8.804  0.00  0.00     0.177 A 
HETATM    2  C   UNK N   1      34.249  15.803  10.092  0.00  0.00     0.061 A 
HETATM    3  C   UNK N   1      35.431  16.598  10.678  0.00  0.00     0.181 A 
HETATM    4  O   UNK N   1      35.546  17.721   9.902  0.00  0.00    -0.320 OA
HETATM    5  C   UNK N   1      34.693  17.721   8.878  0.00  0.00     0.281 A 
HETATM    6  O   UNK N   1      34.650  18.629   8.067  0.00  0.00    -0.263 OA
ENDROOT
BRANCH   1   7
HETATM    7  N   UNK N   1      32.438  16.889   8.865  0.00  0.00    -0.418 N 
HETATM    8  H   UNK N   1      31.620  16.381   9.204  0.00  0.00     0.150 HD
HETATM    9  H   UNK N   1      32.233  17.822   8.506  0.00  0.00     0.150 HD
ENDBRANCH   1   7
TORSDOF 1
ENDMDL
MODEL 8
REMARK VINA RESULT:      -3.3     10.767     11.334
REMARK  1 active torsions:
REMARK  status: ('A' for Active; 'I' for Inactive)
REMARK    1  A    between atoms: C_2  and  N_1 
ROOT
HETATM    1  C   UNK N   1      42.579  22.898   2.053  0.00  0.00     0.177 A 
HETATM    2  C   UNK N   1      41.979  21.499   2.189  0.00  0.00     0.061 A 
HETATM    3  C   UNK N   1      42.608  20.875   3.449  0.00  0.00     0.181 A 
HETATM    4  O   UNK N   1      43.334  21.877   4.038  0.00  0.00    -0.320 OA
HETATM    5  C   UNK N   1      43.334  22.996   3.315  0.00  0.00     0.281 A 
HETATM    6  O   UNK N   1      43.934  23.997   3.666  0.00  0.00    -0.263 OA
ENDROOT
BRANCH   1   7
HETATM    7  N   UNK N   1      41.519  23.891   2.019  0.00  0.00    -0.418 N 
HETATM    8  H   UNK N   1      40.523  23.823   2.232  0.00  0.00     0.150 HD
HETATM    9  H   UNK N   1      41.823  24.821   1.731  0.00  0.00     0.150 HD
ENDBRANCH   1   7
TORSDOF 1
ENDMDL
MODEL 9
REMARK VINA RESULT:      -3.3     12.176     12.664
REMARK  1 active torsions:
REMARK  status: ('A' for Active; 'I' for Inactive)
REMARK    1  A    between atoms: C_2  and  N_1 
ROOT
HETATM    1  C   UNK N   1      30.861  23.112  -3.816  0.00  0.00     0.177 A 
HETATM    2  C   UNK N   1      31.868  22.202  -4.520  0.00  0.00     0.061 A 
HETATM    3  C   UNK N   1      32.612  21.434  -3.411  0.00  0.00     0.181 A 
HETATM    4  O   UNK N   1      31.969  21.750  -2.243  0.00  0.00    -0.320 OA
HETATM    5  C   UNK N   1      31.004  22.651  -2.422  0.00  0.00     0.281 A 
HETATM    6  O   UNK N   1      30.325  23.069  -1.501  0.00  0.00    -0.263 OA
ENDROOT
BRANCH   1   7
HETATM    7  N   UNK N   1      29.521  22.840  -4.305  0.00  0.00    -0.418 N 
HETATM    8  H   UNK N   1      28.604  23.112  -3.949  0.00  0.00     0.150 HD
HETATM    9  H   UNK N   1      29.490  22.275  -5.154  0.00  0.00     0.150 HD
ENDBRANCH   1   7
TORSDOF 1
ENDMDL
