MODEL 1
REMARK VINA RESULT:      -6.4      0.000      0.000
REMARK  10 active torsions:
REMARK  status: ('A' for Active; 'I' for Inactive)
REMARK    1  A    between atoms: C_4  and  C_3 
REMARK    2  A    between atoms: C_9  and  C_5 
REMARK    3  A    between atoms: C_10  and  C_6 
REMARK    4  A    between atoms: C_12  and  C_6 
REMARK    5  A    between atoms: C_11  and  C_8 
REMARK    6  A    between atoms: C_14  and  C_9 
REMARK    7  A    between atoms: O_18  and  C_12 
REMARK    8  A    between atoms: C_13  and  C_15 
REMARK    9  A    between atoms: O_20  and  C_14 
REMARK   10  A    between atoms: O_22  and  C_15 
ROOT
HETATM    1  C   UNK N   1      31.818  16.189   8.590  0.00  0.00     0.124 C 
HETATM    2  C   UNK N   1      32.567  17.326   6.643  0.00  0.00     0.038 C 
HETATM    3  C   UNK N   1      32.238  15.931   7.146  0.00  0.00     0.038 C 
HETATM    4  C   UNK N   1      32.967  18.107   7.908  0.00  0.00     0.180 C 
HETATM    5  N   UNK N   1      32.091  17.582   8.945  0.00  0.00    -0.407 N 
HETATM    6  H   UNK N   1      31.736  18.086   9.758  0.00  0.00     0.154 HD
ENDROOT
BRANCH   3   7
HETATM    7  C   UNK N   1      31.291  15.174   6.170  0.00  0.00    -0.078 C 
HETATM    8  C   UNK N   1      31.736  13.823   5.705  0.00  0.00     0.044 C 
HETATM    9  C   UNK N   1      30.058  15.576   5.758  0.00  0.00     0.003 C 
BRANCH   9  10
HETATM   10  C   UNK N   1      29.450  16.832   6.214  0.00  0.00    -0.003 C 
HETATM   11  C   UNK N   1      28.332  16.778   6.936  0.00  0.00    -0.012 C 
BRANCH  11  12
HETATM   12  C   UNK N   1      27.970  17.888   7.897  0.00  0.00     0.102 C 
HETATM   13  C   UNK N   1      28.197  19.281   7.350  0.00  0.00     0.025 C 
BRANCH  12  14
HETATM   14  C   UNK N   1      28.446  17.739   9.329  0.00  0.00     0.147 C 
HETATM   15  O   UNK N   1      27.983  16.875  10.056  0.00  0.00    -0.650 OA
BRANCH  14  16
HETATM   16  O   UNK N   1      29.366  18.597   9.819  0.00  0.00    -0.776 OA
HETATM   17  H   UNK N   1      30.012  19.206   9.519  0.00  0.00     0.167 HD
ENDBRANCH  14  16
ENDBRANCH  12  14
ENDBRANCH  11  12
ENDBRANCH   9  10
ENDBRANCH   3   7
BRANCH   2  18
HETATM   18  C   UNK N   1      33.427  17.454   5.361  0.00  0.00     0.117 C 
BRANCH  18  19
HETATM   19  C   UNK N   1      32.771  17.432   3.993  0.00  0.00     0.139 C 
HETATM   20  O   UNK N   1      33.161  16.692   3.105  0.00  0.00    -0.650 OA
BRANCH  19  21
HETATM   21  O   UNK N   1      31.662  18.162   3.791  0.00  0.00    -0.776 OA
HETATM   22  H   UNK N   1      31.148  18.030   3.019  0.00  0.00     0.167 HD
ENDBRANCH  19  21
ENDBRANCH  18  19
ENDBRANCH   2  18
BRANCH   4  23
HETATM   23  C   UNK N   1      34.391  18.029   8.402  0.00  0.00     0.163 C 
HETATM   24  O   UNK N   1      34.806  16.968   8.854  0.00  0.00    -0.648 OA
BRANCH  23  25
HETATM   25  O   UNK N   1      35.200  19.098   8.399  0.00  0.00    -0.775 OA
HETATM   26  H   UNK N   1      35.859  19.324   7.773  0.00  0.00     0.167 HD
ENDBRANCH  23  25
ENDBRANCH   4  23
TORSDOF 10
ENDMDL
MODEL 2
REMARK VINA RESULT:      -6.2      2.350      5.439
REMARK  10 active torsions:
REMARK  status: ('A' for Active; 'I' for Inactive)
REMARK    1  A    between atoms: C_4  and  C_3 
REMARK    2  A    between atoms: C_9  and  C_5 
REMARK    3  A    between atoms: C_10  and  C_6 
REMARK    4  A    between atoms: C_12  and  C_6 
REMARK    5  A    between atoms: C_11  and  C_8 
REMARK    6  A    between atoms: C_14  and  C_9 
REMARK    7  A    between atoms: O_18  and  C_12 
REMARK    8  A    between atoms: C_13  and  C_15 
REMARK    9  A    between atoms: O_20  and  C_14 
REMARK   10  A    between atoms: O_22  and  C_15 
ROOT
HETATM    1  C   UNK N   1      30.065  15.831   6.544  0.00  0.00     0.124 C 
HETATM    2  C   UNK N   1      31.773  17.271   7.353  0.00  0.00     0.038 C 
HETATM    3  C   UNK N   1      31.510  15.810   7.034  0.00  0.00     0.038 C 
HETATM    4  C   UNK N   1      30.384  17.850   7.678  0.00  0.00     0.180 C 
HETATM    5  N   UNK N   1      29.485  17.155   6.769  0.00  0.00    -0.407 N 
HETATM    6  H   UNK N   1      28.621  17.520   6.367  0.00  0.00     0.154 HD
ENDROOT
BRANCH   3   7
HETATM    7  C   UNK N   1      32.636  15.200   6.149  0.00  0.00    -0.078 C 
HETATM    8  C   UNK N   1      32.609  15.535   4.690  0.00  0.00     0.044 C 
HETATM    9  C   UNK N   1      33.695  14.460   6.576  0.00  0.00     0.003 C 
BRANCH   9  10
HETATM   10  C   UNK N   1      33.906  14.139   7.993  0.00  0.00    -0.003 C 
HETATM   11  C   UNK N   1      35.121  14.302   8.513  0.00  0.00    -0.012 C 
BRANCH  11  12
HETATM   12  C   UNK N   1      35.308  14.558   9.992  0.00  0.00     0.102 C 
HETATM   13  C   UNK N   1      34.021  14.818  10.744  0.00  0.00     0.025 C 
BRANCH  12  14
HETATM   14  C   UNK N   1      36.419  15.510  10.389  0.00  0.00     0.147 C 
HETATM   15  O   UNK N   1      36.167  16.648  10.753  0.00  0.00    -0.650 OA
BRANCH  14  16
HETATM   16  O   UNK N   1      37.705  15.110  10.301  0.00  0.00    -0.776 OA
HETATM   17  H   UNK N   1      38.210  14.372  10.018  0.00  0.00     0.167 HD
ENDBRANCH  14  16
ENDBRANCH  12  14
ENDBRANCH  11  12
ENDBRANCH   9  10
ENDBRANCH   3   7
BRANCH   2  18
HETATM   18  C   UNK N   1      32.977  17.612   8.266  0.00  0.00     0.117 C 
BRANCH  18  19
HETATM   19  C   UNK N   1      34.256  18.170   7.670  0.00  0.00     0.139 C 
HETATM   20  O   UNK N   1      34.576  17.949   6.514  0.00  0.00    -0.650 OA
BRANCH  19  21
HETATM   21  O   UNK N   1      34.996  19.022   8.398  0.00  0.00    -0.776 OA
HETATM   22  H   UNK N   1      34.768  19.930   8.433  0.00  0.00     0.167 HD
ENDBRANCH  19  21
ENDBRANCH  18  19
ENDBRANCH   2  18
BRANCH   4  23
HETATM   23  C   UNK N   1      29.841  17.719   9.080  0.00  0.00     0.163 C 
HETATM   24  O   UNK N   1      28.987  18.510   9.462  0.00  0.00    -0.648 OA
BRANCH  23  25
HETATM   25  O   UNK N   1      30.295  16.787   9.930  0.00  0.00    -0.775 OA
HETATM   26  H   UNK N   1      31.126  16.356   9.928  0.00  0.00     0.167 HD
ENDBRANCH  23  25
ENDBRANCH   4  23
TORSDOF 10
ENDMDL
MODEL 3
REMARK VINA RESULT:      -6.1      2.590      3.487
REMARK  10 active torsions:
REMARK  status: ('A' for Active; 'I' for Inactive)
REMARK    1  A    between atoms: C_4  and  C_3 
REMARK    2  A    between atoms: C_9  and  C_5 
REMARK    3  A    between atoms: C_10  and  C_6 
REMARK    4  A    between atoms: C_12  and  C_6 
REMARK    5  A    between atoms: C_11  and  C_8 
REMARK    6  A    between atoms: C_14  and  C_9 
REMARK    7  A    between atoms: O_18  and  C_12 
REMARK    8  A    between atoms: C_13  and  C_15 
REMARK    9  A    between atoms: O_20  and  C_14 
REMARK   10  A    between atoms: O_22  and  C_15 
ROOT
HETATM    1  C   UNK N   1      33.462  17.464   8.936  0.00  0.00     0.124 C 
HETATM    2  C   UNK N   1      34.496  15.427   8.283  0.00  0.00     0.038 C 
HETATM    3  C   UNK N   1      33.248  16.254   8.031  0.00  0.00     0.038 C 
HETATM    4  C   UNK N   1      34.941  15.824   9.702  0.00  0.00     0.180 C 
HETATM    5  N   UNK N   1      34.627  17.242   9.792  0.00  0.00    -0.407 N 
HETATM    6  H   UNK N   1      35.123  17.944  10.342  0.00  0.00     0.154 HD
ENDROOT
BRANCH   3   7
HETATM    7  C   UNK N   1      32.977  16.442   6.510  0.00  0.00    -0.078 C 
HETATM    8  C   UNK N   1      34.173  16.587   5.621  0.00  0.00     0.044 C 
HETATM    9  C   UNK N   1      31.767  16.406   5.889  0.00  0.00     0.003 C 
BRANCH   9  10
HETATM   10  C   UNK N   1      30.517  16.170   6.621  0.00  0.00    -0.003 C 
HETATM   11  C   UNK N   1      29.903  17.205   7.192  0.00  0.00    -0.012 C 
BRANCH  11  12
HETATM   12  C   UNK N   1      28.411  17.184   7.443  0.00  0.00     0.102 C 
HETATM   13  C   UNK N   1      27.581  17.703   6.289  0.00  0.00     0.025 C 
BRANCH  12  14
HETATM   14  C   UNK N   1      27.935  17.703   8.785  0.00  0.00     0.147 C 
HETATM   15  O   UNK N   1      27.915  16.977   9.766  0.00  0.00    -0.650 OA
BRANCH  14  16
HETATM   16  O   UNK N   1      27.489  18.973   8.889  0.00  0.00    -0.776 OA
HETATM   17  H   UNK N   1      26.988  19.513   9.469  0.00  0.00     0.167 HD
ENDBRANCH  14  16
ENDBRANCH  12  14
ENDBRANCH  11  12
ENDBRANCH   9  10
ENDBRANCH   3   7
BRANCH   2  18
HETATM   18  C   UNK N   1      34.473  13.931   7.879  0.00  0.00     0.117 C 
BRANCH  18  19
HETATM   19  C   UNK N   1      33.164  13.165   7.853  0.00  0.00     0.139 C 
HETATM   20  O   UNK N   1      32.590  12.840   8.879  0.00  0.00    -0.650 OA
BRANCH  19  21
HETATM   21  O   UNK N   1      32.564  12.939   6.673  0.00  0.00    -0.776 OA
HETATM   22  H   UNK N   1      32.656  13.556   5.974  0.00  0.00     0.167 HD
ENDBRANCH  19  21
ENDBRANCH  18  19
ENDBRANCH   2  18
BRANCH   4  23
HETATM   23  C   UNK N   1      34.327  15.124  10.890  0.00  0.00     0.163 C 
HETATM   24  O   UNK N   1      35.063  14.674  11.760  0.00  0.00    -0.648 OA
BRANCH  23  25
HETATM   25  O   UNK N   1      33.003  14.945  10.999  0.00  0.00    -0.775 OA
HETATM   26  H   UNK N   1      32.315  15.513  10.713  0.00  0.00     0.167 HD
ENDBRANCH  23  25
ENDBRANCH   4  23
TORSDOF 10
ENDMDL
MODEL 4
REMARK VINA RESULT:      -6.0     12.923     15.140
REMARK  10 active torsions:
REMARK  status: ('A' for Active; 'I' for Inactive)
REMARK    1  A    between atoms: C_4  and  C_3 
REMARK    2  A    between atoms: C_9  and  C_5 
REMARK    3  A    between atoms: C_10  and  C_6 
REMARK    4  A    between atoms: C_12  and  C_6 
REMARK    5  A    between atoms: C_11  and  C_8 
REMARK    6  A    between atoms: C_14  and  C_9 
REMARK    7  A    between atoms: O_18  and  C_12 
REMARK    8  A    between atoms: C_13  and  C_15 
REMARK    9  A    between atoms: O_20  and  C_14 
REMARK   10  A    between atoms: O_22  and  C_15 
ROOT
HETATM    1  C   UNK N   1      30.840  24.755  -4.455  0.00  0.00     0.124 C 
HETATM    2  C   UNK N   1      28.732  23.703  -4.761  0.00  0.00     0.038 C 
HETATM    3  C   UNK N   1      29.405  25.060  -4.872  0.00  0.00     0.038 C 
HETATM    4  C   UNK N   1      29.560  22.948  -3.706  0.00  0.00     0.180 C 
HETATM    5  N   UNK N   1      30.928  23.387  -3.943  0.00  0.00    -0.407 N 
HETATM    6  H   UNK N   1      31.779  22.848  -3.785  0.00  0.00     0.154 HD
ENDROOT
BRANCH   3   7
HETATM    7  C   UNK N   1      29.106  25.743  -6.239  0.00  0.00    -0.078 C 
HETATM    8  C   UNK N   1      29.279  24.906  -7.467  0.00  0.00     0.044 C 
HETATM    9  C   UNK N   1      28.622  27.000  -6.431  0.00  0.00     0.003 C 
BRANCH   9  10
HETATM   10  C   UNK N   1      28.309  27.899  -5.314  0.00  0.00    -0.003 C 
HETATM   11  C   UNK N   1      27.593  28.996  -5.555  0.00  0.00    -0.012 C 
BRANCH  11  12
HETATM   12  C   UNK N   1      26.760  29.637  -4.467  0.00  0.00     0.102 C 
HETATM   13  C   UNK N   1      27.229  31.017  -4.058  0.00  0.00     0.025 C 
BRANCH  12  14
HETATM   14  C   UNK N   1      26.398  28.769  -3.278  0.00  0.00     0.147 C 
HETATM   15  O   UNK N   1      27.139  28.688  -2.312  0.00  0.00    -0.650 OA
BRANCH  14  16
HETATM   16  O   UNK N   1      25.259  28.044  -3.304  0.00  0.00    -0.776 OA
HETATM   17  H   UNK N   1      24.331  28.161  -3.239  0.00  0.00     0.167 HD
ENDBRANCH  14  16
ENDBRANCH  12  14
ENDBRANCH  11  12
ENDBRANCH   9  10
ENDBRANCH   3   7
BRANCH   2  18
HETATM   18  C   UNK N   1      27.185  23.661  -4.693  0.00  0.00     0.117 C 
BRANCH  18  19
HETATM   19  C   UNK N   1      26.407  24.865  -4.197  0.00  0.00     0.139 C 
HETATM   20  O   UNK N   1      26.494  25.256  -3.044  0.00  0.00    -0.650 OA
BRANCH  19  21
HETATM   21  O   UNK N   1      25.694  25.588  -5.076  0.00  0.00    -0.776 OA
HETATM   22  H   UNK N   1      24.950  25.210  -5.501  0.00  0.00     0.167 HD
ENDBRANCH  19  21
ENDBRANCH  18  19
ENDBRANCH   2  18
BRANCH   4  23
HETATM   23  C   UNK N   1      29.244  23.142  -2.243  0.00  0.00     0.163 C 
HETATM   24  O   UNK N   1      30.166  23.200  -1.439  0.00  0.00    -0.648 OA
BRANCH  23  25
HETATM   25  O   UNK N   1      27.982  23.213  -1.796  0.00  0.00    -0.775 OA
HETATM   26  H   UNK N   1      27.386  22.511  -1.627  0.00  0.00     0.167 HD
ENDBRANCH  23  25
ENDBRANCH   4  23
TORSDOF 10
ENDMDL
MODEL 5
REMARK VINA RESULT:      -6.0     13.764     16.473
REMARK  10 active torsions:
REMARK  status: ('A' for Active; 'I' for Inactive)
REMARK    1  A    between atoms: C_4  and  C_3 
REMARK    2  A    between atoms: C_9  and  C_5 
REMARK    3  A    between atoms: C_10  and  C_6 
REMARK    4  A    between atoms: C_12  and  C_6 
REMARK    5  A    between atoms: C_11  and  C_8 
REMARK    6  A    between atoms: C_14  and  C_9 
REMARK    7  A    between atoms: O_18  and  C_12 
REMARK    8  A    between atoms: C_13  and  C_15 
REMARK    9  A    between atoms: O_20  and  C_14 
REMARK   10  A    between atoms: O_22  and  C_15 
ROOT
HETATM    1  C   UNK N   1      27.864  26.434  -8.394  0.00  0.00     0.124 C 
HETATM    2  C   UNK N   1      26.036  26.355  -6.878  0.00  0.00     0.038 C 
HETATM    3  C   UNK N   1      27.555  26.383  -6.901  0.00  0.00     0.038 C 
HETATM    4  C   UNK N   1      25.643  25.725  -8.226  0.00  0.00     0.180 C 
HETATM    5  N   UNK N   1      26.635  26.233  -9.162  0.00  0.00    -0.407 N 
HETATM    6  H   UNK N   1      26.500  26.415 -10.156  0.00  0.00     0.154 HD
ENDROOT
BRANCH   3   7
HETATM    7  C   UNK N   1      28.127  27.464  -5.938  0.00  0.00    -0.078 C 
HETATM    8  C   UNK N   1      27.449  28.798  -5.936  0.00  0.00     0.044 C 
HETATM    9  C   UNK N   1      29.129  27.297  -5.033  0.00  0.00     0.003 C 
BRANCH   9  10
HETATM   10  C   UNK N   1      29.817  26.014  -4.852  0.00  0.00    -0.003 C 
HETATM   11  C   UNK N   1      29.772  25.424  -3.659  0.00  0.00    -0.012 C 
BRANCH  11  12
HETATM   12  C   UNK N   1      29.923  23.925  -3.523  0.00  0.00     0.102 C 
HETATM   13  C   UNK N   1      29.459  23.143  -4.733  0.00  0.00     0.025 C 
BRANCH  12  14
HETATM   14  C   UNK N   1      29.467  23.304  -2.218  0.00  0.00     0.147 C 
HETATM   15  O   UNK N   1      30.278  22.926  -1.387  0.00  0.00    -0.650 OA
BRANCH  14  16
HETATM   16  O   UNK N   1      28.148  23.131  -1.986  0.00  0.00    -0.776 OA
HETATM   17  H   UNK N   1      27.328  23.171  -2.438  0.00  0.00     0.167 HD
ENDBRANCH  14  16
ENDBRANCH  12  14
ENDBRANCH  11  12
ENDBRANCH   9  10
ENDBRANCH   3   7
BRANCH   2  18
HETATM   18  C   UNK N   1      25.336  25.882  -5.579  0.00  0.00     0.117 C 
BRANCH  18  19
HETATM   19  C   UNK N   1      25.994  24.845  -4.689  0.00  0.00     0.139 C 
HETATM   20  O   UNK N   1      26.338  25.103  -3.547  0.00  0.00    -0.650 OA
BRANCH  19  21
HETATM   21  O   UNK N   1      26.096  23.580  -5.128  0.00  0.00    -0.776 OA
HETATM   22  H   UNK N   1      25.559  23.284  -5.836  0.00  0.00     0.167 HD
ENDBRANCH  19  21
ENDBRANCH  18  19
ENDBRANCH   2  18
BRANCH   4  23
HETATM   23  C   UNK N   1      25.595  24.221  -8.351  0.00  0.00     0.163 C 
HETATM   24  O   UNK N   1      24.581  23.694  -8.794  0.00  0.00    -0.648 OA
BRANCH  23  25
HETATM   25  O   UNK N   1      26.614  23.446  -7.954  0.00  0.00    -0.775 OA
HETATM   26  H   UNK N   1      27.489  23.422  -8.287  0.00  0.00     0.167 HD
ENDBRANCH  23  25
ENDBRANCH   4  23
TORSDOF 10
ENDMDL
MODEL 6
REMARK VINA RESULT:      -5.9      2.867      4.756
REMARK  10 active torsions:
REMARK  status: ('A' for Active; 'I' for Inactive)
REMARK    1  A    between atoms: C_4  and  C_3 
REMARK    2  A    between atoms: C_9  and  C_5 
REMARK    3  A    between atoms: C_10  and  C_6 
REMARK    4  A    between atoms: C_12  and  C_6 
REMARK    5  A    between atoms: C_11  and  C_8 
REMARK    6  A    between atoms: C_14  and  C_9 
REMARK    7  A    between atoms: O_18  and  C_12 
REMARK    8  A    between atoms: C_13  and  C_15 
REMARK    9  A    between atoms: O_20  and  C_14 
REMARK   10  A    between atoms: O_22  and  C_15 
ROOT
HETATM    1  C   UNK N   1      32.109  15.038   9.574  0.00  0.00     0.124 C 
HETATM    2  C   UNK N   1      33.503  16.849   8.928  0.00  0.00     0.038 C 
HETATM    3  C   UNK N   1      32.313  16.041   8.442  0.00  0.00     0.038 C 
HETATM    4  C   UNK N   1      34.267  15.890   9.858  0.00  0.00     0.180 C 
HETATM    5  N   UNK N   1      33.220  15.126  10.521  0.00  0.00    -0.407 N 
HETATM    6  H   UNK N   1      33.254  14.731  11.461  0.00  0.00     0.154 HD
ENDROOT
BRANCH   3   7
HETATM    7  C   UNK N   1      31.144  16.957   7.977  0.00  0.00    -0.078 C 
HETATM    8  C   UNK N   1      30.887  18.191   8.784  0.00  0.00     0.044 C 
HETATM    9  C   UNK N   1      30.380  16.798   6.862  0.00  0.00     0.003 C 
BRANCH   9  10
HETATM   10  C   UNK N   1      30.587  15.689   5.923  0.00  0.00    -0.003 C 
HETATM   11  C   UNK N   1      31.289  15.911   4.813  0.00  0.00    -0.012 C 
BRANCH  11  12
HETATM   12  C   UNK N   1      32.022  14.785   4.117  0.00  0.00     0.102 C 
HETATM   13  C   UNK N   1      32.162  13.528   4.947  0.00  0.00     0.025 C 
BRANCH  12  14
HETATM   14  C   UNK N   1      33.300  15.147   3.387  0.00  0.00     0.147 C 
HETATM   15  O   UNK N   1      34.360  14.619   3.681  0.00  0.00    -0.650 OA
BRANCH  14  16
HETATM   16  O   UNK N   1      33.275  16.095   2.426  0.00  0.00    -0.776 OA
HETATM   17  H   UNK N   1      32.682  16.710   2.039  0.00  0.00     0.167 HD
ENDBRANCH  14  16
ENDBRANCH  12  14
ENDBRANCH  11  12
ENDBRANCH   9  10
ENDBRANCH   3   7
BRANCH   2  18
HETATM   18  C   UNK N   1      34.285  17.690   7.887  0.00  0.00     0.117 C 
BRANCH  18  19
HETATM   19  C   UNK N   1      34.366  17.237   6.442  0.00  0.00     0.139 C 
HETATM   20  O   UNK N   1      33.902  17.905   5.532  0.00  0.00    -0.650 OA
BRANCH  19  21
HETATM   21  O   UNK N   1      35.065  16.130   6.144  0.00  0.00    -0.776 OA
HETATM   22  H   UNK N   1      36.000  16.131   6.216  0.00  0.00     0.167 HD
ENDBRANCH  19  21
ENDBRANCH  18  19
ENDBRANCH   2  18
BRANCH   4  23
HETATM   23  C   UNK N   1      35.261  14.922   9.263  0.00  0.00     0.163 C 
HETATM   24  O   UNK N   1      36.409  14.913   9.691  0.00  0.00    -0.648 OA
BRANCH  23  25
HETATM   25  O   UNK N   1      34.933  14.101   8.256  0.00  0.00    -0.775 OA
HETATM   26  H   UNK N   1      34.515  14.315   7.446  0.00  0.00     0.167 HD
ENDBRANCH  23  25
ENDBRANCH   4  23
TORSDOF 10
ENDMDL
MODEL 7
REMARK VINA RESULT:      -5.8      2.544      4.449
REMARK  10 active torsions:
REMARK  status: ('A' for Active; 'I' for Inactive)
REMARK    1  A    between atoms: C_4  and  C_3 
REMARK    2  A    between atoms: C_9  and  C_5 
REMARK    3  A    between atoms: C_10  and  C_6 
REMARK    4  A    between atoms: C_12  and  C_6 
REMARK    5  A    between atoms: C_11  and  C_8 
REMARK    6  A    between atoms: C_14  and  C_9 
REMARK    7  A    between atoms: O_18  and  C_12 
REMARK    8  A    between atoms: C_13  and  C_15 
REMARK    9  A    between atoms: O_20  and  C_14 
REMARK   10  A    between atoms: O_22  and  C_15 
ROOT
HETATM    1  C   UNK N   1      30.105  15.410   5.189  0.00  0.00     0.124 C 
HETATM    2  C   UNK N   1      32.187  16.401   5.764  0.00  0.00     0.038 C 
HETATM    3  C   UNK N   1      30.691  16.631   5.892  0.00  0.00     0.038 C 
HETATM    4  C   UNK N   1      32.336  15.533   4.502  0.00  0.00     0.180 C 
HETATM    5  N   UNK N   1      31.173  14.658   4.529  0.00  0.00    -0.407 N 
HETATM    6  H   UNK N   1      31.114  13.709   4.161  0.00  0.00     0.154 HD
ENDROOT
BRANCH   3   7
HETATM    7  C   UNK N   1      30.282  16.974   7.354  0.00  0.00    -0.078 C 
HETATM    8  C   UNK N   1      31.168  16.458   8.445  0.00  0.00     0.044 C 
HETATM    9  C   UNK N   1      29.247  17.766   7.745  0.00  0.00     0.003 C 
BRANCH   9  10
HETATM   10  C   UNK N   1      28.356  18.423   6.781  0.00  0.00    -0.003 C 
HETATM   11  C   UNK N   1      27.888  19.637   7.064  0.00  0.00    -0.012 C 
BRANCH  11  12
HETATM   12  C   UNK N   1      27.476  20.590   5.964  0.00  0.00     0.102 C 
HETATM   13  C   UNK N   1      26.586  21.723   6.426  0.00  0.00     0.025 C 
BRANCH  12  14
HETATM   14  C   UNK N   1      27.006  19.973   4.662  0.00  0.00     0.147 C 
HETATM   15  O   UNK N   1      25.855  19.591   4.530  0.00  0.00    -0.650 OA
BRANCH  14  16
HETATM   16  O   UNK N   1      27.882  19.807   3.648  0.00  0.00    -0.776 OA
HETATM   17  H   UNK N   1      28.410  20.316   3.064  0.00  0.00     0.167 HD
ENDBRANCH  14  16
ENDBRANCH  12  14
ENDBRANCH  11  12
ENDBRANCH   9  10
ENDBRANCH   3   7
BRANCH   2  18
HETATM   18  C   UNK N   1      33.131  17.611   5.977  0.00  0.00     0.117 C 
BRANCH  18  19
HETATM   19  C   UNK N   1      34.347  17.484   6.875  0.00  0.00     0.139 C 
HETATM   20  O   UNK N   1      34.714  18.400   7.592  0.00  0.00    -0.650 OA
BRANCH  19  21
HETATM   21  O   UNK N   1      34.967  16.297   6.969  0.00  0.00    -0.776 OA
HETATM   22  H   UNK N   1      34.465  15.511   7.057  0.00  0.00     0.167 HD
ENDBRANCH  19  21
ENDBRANCH  18  19
ENDBRANCH   2  18
BRANCH   4  23
HETATM   23  C   UNK N   1      32.399  16.202   3.150  0.00  0.00     0.163 C 
HETATM   24  O   UNK N   1      33.347  15.962   2.413  0.00  0.00    -0.648 OA
BRANCH  23  25
HETATM   25  O   UNK N   1      31.468  17.081   2.753  0.00  0.00    -0.775 OA
HETATM   26  H   UNK N   1      31.593  17.899   2.314  0.00  0.00     0.167 HD
ENDBRANCH  23  25
ENDBRANCH   4  23
TORSDOF 10
ENDMDL
MODEL 8
REMARK VINA RESULT:      -5.8      9.701     11.570
REMARK  10 active torsions:
REMARK  status: ('A' for Active; 'I' for Inactive)
REMARK    1  A    between atoms: C_4  and  C_3 
REMARK    2  A    between atoms: C_9  and  C_5 
REMARK    3  A    between atoms: C_10  and  C_6 
REMARK    4  A    between atoms: C_12  and  C_6 
REMARK    5  A    between atoms: C_11  and  C_8 
REMARK    6  A    between atoms: C_14  and  C_9 
REMARK    7  A    between atoms: O_18  and  C_12 
REMARK    8  A    between atoms: C_13  and  C_15 
REMARK    9  A    between atoms: O_20  and  C_14 
REMARK   10  A    between atoms: O_22  and  C_15 
ROOT
HETATM    1  C   UNK N   1      19.009  18.248   2.520  0.00  0.00     0.124 C 
HETATM    2  C   UNK N   1      21.331  17.840   2.818  0.00  0.00     0.038 C 
HETATM    3  C   UNK N   1      19.976  17.427   3.368  0.00  0.00     0.038 C 
HETATM    4  C   UNK N   1      21.102  19.254   2.254  0.00  0.00     0.180 C 
HETATM    5  N   UNK N   1      19.755  19.207   1.705  0.00  0.00    -0.407 N 
HETATM    6  H   UNK N   1      19.401  19.737   0.908  0.00  0.00     0.154 HD
ENDROOT
BRANCH   3   7
HETATM    7  C   UNK N   1      19.836  15.879   3.454  0.00  0.00    -0.078 C 
HETATM    8  C   UNK N   1      20.021  15.110   2.183  0.00  0.00     0.044 C 
HETATM    9  C   UNK N   1      19.644  15.142   4.581  0.00  0.00     0.003 C 
BRANCH   9  10
HETATM   10  C   UNK N   1      19.547  15.755   5.911  0.00  0.00    -0.003 C 
HETATM   11  C   UNK N   1      20.089  15.122   6.950  0.00  0.00    -0.012 C 
BRANCH  11  12
HETATM   12  C   UNK N   1      20.543  15.884   8.176  0.00  0.00     0.102 C 
HETATM   13  C   UNK N   1      20.833  15.010   9.377  0.00  0.00     0.025 C 
BRANCH  12  14
HETATM   14  C   UNK N   1      19.760  17.130   8.537  0.00  0.00     0.147 C 
HETATM   15  O   UNK N   1      18.657  17.049   9.054  0.00  0.00    -0.650 OA
BRANCH  14  16
HETATM   16  O   UNK N   1      20.270  18.346   8.249  0.00  0.00    -0.776 OA
HETATM   17  H   UNK N   1      21.075  18.740   7.974  0.00  0.00     0.167 HD
ENDBRANCH  14  16
ENDBRANCH  12  14
ENDBRANCH  11  12
ENDBRANCH   9  10
ENDBRANCH   3   7
BRANCH   2  18
HETATM   18  C   UNK N   1      22.585  17.555   3.681  0.00  0.00     0.117 C 
BRANCH  18  19
HETATM   19  C   UNK N   1      22.476  17.493   5.193  0.00  0.00     0.139 C 
HETATM   20  O   UNK N   1      23.058  16.642   5.845  0.00  0.00    -0.650 OA
BRANCH  19  21
HETATM   21  O   UNK N   1      21.816  18.468   5.839  0.00  0.00    -0.776 OA
HETATM   22  H   UNK N   1      22.287  19.091   6.357  0.00  0.00     0.167 HD
ENDBRANCH  19  21
ENDBRANCH  18  19
ENDBRANCH   2  18
BRANCH   4  23
HETATM   23  C   UNK N   1      21.199  20.442   3.180  0.00  0.00     0.163 C 
HETATM   24  O   UNK N   1      20.490  20.474   4.179  0.00  0.00    -0.648 OA
BRANCH  23  25
HETATM   25  O   UNK N   1      22.006  21.478   2.919  0.00  0.00    -0.775 OA
HETATM   26  H   UNK N   1      21.771  22.367   2.742  0.00  0.00     0.167 HD
ENDBRANCH  23  25
ENDBRANCH   4  23
TORSDOF 10
ENDMDL
MODEL 9
REMARK VINA RESULT:      -5.8     14.330     16.383
REMARK  10 active torsions:
REMARK  status: ('A' for Active; 'I' for Inactive)
REMARK    1  A    between atoms: C_4  and  C_3 
REMARK    2  A    between atoms: C_9  and  C_5 
REMARK    3  A    between atoms: C_10  and  C_6 
REMARK    4  A    between atoms: C_12  and  C_6 
REMARK    5  A    between atoms: C_11  and  C_8 
REMARK    6  A    between atoms: C_14  and  C_9 
REMARK    7  A    between atoms: O_18  and  C_12 
REMARK    8  A    between atoms: C_13  and  C_15 
REMARK    9  A    between atoms: O_20  and  C_14 
REMARK   10  A    between atoms: O_22  and  C_15 
ROOT
HETATM    1  C   UNK N   1      28.954  24.495  -8.198  0.00  0.00     0.124 C 
HETATM    2  C   UNK N   1      27.178  23.037  -7.595  0.00  0.00     0.038 C 
HETATM    3  C   UNK N   1      27.513  24.514  -7.697  0.00  0.00     0.038 C 
HETATM    4  C   UNK N   1      28.537  22.349  -7.372  0.00  0.00     0.180 C 
HETATM    5  N   UNK N   1      29.468  23.126  -8.177  0.00  0.00    -0.407 N 
HETATM    6  H   UNK N   1      30.311  22.783  -8.636  0.00  0.00     0.154 HD
ENDROOT
BRANCH   3   7
HETATM    7  C   UNK N   1      26.416  25.302  -8.472  0.00  0.00    -0.078 C 
HETATM    8  C   UNK N   1      26.040  24.788  -9.826  0.00  0.00     0.044 C 
HETATM    9  C   UNK N   1      25.701  26.365  -8.013  0.00  0.00     0.003 C 
BRANCH   9  10
HETATM   10  C   UNK N   1      25.891  26.914  -6.665  0.00  0.00    -0.003 C 
HETATM   11  C   UNK N   1      25.123  26.463  -5.674  0.00  0.00    -0.012 C 
BRANCH  11  12
HETATM   12  C   UNK N   1      25.594  26.512  -4.238  0.00  0.00     0.102 C 
HETATM   13  C   UNK N   1      25.844  27.910  -3.714  0.00  0.00     0.025 C 
BRANCH  12  14
HETATM   14  C   UNK N   1      26.684  25.537  -3.840  0.00  0.00     0.147 C 
HETATM   15  O   UNK N   1      27.862  25.842  -3.933  0.00  0.00    -0.650 OA
BRANCH  14  16
HETATM   16  O   UNK N   1      26.350  24.301  -3.413  0.00  0.00    -0.776 OA
HETATM   17  H   UNK N   1      25.898  23.535  -3.712  0.00  0.00     0.167 HD
ENDBRANCH  14  16
ENDBRANCH  12  14
ENDBRANCH  11  12
ENDBRANCH   9  10
ENDBRANCH   3   7
BRANCH   2  18
HETATM   18  C   UNK N   1      25.960  22.623  -6.731  0.00  0.00     0.117 C 
BRANCH  18  19
HETATM   19  C   UNK N   1      24.838  21.799  -7.334  0.00  0.00     0.139 C 
HETATM   20  O   UNK N   1      23.947  21.327  -6.648  0.00  0.00    -0.650 OA
BRANCH  19  21
HETATM   21  O   UNK N   1      24.760  21.682  -8.670  0.00  0.00    -0.776 OA
HETATM   22  H   UNK N   1      24.575  22.435  -9.197  0.00  0.00     0.167 HD
ENDBRANCH  19  21
ENDBRANCH  18  19
ENDBRANCH   2  18
BRANCH   4  23
HETATM   23  C   UNK N   1      29.089  22.245  -5.971  0.00  0.00     0.163 C 
HETATM   24  O   UNK N   1      29.761  21.266  -5.669  0.00  0.00    -0.648 OA
BRANCH  23  25
HETATM   25  O   UNK N   1      28.830  23.172  -5.038  0.00  0.00    -0.775 OA
HETATM   26  H   UNK N   1      28.214  23.131  -4.335  0.00  0.00     0.167 HD
ENDBRANCH  23  25
ENDBRANCH   4  23
TORSDOF 10
ENDMDL
