MODEL 1
REMARK VINA RESULT:      -4.4      0.000      0.000
REMARK  3 active torsions:
REMARK  status: ('A' for Active; 'I' for Inactive)
REMARK    1  A    between atoms: C_4  and  O_7 
REMARK    2  A    between atoms: C_5  and  O_8 
REMARK    3  A    between atoms: C_6  and  O_9 
ROOT
HETATM    1  C   UNK N   1      32.639  17.699   7.664  0.00  0.00     0.042 C 
HETATM    2  C   UNK N   1      28.836  17.216   7.790  0.00  0.00     0.071 C 
HETATM    3  C   UNK N   1      31.260  17.526   8.280  0.00  0.00     0.149 C 
HETATM    4  C   UNK N   1      30.217  17.345   7.161  0.00  0.00     0.149 C 
HETATM    5  C   UNK N   1      28.578  18.442   8.655  0.00  0.00     0.175 C 
HETATM    6  C   UNK N   1      29.705  18.585   9.691  0.00  0.00     0.285 C 
HETATM    7  O   UNK N   1      30.978  18.677   9.063  0.00  0.00    -0.351 OA
ENDROOT
BRANCH   4   8
HETATM    8  O   UNK N   1      30.492  16.201   6.411  0.00  0.00    -0.393 OA
HETATM    9  H   UNK N   1      31.283  15.641   6.361  0.00  0.00     0.210 HD
ENDBRANCH   4   8
BRANCH   5  10
HETATM   10  O   UNK N   1      27.341  18.322   9.291  0.00  0.00    -0.391 OA
HETATM   11  H   UNK N   1      27.158  18.288  10.244  0.00  0.00     0.210 HD
ENDBRANCH   5  10
BRANCH   6  12
HETATM   12  O   UNK N   1      29.684  17.534  10.616  0.00  0.00    -0.369 OA
HETATM   13  H   UNK N   1      29.382  16.636  10.824  0.00  0.00     0.212 HD
ENDBRANCH   6  12
TORSDOF 3
ENDMDL
MODEL 2
REMARK VINA RESULT:      -4.3      9.600     10.944
REMARK  3 active torsions:
REMARK  status: ('A' for Active; 'I' for Inactive)
REMARK    1  A    between atoms: C_4  and  O_7 
REMARK    2  A    between atoms: C_5  and  O_8 
REMARK    3  A    between atoms: C_6  and  O_9 
ROOT
HETATM    1  C   UNK N   1      20.760  15.973   2.846  0.00  0.00     0.042 C 
HETATM    2  C   UNK N   1      20.274  19.685   2.013  0.00  0.00     0.071 C 
HETATM    3  C   UNK N   1      20.684  17.472   3.084  0.00  0.00     0.149 C 
HETATM    4  C   UNK N   1      20.304  18.182   1.771  0.00  0.00     0.149 C 
HETATM    5  C   UNK N   1      21.628  20.119   2.557  0.00  0.00     0.175 C 
HETATM    6  C   UNK N   1      21.956  19.308   3.821  0.00  0.00     0.285 C 
HETATM    7  O   UNK N   1      21.949  17.910   3.556  0.00  0.00    -0.351 OA
ENDROOT
BRANCH   4   8
HETATM    8  O   UNK N   1      19.051  17.760   1.326  0.00  0.00    -0.393 OA
HETATM    9  H   UNK N   1      18.155  17.994   1.616  0.00  0.00     0.210 HD
ENDBRANCH   4   8
BRANCH   5  10
HETATM   10  O   UNK N   1      21.608  21.485   2.844  0.00  0.00    -0.391 OA
HETATM   11  H   UNK N   1      21.082  21.949   3.515  0.00  0.00     0.210 HD
ENDBRANCH   5  10
BRANCH   6  12
HETATM   12  O   UNK N   1      21.079  19.617   4.868  0.00  0.00    -0.369 OA
HETATM   13  H   UNK N   1      20.203  19.938   5.131  0.00  0.00     0.212 HD
ENDBRANCH   6  12
TORSDOF 3
ENDMDL
MODEL 3
REMARK VINA RESULT:      -4.2      9.027     10.133
REMARK  3 active torsions:
REMARK  status: ('A' for Active; 'I' for Inactive)
REMARK    1  A    between atoms: C_4  and  O_7 
REMARK    2  A    between atoms: C_5  and  O_8 
REMARK    3  A    between atoms: C_6  and  O_9 
ROOT
HETATM    1  C   UNK N   1      33.781  10.713  14.049  0.00  0.00     0.042 C 
HETATM    2  C   UNK N   1      35.963  13.865  13.930  0.00  0.00     0.071 C 
HETATM    3  C   UNK N   1      34.494  11.954  14.562  0.00  0.00     0.149 C 
HETATM    4  C   UNK N   1      35.218  12.649  13.394  0.00  0.00     0.149 C 
HETATM    5  C   UNK N   1      36.907  13.412  15.034  0.00  0.00     0.175 C 
HETATM    6  C   UNK N   1      36.110  12.664  16.115  0.00  0.00     0.285 C 
HETATM    7  O   UNK N   1      35.411  11.552  15.569  0.00  0.00    -0.351 OA
ENDROOT
BRANCH   4   8
HETATM    8  O   UNK N   1      34.306  13.057  12.420  0.00  0.00    -0.393 OA
HETATM    9  H   UNK N   1      33.337  13.017  12.392  0.00  0.00     0.210 HD
ENDBRANCH   4   8
BRANCH   5  10
HETATM   10  O   UNK N   1      37.560  14.517  15.583  0.00  0.00    -0.391 OA
HETATM   11  H   UNK N   1      38.094  15.186  15.125  0.00  0.00     0.210 HD
ENDBRANCH   5  10
BRANCH   6  12
HETATM   12  O   UNK N   1      35.229  13.522  16.784  0.00  0.00    -0.369 OA
HETATM   13  H   UNK N   1      35.114  14.341  17.290  0.00  0.00     0.212 HD
ENDBRANCH   6  12
TORSDOF 3
ENDMDL
MODEL 4
REMARK VINA RESULT:      -4.2      8.520      9.840
REMARK  3 active torsions:
REMARK  status: ('A' for Active; 'I' for Inactive)
REMARK    1  A    between atoms: C_4  and  O_7 
REMARK    2  A    between atoms: C_5  and  O_8 
REMARK    3  A    between atoms: C_6  and  O_9 
ROOT
HETATM    1  C   UNK N   1      24.979  20.444   2.751  0.00  0.00     0.042 C 
HETATM    2  C   UNK N   1      21.712  18.839   3.960  0.00  0.00     0.071 C 
HETATM    3  C   UNK N   1      23.501  20.341   3.092  0.00  0.00     0.149 C 
HETATM    4  C   UNK N   1      23.203  18.943   3.664  0.00  0.00     0.149 C 
HETATM    5  C   UNK N   1      20.939  19.139   2.684  0.00  0.00     0.175 C 
HETATM    6  C   UNK N   1      21.355  20.518   2.146  0.00  0.00     0.285 C 
HETATM    7  O   UNK N   1      22.756  20.580   1.907  0.00  0.00    -0.351 OA
ENDROOT
BRANCH   4   8
HETATM    8  O   UNK N   1      23.924  18.726   4.839  0.00  0.00    -0.393 OA
HETATM    9  H   UNK N   1      24.203  19.333   5.541  0.00  0.00     0.210 HD
ENDBRANCH   4   8
BRANCH   5  10
HETATM   10  O   UNK N   1      19.567  19.109   2.942  0.00  0.00    -0.391 OA
HETATM   11  H   UNK N   1      18.943  19.852   2.953  0.00  0.00     0.210 HD
ENDBRANCH   5  10
BRANCH   6  12
HETATM   12  O   UNK N   1      20.955  21.545   3.010  0.00  0.00    -0.369 OA
HETATM   13  H   UNK N   1      20.750  22.487   3.118  0.00  0.00     0.212 HD
ENDBRANCH   6  12
TORSDOF 3
ENDMDL
MODEL 5
REMARK VINA RESULT:      -4.2      4.780      5.842
REMARK  3 active torsions:
REMARK  status: ('A' for Active; 'I' for Inactive)
REMARK    1  A    between atoms: C_4  and  O_7 
REMARK    2  A    between atoms: C_5  and  O_8 
REMARK    3  A    between atoms: C_6  and  O_9 
ROOT
HETATM    1  C   UNK N   1      34.286  18.169   8.179  0.00  0.00     0.042 C 
HETATM    2  C   UNK N   1      34.411  14.668   9.739  0.00  0.00     0.071 C 
HETATM    3  C   UNK N   1      34.837  17.005   8.987  0.00  0.00     0.149 C 
HETATM    4  C   UNK N   1      33.869  15.810   8.890  0.00  0.00     0.149 C 
HETATM    5  C   UNK N   1      34.603  15.166  11.164  0.00  0.00     0.175 C 
HETATM    6  C   UNK N   1      35.519  16.401  11.155  0.00  0.00     0.285 C 
HETATM    7  O   UNK N   1      34.989  17.434  10.332  0.00  0.00    -0.351 OA
ENDROOT
BRANCH   4   8
HETATM    8  O   UNK N   1      33.742  15.384   7.568  0.00  0.00    -0.393 OA
HETATM    9  H   UNK N   1      34.346  14.888   6.993  0.00  0.00     0.210 HD
ENDBRANCH   4   8
BRANCH   5  10
HETATM   10  O   UNK N   1      35.155  14.154  11.951  0.00  0.00    -0.391 OA
HETATM   11  H   UNK N   1      35.772  13.455  11.681  0.00  0.00     0.210 HD
ENDBRANCH   5  10
BRANCH   6  12
HETATM   12  O   UNK N   1      36.819  16.069  10.757  0.00  0.00    -0.369 OA
HETATM   13  H   UNK N   1      37.620  16.337  10.280  0.00  0.00     0.212 HD
ENDBRANCH   6  12
TORSDOF 3
ENDMDL
MODEL 6
REMARK VINA RESULT:      -4.2      4.171      4.942
REMARK  3 active torsions:
REMARK  status: ('A' for Active; 'I' for Inactive)
REMARK    1  A    between atoms: C_4  and  O_7 
REMARK    2  A    between atoms: C_5  and  O_8 
REMARK    3  A    between atoms: C_6  and  O_9 
ROOT
HETATM    1  C   UNK N   1      33.107  17.301   4.916  0.00  0.00     0.042 C 
HETATM    2  C   UNK N   1      34.830  16.034   8.099  0.00  0.00     0.071 C 
HETATM    3  C   UNK N   1      33.866  17.372   6.231  0.00  0.00     0.149 C 
HETATM    4  C   UNK N   1      34.108  15.947   6.762  0.00  0.00     0.149 C 
HETATM    5  C   UNK N   1      34.001  16.891   9.046  0.00  0.00     0.175 C 
HETATM    6  C   UNK N   1      33.747  18.265   8.404  0.00  0.00     0.285 C 
HETATM    7  O   UNK N   1      33.094  18.136   7.146  0.00  0.00    -0.351 OA
ENDROOT
BRANCH   4   8
HETATM    8  O   UNK N   1      34.883  15.211   5.865  0.00  0.00    -0.393 OA
HETATM    9  H   UNK N   1      35.150  15.391   4.949  0.00  0.00     0.210 HD
ENDBRANCH   4   8
BRANCH   5  10
HETATM   10  O   UNK N   1      34.670  17.037  10.263  0.00  0.00    -0.391 OA
HETATM   11  H   UNK N   1      34.309  17.338  11.112  0.00  0.00     0.210 HD
ENDBRANCH   5  10
BRANCH   6  12
HETATM   12  O   UNK N   1      34.935  18.994   8.272  0.00  0.00    -0.369 OA
HETATM   13  H   UNK N   1      35.600  19.370   7.675  0.00  0.00     0.212 HD
ENDBRANCH   6  12
TORSDOF 3
ENDMDL
MODEL 7
REMARK VINA RESULT:      -4.1      3.204      4.504
REMARK  3 active torsions:
REMARK  status: ('A' for Active; 'I' for Inactive)
REMARK    1  A    between atoms: C_4  and  O_7 
REMARK    2  A    between atoms: C_5  and  O_8 
REMARK    3  A    between atoms: C_6  and  O_9 
ROOT
HETATM    1  C   UNK N   1      33.214  17.525   5.825  0.00  0.00     0.042 C 
HETATM    2  C   UNK N   1      34.201  16.890   9.476  0.00  0.00     0.071 C 
HETATM    3  C   UNK N   1      33.031  17.195   7.297  0.00  0.00     0.149 C 
HETATM    4  C   UNK N   1      34.393  17.264   8.013  0.00  0.00     0.149 C 
HETATM    5  C   UNK N   1      33.559  15.511   9.547  0.00  0.00     0.175 C 
HETATM    6  C   UNK N   1      32.248  15.515   8.745  0.00  0.00     0.285 C 
HETATM    7  O   UNK N   1      32.468  15.894   7.392  0.00  0.00    -0.351 OA
ENDROOT
BRANCH   4   8
HETATM    8  O   UNK N   1      34.928  18.551   7.931  0.00  0.00    -0.393 OA
HETATM    9  H   UNK N   1      34.502  19.423   7.921  0.00  0.00     0.210 HD
ENDBRANCH   4   8
BRANCH   5  10
HETATM   10  O   UNK N   1      33.318  15.168  10.878  0.00  0.00    -0.391 OA
HETATM   11  H   UNK N   1      32.673  15.558  11.490  0.00  0.00     0.210 HD
ENDBRANCH   5  10
BRANCH   6  12
HETATM   12  O   UNK N   1      31.288  16.343   9.341  0.00  0.00    -0.369 OA
HETATM   13  H   UNK N   1      31.087  17.202   9.742  0.00  0.00     0.212 HD
ENDBRANCH   6  12
TORSDOF 3
ENDMDL
MODEL 8
REMARK VINA RESULT:      -4.1      5.668      7.208
REMARK  3 active torsions:
REMARK  status: ('A' for Active; 'I' for Inactive)
REMARK    1  A    between atoms: C_4  and  O_7 
REMARK    2  A    between atoms: C_5  and  O_8 
REMARK    3  A    between atoms: C_6  and  O_9 
ROOT
HETATM    1  C   UNK N   1      32.992  15.256   9.111  0.00  0.00     0.042 C 
HETATM    2  C   UNK N   1      36.014  15.583  11.450  0.00  0.00     0.071 C 
HETATM    3  C   UNK N   1      33.883  14.974  10.309  0.00  0.00     0.149 C 
HETATM    4  C   UNK N   1      35.108  15.906  10.268  0.00  0.00     0.149 C 
HETATM    5  C   UNK N   1      36.384  14.108  11.392  0.00  0.00     0.175 C 
HETATM    6  C   UNK N   1      35.102  13.259  11.360  0.00  0.00     0.285 C 
HETATM    7  O   UNK N   1      34.275  13.610  10.258  0.00  0.00    -0.351 OA
ENDROOT
BRANCH   4   8
HETATM    8  O   UNK N   1      34.714  17.243  10.340  0.00  0.00    -0.393 OA
HETATM    9  H   UNK N   1      34.634  17.849  11.094  0.00  0.00     0.210 HD
ENDBRANCH   4   8
BRANCH   5  10
HETATM   10  O   UNK N   1      37.167  13.771  12.497  0.00  0.00    -0.391 OA
HETATM   11  H   UNK N   1      37.735  12.993  12.614  0.00  0.00     0.210 HD
ENDBRANCH   5  10
BRANCH   6  12
HETATM   12  O   UNK N   1      34.393  13.362  12.563  0.00  0.00    -0.369 OA
HETATM   13  H   UNK N   1      33.587  13.143  13.057  0.00  0.00     0.212 HD
ENDBRANCH   6  12
TORSDOF 3
ENDMDL
MODEL 9
REMARK VINA RESULT:      -4.0      8.581      9.853
REMARK  3 active torsions:
REMARK  status: ('A' for Active; 'I' for Inactive)
REMARK    1  A    between atoms: C_4  and  O_7 
REMARK    2  A    between atoms: C_5  and  O_8 
REMARK    3  A    between atoms: C_6  and  O_9 
ROOT
HETATM    1  C   UNK N   1      21.433  15.255   7.783  0.00  0.00     0.042 C 
HETATM    2  C   UNK N   1      21.107  12.666  10.594  0.00  0.00     0.071 C 
HETATM    3  C   UNK N   1      21.627  13.936   8.513  0.00  0.00     0.149 C 
HETATM    4  C   UNK N   1      20.869  13.976   9.854  0.00  0.00     0.149 C 
HETATM    5  C   UNK N   1      22.606  12.466  10.761  0.00  0.00     0.175 C 
HETATM    6  C   UNK N   1      23.287  12.516   9.384  0.00  0.00     0.285 C 
HETATM    7  O   UNK N   1      23.019  13.743   8.717  0.00  0.00    -0.351 OA
ENDROOT
BRANCH   4   8
HETATM    8  O   UNK N   1      19.500  14.145   9.642  0.00  0.00    -0.393 OA
HETATM    9  H   UNK N   1      18.953  14.019   8.851  0.00  0.00     0.210 HD
ENDBRANCH   4   8
BRANCH   5  10
HETATM   10  O   UNK N   1      22.855  11.242  11.386  0.00  0.00    -0.391 OA
HETATM   11  H   UNK N   1      23.522  10.576  11.154  0.00  0.00     0.210 HD
ENDBRANCH   5  10
BRANCH   6  12
HETATM   12  O   UNK N   1      22.908  11.428   8.588  0.00  0.00    -0.369 OA
HETATM   13  H   UNK N   1      22.892  11.030   7.704  0.00  0.00     0.212 HD
ENDBRANCH   6  12
TORSDOF 3
ENDMDL
