MODEL 1
REMARK VINA RESULT:      -8.3      0.000      0.000
REMARK  17 active torsions:
REMARK  status: ('A' for Active; 'I' for Inactive)
REMARK    1  A    between atoms: C_12  and  C_7 
REMARK    2  A    between atoms: O_44  and  C_7 
REMARK    3  A    between atoms: C_13  and  C_8 
REMARK    4  A    between atoms: O_45  and  C_8 
REMARK    5  A    between atoms: C_19  and  C_11 
REMARK    6  A    between atoms: C_15  and  O_35 
REMARK    7  A    between atoms: C_16  and  O_36 
REMARK    8  A    between atoms: C_17  and  O_37 
REMARK    9  A    between atoms: C_18  and  O_38 
REMARK   10  A    between atoms: O_39  and  C_19 
REMARK   11  A    between atoms: C_22  and  N_32 
REMARK   12  A    between atoms: C_23  and  N_34 
REMARK   13  A    between atoms: P_49  and  O_41 
REMARK   14  A    between atoms: P_49  and  O_44 
REMARK   15  A    between atoms: P_50  and  O_45 
REMARK   16  A    between atoms: P_49  and  O_48 
REMARK   17  A    between atoms: P_50  and  O_48 
ROOT
HETATM    1  O   UNK N   1      33.128  17.963   9.064  0.00  0.00    -0.624 OA
HETATM    2  O   UNK N   1      35.310  19.037   7.934  0.00  0.00    -0.624 OA
HETATM    3  P   UNK N   1      34.623  17.675   8.770  0.00  0.00     0.417 P 
ENDROOT
BRANCH   3   4
HETATM    4  O   UNK N   1      35.434  17.440  10.292  0.00  0.00    -0.287 OA
BRANCH   4   5
HETATM    5  C   UNK N   1      34.974  16.200  10.760  0.00  0.00     0.216 C 
BRANCH   5   6
HETATM    6  C   UNK N   1      36.094  15.194  11.150  0.00  0.00     0.180 C 
HETATM    7  C   UNK N   1      35.828  14.630  12.529  0.00  0.00     0.182 C 
HETATM    8  C   UNK N   1      34.776  13.617  12.157  0.00  0.00     0.198 C 
HETATM    9  C   UNK N   1      35.454  13.029  10.919  0.00  0.00     0.262 C 
HETATM   10  O   UNK N   1      36.113  14.101  10.262  0.00  0.00    -0.353 OA
BRANCH   7  11
HETATM   11  O   UNK N   1      36.986  13.988  12.996  0.00  0.00    -0.390 OA
HETATM   12  H   UNK N   1      37.555  13.264  13.302  0.00  0.00     0.210 HD
ENDBRANCH   7  11
BRANCH   8  13
HETATM   13  O   UNK N   1      34.543  12.683  13.168  0.00  0.00    -0.388 OA
HETATM   14  H   UNK N   1      33.644  12.405  13.399  0.00  0.00     0.210 HD
ENDBRANCH   8  13
BRANCH   9  15
HETATM   15  N   UNK N   1      34.554  12.346   9.988  0.00  0.00    -0.297 N 
HETATM   16  C   UNK N   1      33.918  12.867   8.902  0.00  0.00     0.188 A 
HETATM   17  N   UNK N   1      33.028  11.975   8.371  0.00  0.00    -0.346 N 
HETATM   18  C   UNK N   1      33.134  10.889   9.163  0.00  0.00     0.123 A 
ATOM     19  HN  UNK N   1      32.422  12.102   7.560  1.00  0.00     0.167 HD
HETATM   20  C   UNK N   1      32.439   9.697   9.185  0.00  0.00     0.143 A 
HETATM   21  C   UNK N   1      34.068  11.107  10.113  0.00  0.00     0.142 A 
HETATM   22  N   UNK N   1      31.433   9.299   8.390  0.00  0.00    -0.349 N 
HETATM   23  N   UNK N   1      32.733   8.788  10.128  0.00  0.00    -0.301 N 
HETATM   24  C   UNK N   1      31.086   8.073   8.865  0.00  0.00     0.107 A 
ATOM     25  HN  UNK N   1      31.022   9.802   7.604  1.00  0.00     0.167 HD
HETATM   26  C   UNK N   1      31.903   7.756   9.950  0.00  0.00     0.116 A 
HETATM   27  C   UNK N   1      33.700   8.989  11.070  0.00  0.00     0.191 A 
HETATM   28  N   UNK N   1      34.376  10.179  11.073  0.00  0.00    -0.336 N 
ATOM     29  HN  UNK N   1      35.093  10.370  11.773  1.00  0.00     0.168 HD
ENDBRANCH   9  15
ENDBRANCH   5   6
ENDBRANCH   4   5
ENDBRANCH   3   4
BRANCH   3  30
HETATM   30  O   UNK N   1      34.870  16.169   7.931  0.00  0.00    -0.188 OA
BRANCH  30  31
HETATM   31  P   UNK N   1      34.159  16.126   6.360  0.00  0.00     0.402 P 
HETATM   32  O   UNK N   1      35.459  15.624   5.688  0.00  0.00    -0.631 OA
BRANCH  31  33
HETATM   33  O   UNK N   1      34.055  17.592   5.436  0.00  0.00    -0.307 OA
HETATM   34  H   UNK N   1      34.864  18.049   5.157  0.00  0.00     0.222 HD
ENDBRANCH  31  33
BRANCH  31  35
HETATM   35  O   UNK N   1      33.234  14.734   5.904  0.00  0.00    -0.294 OA
BRANCH  35  36
HETATM   36  C   UNK N   1      31.921  14.987   6.276  0.00  0.00     0.215 C 
BRANCH  36  37
HETATM   37  C   UNK N   1      30.970  14.820   5.091  0.00  0.00     0.180 C 
HETATM   38  C   UNK N   1      31.069  15.982   4.092  0.00  0.00     0.182 C 
HETATM   39  C   UNK N   1      29.646  16.077   3.652  0.00  0.00     0.198 C 
HETATM   40  C   UNK N   1      28.928  15.821   4.976  0.00  0.00     0.259 C 
HETATM   41  O   UNK N   1      29.642  14.761   5.582  0.00  0.00    -0.353 OA
BRANCH  38  42
HETATM   42  O   UNK N   1      31.933  15.695   3.028  0.00  0.00    -0.390 OA
HETATM   43  H   UNK N   1      32.482  14.899   2.952  0.00  0.00     0.210 HD
ENDBRANCH  38  42
BRANCH  39  44
HETATM   44  O   UNK N   1      29.336  17.295   3.043  0.00  0.00    -0.388 OA
HETATM   45  H   UNK N   1      28.875  18.069   3.404  0.00  0.00     0.210 HD
ENDBRANCH  39  44
BRANCH  40  46
HETATM   46  N   UNK N   1      28.842  16.972   5.904  0.00  0.00    -0.336 N 
HETATM   47  C   UNK N   1      28.079  18.052   5.566  0.00  0.00     0.093 A 
HETATM   48  C   UNK N   1      27.864  19.087   6.481  0.00  0.00     0.018 A 
HETATM   49  C   UNK N   1      28.422  19.006   7.755  0.00  0.00     0.018 A 
HETATM   50  C   UNK N   1      29.210  17.906   8.099  0.00  0.00     0.030 A 
HETATM   51  C   UNK N   1      29.404  16.894   7.150  0.00  0.00     0.108 A 
BRANCH  50  52
HETATM   52  C   UNK N   1      29.801  17.800   9.451  0.00  0.00     0.145 C 
HETATM   53  N   UNK N   1      30.415  16.732   9.811  0.00  0.00    -0.379 N 
HETATM   54  H   UNK N   1      30.594  16.551  10.762  0.00  0.00     0.158 HD
ATOM     55  HN  UNK N   1      30.719  16.062   9.104  1.00  0.00     0.158 HD
BRANCH  52  56
HETATM   56  O   UNK N   1      29.691  18.823  10.321  0.00  0.00    -0.346 OA
HETATM   57  H   UNK N   1      29.845  18.711  11.239  0.00  0.00     0.219 HD
ENDBRANCH  52  56
ENDBRANCH  50  52
ENDBRANCH  40  46
ENDBRANCH  36  37
ENDBRANCH  35  36
ENDBRANCH  31  35
ENDBRANCH  30  31
ENDBRANCH   3  30
TORSDOF 17
ENDMDL
MODEL 2
REMARK VINA RESULT:      -8.0      3.886      6.448
REMARK  17 active torsions:
REMARK  status: ('A' for Active; 'I' for Inactive)
REMARK    1  A    between atoms: C_12  and  C_7 
REMARK    2  A    between atoms: O_44  and  C_7 
REMARK    3  A    between atoms: C_13  and  C_8 
REMARK    4  A    between atoms: O_45  and  C_8 
REMARK    5  A    between atoms: C_19  and  C_11 
REMARK    6  A    between atoms: C_15  and  O_35 
REMARK    7  A    between atoms: C_16  and  O_36 
REMARK    8  A    between atoms: C_17  and  O_37 
REMARK    9  A    between atoms: C_18  and  O_38 
REMARK   10  A    between atoms: O_39  and  C_19 
REMARK   11  A    between atoms: C_22  and  N_32 
REMARK   12  A    between atoms: C_23  and  N_34 
REMARK   13  A    between atoms: P_49  and  O_41 
REMARK   14  A    between atoms: P_49  and  O_44 
REMARK   15  A    between atoms: P_50  and  O_45 
REMARK   16  A    between atoms: P_49  and  O_48 
REMARK   17  A    between atoms: P_50  and  O_48 
ROOT
HETATM    1  O   UNK N   1      33.299  15.300   2.477  0.00  0.00    -0.624 OA
HETATM    2  O   UNK N   1      34.056  13.948   4.666  0.00  0.00    -0.624 OA
HETATM    3  P   UNK N   1      33.096  15.244   4.014  0.00  0.00     0.417 P 
ENDROOT
BRANCH   3   4
HETATM    4  O   UNK N   1      33.618  16.765   4.680  0.00  0.00    -0.287 OA
BRANCH   4   5
HETATM    5  C   UNK N   1      33.901  16.493   6.027  0.00  0.00     0.216 C 
BRANCH   5   6
HETATM    6  C   UNK N   1      33.396  17.570   7.030  0.00  0.00     0.180 C 
HETATM    7  C   UNK N   1      32.090  17.127   7.651  0.00  0.00     0.182 C 
HETATM    8  C   UNK N   1      32.642  16.159   8.665  0.00  0.00     0.198 C 
HETATM    9  C   UNK N   1      33.794  17.014   9.193  0.00  0.00     0.262 C 
HETATM   10  O   UNK N   1      34.313  17.735   8.086  0.00  0.00    -0.353 OA
BRANCH   7  11
HETATM   11  O   UNK N   1      31.490  18.222   8.292  0.00  0.00    -0.390 OA
HETATM   12  H   UNK N   1      31.373  18.937   8.939  0.00  0.00     0.210 HD
ENDBRANCH   7  11
BRANCH   8  13
HETATM   13  O   UNK N   1      31.708  15.808   9.643  0.00  0.00    -0.388 OA
HETATM   14  H   UNK N   1      31.531  14.880   9.859  0.00  0.00     0.210 HD
ENDBRANCH   8  13
BRANCH   9  15
HETATM   15  N   UNK N   1      34.866  16.267   9.853  0.00  0.00    -0.297 N 
HETATM   16  C   UNK N   1      35.427  16.505  11.071  0.00  0.00     0.188 A 
HETATM   17  N   UNK N   1      36.515  15.703  11.283  0.00  0.00    -0.346 N 
HETATM   18  C   UNK N   1      36.607  14.965  10.159  0.00  0.00     0.123 A 
ATOM     19  HN  UNK N   1      37.118  15.672  12.105  1.00  0.00     0.167 HD
HETATM   20  C   UNK N   1      37.543  14.040   9.742  0.00  0.00     0.143 A 
HETATM   21  C   UNK N   1      35.603  15.287   9.317  0.00  0.00     0.142 A 
HETATM   22  N   UNK N   1      38.649  13.623  10.378  0.00  0.00    -0.349 N 
HETATM   23  N   UNK N   1      37.407  13.473   8.533  0.00  0.00    -0.301 N 
HETATM   24  C   UNK N   1      39.230  12.747   9.516  0.00  0.00     0.107 A 
ATOM     25  HN  UNK N   1      38.981  13.900  11.302  1.00  0.00     0.167 HD
HETATM   26  C   UNK N   1      38.448  12.654   8.364  0.00  0.00     0.116 A 
HETATM   27  C   UNK N   1      36.373  13.770   7.692  0.00  0.00     0.191 A 
HETATM   28  N   UNK N   1      35.455  14.707   8.085  0.00  0.00    -0.336 N 
ATOM     29  HN  UNK N   1      34.680  14.966   7.475  1.00  0.00     0.168 HD
ENDBRANCH   9  15
ENDBRANCH   5   6
ENDBRANCH   4   5
ENDBRANCH   3   4
BRANCH   3  30
HETATM   30  O   UNK N   1      31.419  15.144   4.472  0.00  0.00    -0.188 OA
BRANCH  30  31
HETATM   31  P   UNK N   1      30.541  16.606   4.214  0.00  0.00     0.402 P 
HETATM   32  O   UNK N   1      30.136  16.215   2.774  0.00  0.00    -0.631 OA
BRANCH  31  33
HETATM   33  O   UNK N   1      31.403  18.043   3.755  0.00  0.00    -0.307 OA
HETATM   34  H   UNK N   1      32.315  18.179   4.056  0.00  0.00     0.222 HD
ENDBRANCH  31  33
BRANCH  31  35
HETATM   35  O   UNK N   1      28.908  16.707   4.783  0.00  0.00    -0.294 OA
BRANCH  35  36
HETATM   36  C   UNK N   1      28.261  17.634   3.978  0.00  0.00     0.215 C 
BRANCH  36  37
HETATM   37  C   UNK N   1      28.273  19.023   4.617  0.00  0.00     0.180 C 
HETATM   38  C   UNK N   1      27.623  19.033   6.008  0.00  0.00     0.182 C 
HETATM   39  C   UNK N   1      26.986  20.383   5.994  0.00  0.00     0.198 C 
HETATM   40  C   UNK N   1      26.495  20.444   4.548  0.00  0.00     0.259 C 
HETATM   41  O   UNK N   1      27.555  19.912   3.778  0.00  0.00    -0.353 OA
BRANCH  38  42
HETATM   42  O   UNK N   1      28.565  18.903   7.035  0.00  0.00    -0.390 OA
HETATM   43  H   UNK N   1      29.493  19.180   6.982  0.00  0.00     0.210 HD
ENDBRANCH  38  42
BRANCH  39  44
HETATM   44  O   UNK N   1      25.987  20.533   6.959  0.00  0.00    -0.388 OA
HETATM   45  H   UNK N   1      25.235  19.957   7.167  0.00  0.00     0.210 HD
ENDBRANCH  39  44
BRANCH  40  46
HETATM   46  N   UNK N   1      25.239  19.718   4.256  0.00  0.00    -0.336 N 
HETATM   47  C   UNK N   1      25.025  18.492   4.815  0.00  0.00     0.093 A 
HETATM   48  C   UNK N   1      23.792  17.849   4.674  0.00  0.00     0.018 A 
HETATM   49  C   UNK N   1      22.767  18.474   3.967  0.00  0.00     0.018 A 
HETATM   50  C   UNK N   1      22.986  19.724   3.386  0.00  0.00     0.030 A 
HETATM   51  C   UNK N   1      24.239  20.331   3.548  0.00  0.00     0.108 A 
BRANCH  50  52
HETATM   52  C   UNK N   1      21.905  20.406   2.641  0.00  0.00     0.145 C 
HETATM   53  N   UNK N   1      21.054  19.726   1.963  0.00  0.00    -0.379 N 
HETATM   54  H   UNK N   1      20.493  20.160   1.279  0.00  0.00     0.158 HD
ATOM     55  HN  UNK N   1      20.958  18.725   2.132  1.00  0.00     0.158 HD
BRANCH  52  56
HETATM   56  O   UNK N   1      21.812  21.750   2.662  0.00  0.00    -0.346 OA
HETATM   57  H   UNK N   1      21.197  22.195   3.212  0.00  0.00     0.219 HD
ENDBRANCH  52  56
ENDBRANCH  50  52
ENDBRANCH  40  46
ENDBRANCH  36  37
ENDBRANCH  35  36
ENDBRANCH  31  35
ENDBRANCH  30  31
ENDBRANCH   3  30
TORSDOF 17
ENDMDL
MODEL 3
REMARK VINA RESULT:      -7.9      6.218     11.577
REMARK  17 active torsions:
REMARK  status: ('A' for Active; 'I' for Inactive)
REMARK    1  A    between atoms: C_12  and  C_7 
REMARK    2  A    between atoms: O_44  and  C_7 
REMARK    3  A    between atoms: C_13  and  C_8 
REMARK    4  A    between atoms: O_45  and  C_8 
REMARK    5  A    between atoms: C_19  and  C_11 
REMARK    6  A    between atoms: C_15  and  O_35 
REMARK    7  A    between atoms: C_16  and  O_36 
REMARK    8  A    between atoms: C_17  and  O_37 
REMARK    9  A    between atoms: C_18  and  O_38 
REMARK   10  A    between atoms: O_39  and  C_19 
REMARK   11  A    between atoms: C_22  and  N_32 
REMARK   12  A    between atoms: C_23  and  N_34 
REMARK   13  A    between atoms: P_49  and  O_41 
REMARK   14  A    between atoms: P_49  and  O_44 
REMARK   15  A    between atoms: P_50  and  O_45 
REMARK   16  A    between atoms: P_49  and  O_48 
REMARK   17  A    between atoms: P_50  and  O_48 
ROOT
HETATM    1  O   UNK N   1      24.139  18.578   3.104  0.00  0.00    -0.624 OA
HETATM    2  O   UNK N   1      25.061  20.640   1.659  0.00  0.00    -0.624 OA
HETATM    3  P   UNK N   1      24.340  20.114   3.153  0.00  0.00     0.417 P 
ENDROOT
BRANCH   3   4
HETATM    4  O   UNK N   1      22.777  20.854   3.353  0.00  0.00    -0.287 OA
BRANCH   4   5
HETATM    5  C   UNK N   1      21.924  20.136   2.501  0.00  0.00     0.216 C 
BRANCH   5   6
HETATM    6  C   UNK N   1      20.481  19.930   3.045  0.00  0.00     0.180 C 
HETATM    7  C   UNK N   1      19.756  18.894   2.214  0.00  0.00     0.182 C 
HETATM    8  C   UNK N   1      20.370  17.656   2.815  0.00  0.00     0.198 C 
HETATM    9  C   UNK N   1      20.269  18.046   4.291  0.00  0.00     0.262 C 
HETATM   10  O   UNK N   1      20.512  19.443   4.365  0.00  0.00    -0.353 OA
BRANCH   7  11
HETATM   11  O   UNK N   1      18.384  18.952   2.500  0.00  0.00    -0.390 OA
HETATM   12  H   UNK N   1      17.575  19.080   3.021  0.00  0.00     0.210 HD
ENDBRANCH   7  11
BRANCH   8  13
HETATM   13  O   UNK N   1      19.669  16.493   2.492  0.00  0.00    -0.388 OA
HETATM   14  H   UNK N   1      18.801  16.304   2.879  0.00  0.00     0.210 HD
ENDBRANCH   8  13
BRANCH   9  15
HETATM   15  N   UNK N   1      21.181  17.329   5.183  0.00  0.00    -0.297 N 
HETATM   16  C   UNK N   1      22.394  17.737   5.647  0.00  0.00     0.188 A 
HETATM   17  N   UNK N   1      23.033  16.734   6.322  0.00  0.00    -0.346 N 
HETATM   18  C   UNK N   1      22.176  15.695   6.260  0.00  0.00     0.123 A 
ATOM     19  HN  UNK N   1      23.948  16.765   6.770  1.00  0.00     0.167 HD
HETATM   20  C   UNK N   1      22.288  14.386   6.684  0.00  0.00     0.143 A 
HETATM   21  C   UNK N   1      21.058  16.064   5.600  0.00  0.00     0.142 A 
HETATM   22  N   UNK N   1      23.324  13.788   7.292  0.00  0.00    -0.349 N 
HETATM   23  N   UNK N   1      21.274  13.537   6.454  0.00  0.00    -0.301 N 
HETATM   24  C   UNK N   1      22.930  12.497   7.450  0.00  0.00     0.107 A 
ATOM     25  HN  UNK N   1      24.210  14.208   7.574  1.00  0.00     0.167 HD
HETATM   26  C   UNK N   1      21.645  12.345   6.926  0.00  0.00     0.116 A 
HETATM   27  C   UNK N   1      20.126  13.914   5.818  0.00  0.00     0.191 A 
HETATM   28  N   UNK N   1      20.018  15.203   5.369  0.00  0.00    -0.336 N 
ATOM     29  HN  UNK N   1      19.182  15.515   4.874  1.00  0.00     0.168 HD
ENDBRANCH   9  15
ENDBRANCH   5   6
ENDBRANCH   4   5
ENDBRANCH   3   4
BRANCH   3  30
HETATM   30  O   UNK N   1      25.229  20.637   4.556  0.00  0.00    -0.188 OA
BRANCH  30  31
HETATM   31  P   UNK N   1      26.275  19.428   5.205  0.00  0.00     0.402 P 
HETATM   32  O   UNK N   1      27.048  19.257   3.876  0.00  0.00    -0.631 OA
BRANCH  31  33
HETATM   33  O   UNK N   1      25.723  17.784   5.284  0.00  0.00    -0.307 OA
HETATM   34  H   UNK N   1      24.869  17.539   4.894  0.00  0.00     0.222 HD
ENDBRANCH  31  33
BRANCH  31  35
HETATM   35  O   UNK N   1      27.670  19.930   6.100  0.00  0.00    -0.294 OA
BRANCH  35  36
HETATM   36  C   UNK N   1      28.613  18.919   5.971  0.00  0.00     0.215 C 
BRANCH  36  37
HETATM   37  C   UNK N   1      28.415  17.842   7.038  0.00  0.00     0.180 C 
HETATM   38  C   UNK N   1      29.043  18.230   8.385  0.00  0.00     0.182 C 
HETATM   39  C   UNK N   1      29.502  16.893   8.861  0.00  0.00     0.198 C 
HETATM   40  C   UNK N   1      29.997  16.286   7.549  0.00  0.00     0.259 C 
HETATM   41  O   UNK N   1      29.023  16.644   6.588  0.00  0.00    -0.353 OA
BRANCH  38  42
HETATM   42  O   UNK N   1      28.114  18.812   9.256  0.00  0.00    -0.390 OA
HETATM   43  H   UNK N   1      28.171  19.709   9.618  0.00  0.00     0.210 HD
ENDBRANCH  38  42
BRANCH  39  44
HETATM   44  O   UNK N   1      30.462  16.965   9.872  0.00  0.00    -0.388 OA
HETATM   45  H   UNK N   1      30.889  17.741  10.268  0.00  0.00     0.210 HD
ENDBRANCH  39  44
BRANCH  40  46
HETATM   46  N   UNK N   1      31.340  16.717   7.097  0.00  0.00    -0.336 N 
HETATM   47  C   UNK N   1      31.581  16.879   5.764  0.00  0.00     0.093 A 
HETATM   48  C   UNK N   1      32.789  17.422   5.318  0.00  0.00     0.018 A 
HETATM   49  C   UNK N   1      33.750  17.816   6.247  0.00  0.00     0.018 A 
HETATM   50  C   UNK N   1      33.510  17.643   7.611  0.00  0.00     0.030 A 
HETATM   51  C   UNK N   1      32.287  17.090   8.014  0.00  0.00     0.108 A 
BRANCH  50  52
HETATM   52  C   UNK N   1      34.515  18.065   8.611  0.00  0.00     0.145 C 
HETATM   53  N   UNK N   1      34.650  17.418   9.711  0.00  0.00    -0.379 N 
HETATM   54  H   UNK N   1      35.127  17.818  10.474  0.00  0.00     0.158 HD
ATOM     55  HN  UNK N   1      34.258  16.481   9.797  1.00  0.00     0.158 HD
BRANCH  52  56
HETATM   56  O   UNK N   1      35.292  19.141   8.377  0.00  0.00    -0.346 OA
HETATM   57  H   UNK N   1      35.971  19.130   7.730  0.00  0.00     0.219 HD
ENDBRANCH  52  56
ENDBRANCH  50  52
ENDBRANCH  40  46
ENDBRANCH  36  37
ENDBRANCH  35  36
ENDBRANCH  31  35
ENDBRANCH  30  31
ENDBRANCH   3  30
TORSDOF 17
ENDMDL
MODEL 4
REMARK VINA RESULT:      -7.8      3.912     10.012
REMARK  17 active torsions:
REMARK  status: ('A' for Active; 'I' for Inactive)
REMARK    1  A    between atoms: C_12  and  C_7 
REMARK    2  A    between atoms: O_44  and  C_7 
REMARK    3  A    between atoms: C_13  and  C_8 
REMARK    4  A    between atoms: O_45  and  C_8 
REMARK    5  A    between atoms: C_19  and  C_11 
REMARK    6  A    between atoms: C_15  and  O_35 
REMARK    7  A    between atoms: C_16  and  O_36 
REMARK    8  A    between atoms: C_17  and  O_37 
REMARK    9  A    between atoms: C_18  and  O_38 
REMARK   10  A    between atoms: O_39  and  C_19 
REMARK   11  A    between atoms: C_22  and  N_32 
REMARK   12  A    between atoms: C_23  and  N_34 
REMARK   13  A    between atoms: P_49  and  O_41 
REMARK   14  A    between atoms: P_49  and  O_44 
REMARK   15  A    between atoms: P_50  and  O_45 
REMARK   16  A    between atoms: P_49  and  O_48 
REMARK   17  A    between atoms: P_50  and  O_48 
ROOT
HETATM    1  O   UNK N   1      33.401  10.200   8.695  0.00  0.00    -0.624 OA
HETATM    2  O   UNK N   1      34.715  11.684   6.889  0.00  0.00    -0.624 OA
HETATM    3  P   UNK N   1      34.053  11.593   8.495  0.00  0.00     0.417 P 
ENDROOT
BRANCH   3   4
HETATM    4  O   UNK N   1      32.814  12.800   8.698  0.00  0.00    -0.287 OA
BRANCH   4   5
HETATM    5  C   UNK N   1      33.356  13.972   8.149  0.00  0.00     0.216 C 
BRANCH   5   6
HETATM    6  C   UNK N   1      33.121  15.256   8.993  0.00  0.00     0.180 C 
HETATM    7  C   UNK N   1      34.296  16.198   8.843  0.00  0.00     0.182 C 
HETATM    8  C   UNK N   1      33.946  16.780   7.499  0.00  0.00     0.198 C 
HETATM    9  C   UNK N   1      32.456  17.025   7.739  0.00  0.00     0.262 C 
HETATM   10  O   UNK N   1      31.985  15.951   8.537  0.00  0.00    -0.353 OA
BRANCH   7  11
HETATM   11  O   UNK N   1      34.228  17.183   9.840  0.00  0.00    -0.390 OA
HETATM   12  H   UNK N   1      34.298  17.580  10.723  0.00  0.00     0.210 HD
ENDBRANCH   7  11
BRANCH   8  13
HETATM   13  O   UNK N   1      34.667  17.940   7.207  0.00  0.00    -0.388 OA
HETATM   14  H   UNK N   1      34.335  18.592   6.571  0.00  0.00     0.210 HD
ENDBRANCH   8  13
BRANCH   9  15
HETATM   15  N   UNK N   1      31.645  17.143   6.525  0.00  0.00    -0.297 N 
HETATM   16  C   UNK N   1      32.066  17.113   5.230  0.00  0.00     0.188 A 
HETATM   17  N   UNK N   1      31.049  17.422   4.369  0.00  0.00    -0.346 N 
HETATM   18  C   UNK N   1      29.989  17.643   5.174  0.00  0.00     0.123 A 
ATOM     19  HN  UNK N   1      31.084  17.473   3.352  1.00  0.00     0.167 HD
HETATM   20  C   UNK N   1      28.705  18.068   4.903  0.00  0.00     0.143 A 
HETATM   21  C   UNK N   1      30.345  17.449   6.461  0.00  0.00     0.142 A 
HETATM   22  N   UNK N   1      28.159  18.386   3.719  0.00  0.00    -0.349 N 
HETATM   23  N   UNK N   1      27.848  18.245   5.922  0.00  0.00    -0.301 N 
HETATM   24  C   UNK N   1      26.892  18.778   4.019  0.00  0.00     0.107 A 
ATOM     25  HN  UNK N   1      28.596  18.341   2.798  1.00  0.00     0.167 HD
HETATM   26  C   UNK N   1      26.701  18.686   5.398  0.00  0.00     0.116 A 
HETATM   27  C   UNK N   1      28.192  18.016   7.223  0.00  0.00     0.191 A 
HETATM   28  N   UNK N   1      29.472  17.621   7.503  0.00  0.00    -0.336 N 
ATOM     29  HN  UNK N   1      29.770  17.458   8.465  1.00  0.00     0.168 HD
ENDBRANCH   9  15
ENDBRANCH   5   6
ENDBRANCH   4   5
ENDBRANCH   3   4
BRANCH   3  30
HETATM   30  O   UNK N   1      35.216  11.980   9.732  0.00  0.00    -0.188 OA
BRANCH  30  31
HETATM   31  P   UNK N   1      36.005  10.599  10.398  0.00  0.00     0.402 P 
HETATM   32  O   UNK N   1      37.417  11.203  10.210  0.00  0.00    -0.631 OA
BRANCH  31  33
HETATM   33  O   UNK N   1      36.287   9.214   9.389  0.00  0.00    -0.307 OA
HETATM   34  H   UNK N   1      36.639   8.396   9.774  0.00  0.00     0.222 HD
ENDBRANCH  31  33
BRANCH  31  35
HETATM   35  O   UNK N   1      36.148  10.474  12.120  0.00  0.00    -0.294 OA
BRANCH  35  36
HETATM   36  C   UNK N   1      35.016  11.071  12.659  0.00  0.00     0.215 C 
BRANCH  36  37
HETATM   37  C   UNK N   1      35.269  12.545  12.977  0.00  0.00     0.180 C 
HETATM   38  C   UNK N   1      36.715  12.809  13.422  0.00  0.00     0.182 C 
HETATM   39  C   UNK N   1      36.492  13.891  14.425  0.00  0.00     0.198 C 
HETATM   40  C   UNK N   1      35.209  13.395  15.089  0.00  0.00     0.259 C 
HETATM   41  O   UNK N   1      34.398  12.936  14.025  0.00  0.00    -0.353 OA
BRANCH  38  42
HETATM   42  O   UNK N   1      37.528  13.229  12.362  0.00  0.00    -0.390 OA
HETATM   43  H   UNK N   1      37.240  13.328  11.441  0.00  0.00     0.210 HD
ENDBRANCH  38  42
BRANCH  39  44
HETATM   44  O   UNK N   1      37.571  14.070  15.294  0.00  0.00    -0.388 OA
HETATM   45  H   UNK N   1      38.000  14.888  15.589  0.00  0.00     0.210 HD
ENDBRANCH  39  44
BRANCH  40  46
HETATM   46  N   UNK N   1      35.371  12.326  16.102  0.00  0.00    -0.336 N 
HETATM   47  C   UNK N   1      35.749  11.076  15.706  0.00  0.00     0.093 A 
HETATM   48  C   UNK N   1      36.049  10.089  16.649  0.00  0.00     0.018 A 
HETATM   49  C   UNK N   1      35.976  10.392  18.008  0.00  0.00     0.018 A 
HETATM   50  C   UNK N   1      35.580  11.667  18.415  0.00  0.00     0.030 A 
HETATM   51  C   UNK N   1      35.284  12.624  17.436  0.00  0.00     0.108 A 
BRANCH  50  52
HETATM   52  C   UNK N   1      35.508  12.007  19.853  0.00  0.00     0.145 C 
HETATM   53  N   UNK N   1      36.102  11.276  20.725  0.00  0.00    -0.379 N 
HETATM   54  H   UNK N   1      35.868  11.340  21.679  0.00  0.00     0.158 HD
ATOM     55  HN  UNK N   1      36.824  10.620  20.426  1.00  0.00     0.158 HD
BRANCH  52  56
HETATM   56  O   UNK N   1      34.807  13.082  20.260  0.00  0.00    -0.346 OA
HETATM   57  H   UNK N   1      33.870  13.078  20.297  0.00  0.00     0.219 HD
ENDBRANCH  52  56
ENDBRANCH  50  52
ENDBRANCH  40  46
ENDBRANCH  36  37
ENDBRANCH  35  36
ENDBRANCH  31  35
ENDBRANCH  30  31
ENDBRANCH   3  30
TORSDOF 17
ENDMDL
MODEL 5
REMARK VINA RESULT:      -7.7      3.953      6.240
REMARK  17 active torsions:
REMARK  status: ('A' for Active; 'I' for Inactive)
REMARK    1  A    between atoms: C_12  and  C_7 
REMARK    2  A    between atoms: O_44  and  C_7 
REMARK    3  A    between atoms: C_13  and  C_8 
REMARK    4  A    between atoms: O_45  and  C_8 
REMARK    5  A    between atoms: C_19  and  C_11 
REMARK    6  A    between atoms: C_15  and  O_35 
REMARK    7  A    between atoms: C_16  and  O_36 
REMARK    8  A    between atoms: C_17  and  O_37 
REMARK    9  A    between atoms: C_18  and  O_38 
REMARK   10  A    between atoms: O_39  and  C_19 
REMARK   11  A    between atoms: C_22  and  N_32 
REMARK   12  A    between atoms: C_23  and  N_34 
REMARK   13  A    between atoms: P_49  and  O_41 
REMARK   14  A    between atoms: P_49  and  O_44 
REMARK   15  A    between atoms: P_50  and  O_45 
REMARK   16  A    between atoms: P_49  and  O_48 
REMARK   17  A    between atoms: P_50  and  O_48 
ROOT
HETATM    1  O   UNK N   1      35.737   9.310  11.946  0.00  0.00    -0.624 OA
HETATM    2  O   UNK N   1      33.322   8.682  10.963  0.00  0.00    -0.624 OA
HETATM    3  P   UNK N   1      34.338   9.913  11.655  0.00  0.00     0.417 P 
ENDROOT
BRANCH   3   4
HETATM    4  O   UNK N   1      33.666  10.462  13.164  0.00  0.00    -0.287 OA
BRANCH   4   5
HETATM    5  C   UNK N   1      34.775  10.811  13.949  0.00  0.00     0.216 C 
BRANCH   5   6
HETATM    6  C   UNK N   1      34.605  12.119  14.774  0.00  0.00     0.180 C 
HETATM    7  C   UNK N   1      35.789  12.308  15.697  0.00  0.00     0.182 C 
HETATM    8  C   UNK N   1      36.775  12.839  14.690  0.00  0.00     0.198 C 
HETATM    9  C   UNK N   1      35.858  13.833  13.976  0.00  0.00     0.262 C 
HETATM   10  O   UNK N   1      34.569  13.241  13.925  0.00  0.00    -0.353 OA
BRANCH   7  11
HETATM   11  O   UNK N   1      35.479  13.291  16.649  0.00  0.00    -0.390 OA
HETATM   12  H   UNK N   1      35.237  13.671  17.509  0.00  0.00     0.210 HD
ENDBRANCH   7  11
BRANCH   8  13
HETATM   13  O   UNK N   1      37.891  13.430  15.285  0.00  0.00    -0.388 OA
HETATM   14  H   UNK N   1      38.477  12.925  15.869  0.00  0.00     0.210 HD
ENDBRANCH   8  13
BRANCH   9  15
HETATM   15  N   UNK N   1      36.290  14.215  12.630  0.00  0.00    -0.297 N 
HETATM   16  C   UNK N   1      36.034  15.376  11.966  0.00  0.00     0.188 A 
HETATM   17  N   UNK N   1      36.456  15.309  10.667  0.00  0.00    -0.346 N 
HETATM   18  C   UNK N   1      36.979  14.072  10.551  0.00  0.00     0.123 A 
ATOM     19  HN  UNK N   1      36.389  16.031   9.949  1.00  0.00     0.167 HD
HETATM   20  C   UNK N   1      37.490  13.389   9.466  0.00  0.00     0.143 A 
HETATM   21  C   UNK N   1      36.902  13.431  11.736  0.00  0.00     0.142 A 
HETATM   22  N   UNK N   1      37.597  13.799   8.193  0.00  0.00    -0.349 N 
HETATM   23  N   UNK N   1      37.917  12.127   9.632  0.00  0.00    -0.301 N 
HETATM   24  C   UNK N   1      38.123  12.733   7.533  0.00  0.00     0.107 A 
ATOM     25  HN  UNK N   1      37.343  14.708   7.806  1.00  0.00     0.167 HD
HETATM   26  C   UNK N   1      38.324  11.690   8.437  0.00  0.00     0.116 A 
HETATM   27  C   UNK N   1      37.873  11.486  10.836  0.00  0.00     0.191 A 
HETATM   28  N   UNK N   1      37.343  12.146  11.912  0.00  0.00    -0.336 N 
ATOM     29  HN  UNK N   1      37.278  11.691  12.823  1.00  0.00     0.168 HD
ENDBRANCH   9  15
ENDBRANCH   5   6
ENDBRANCH   4   5
ENDBRANCH   3   4
BRANCH   3  30
HETATM   30  O   UNK N   1      34.413  11.356  10.684  0.00  0.00    -0.188 OA
BRANCH  30  31
HETATM   31  P   UNK N   1      34.301  11.058   8.988  0.00  0.00     0.402 P 
HETATM   32  O   UNK N   1      32.767  11.252   8.964  0.00  0.00    -0.631 OA
BRANCH  31  33
HETATM   33  O   UNK N   1      34.265   9.419   8.417  0.00  0.00    -0.307 OA
HETATM   34  H   UNK N   1      35.085   8.986   8.132  0.00  0.00     0.222 HD
ENDBRANCH  31  33
BRANCH  31  35
HETATM   35  O   UNK N   1      34.612  12.363   7.893  0.00  0.00    -0.294 OA
BRANCH  35  36
HETATM   36  C   UNK N   1      33.516  13.213   7.962  0.00  0.00     0.215 C 
BRANCH  36  37
HETATM   37  C   UNK N   1      33.872  14.514   8.682  0.00  0.00     0.180 C 
HETATM   38  C   UNK N   1      32.663  15.447   8.838  0.00  0.00     0.182 C 
HETATM   39  C   UNK N   1      33.329  16.774   8.691  0.00  0.00     0.198 C 
HETATM   40  C   UNK N   1      34.341  16.457   7.591  0.00  0.00     0.259 C 
HETATM   41  O   UNK N   1      34.866  15.188   7.930  0.00  0.00    -0.353 OA
BRANCH  38  42
HETATM   42  O   UNK N   1      32.039  15.304  10.083  0.00  0.00    -0.390 OA
HETATM   43  H   UNK N   1      31.929  14.467  10.561  0.00  0.00     0.210 HD
ENDBRANCH  38  42
BRANCH  39  44
HETATM   44  O   UNK N   1      32.441  17.809   8.389  0.00  0.00    -0.388 OA
HETATM   45  H   UNK N   1      31.507  17.915   8.629  0.00  0.00     0.210 HD
ENDBRANCH  39  44
BRANCH  40  46
HETATM   46  N   UNK N   1      33.814  16.435   6.207  0.00  0.00    -0.336 N 
HETATM   47  C   UNK N   1      33.139  17.521   5.728  0.00  0.00     0.093 A 
HETATM   48  C   UNK N   1      32.757  17.587   4.385  0.00  0.00     0.018 A 
HETATM   49  C   UNK N   1      33.082  16.540   3.525  0.00  0.00     0.018 A 
HETATM   50  C   UNK N   1      33.764  15.425   4.015  0.00  0.00     0.030 A 
HETATM   51  C   UNK N   1      34.124  15.398   5.369  0.00  0.00     0.108 A 
BRANCH  50  52
HETATM   52  C   UNK N   1      34.126  14.310   3.112  0.00  0.00     0.145 C 
HETATM   53  N   UNK N   1      34.234  14.506   1.848  0.00  0.00    -0.379 N 
HETATM   54  H   UNK N   1      34.231  13.747   1.220  0.00  0.00     0.158 HD
ATOM     55  HN  UNK N   1      34.323  15.457   1.490  1.00  0.00     0.158 HD
BRANCH  52  56
HETATM   56  O   UNK N   1      34.335  13.076   3.610  0.00  0.00    -0.346 OA
HETATM   57  H   UNK N   1      34.723  12.941   4.453  0.00  0.00     0.219 HD
ENDBRANCH  52  56
ENDBRANCH  50  52
ENDBRANCH  40  46
ENDBRANCH  36  37
ENDBRANCH  35  36
ENDBRANCH  31  35
ENDBRANCH  30  31
ENDBRANCH   3  30
TORSDOF 17
ENDMDL
MODEL 6
REMARK VINA RESULT:      -7.7      2.528      9.533
REMARK  17 active torsions:
REMARK  status: ('A' for Active; 'I' for Inactive)
REMARK    1  A    between atoms: C_12  and  C_7 
REMARK    2  A    between atoms: O_44  and  C_7 
REMARK    3  A    between atoms: C_13  and  C_8 
REMARK    4  A    between atoms: O_45  and  C_8 
REMARK    5  A    between atoms: C_19  and  C_11 
REMARK    6  A    between atoms: C_15  and  O_35 
REMARK    7  A    between atoms: C_16  and  O_36 
REMARK    8  A    between atoms: C_17  and  O_37 
REMARK    9  A    between atoms: C_18  and  O_38 
REMARK   10  A    between atoms: O_39  and  C_19 
REMARK   11  A    between atoms: C_22  and  N_32 
REMARK   12  A    between atoms: C_23  and  N_34 
REMARK   13  A    between atoms: P_49  and  O_41 
REMARK   14  A    between atoms: P_49  and  O_44 
REMARK   15  A    between atoms: P_50  and  O_45 
REMARK   16  A    between atoms: P_49  and  O_48 
REMARK   17  A    between atoms: P_50  and  O_48 
ROOT
HETATM    1  O   UNK N   1      35.587  12.476   6.829  0.00  0.00    -0.624 OA
HETATM    2  O   UNK N   1      37.903  13.636   7.523  0.00  0.00    -0.624 OA
HETATM    3  P   UNK N   1      36.190  13.518   7.806  0.00  0.00     0.417 P 
ENDROOT
BRANCH   3   4
HETATM    4  O   UNK N   1      35.428  15.052   7.493  0.00  0.00    -0.287 OA
BRANCH   4   5
HETATM    5  C   UNK N   1      34.171  14.730   6.959  0.00  0.00     0.216 C 
BRANCH   5   6
HETATM    6  C   UNK N   1      33.067  14.443   8.016  0.00  0.00     0.180 C 
HETATM    7  C   UNK N   1      33.068  15.526   9.073  0.00  0.00     0.182 C 
HETATM    8  C   UNK N   1      32.330  16.590   8.303  0.00  0.00     0.198 C 
HETATM    9  C   UNK N   1      31.215  15.719   7.723  0.00  0.00     0.262 C 
HETATM   10  O   UNK N   1      31.792  14.459   7.420  0.00  0.00    -0.353 OA
BRANCH   7  11
HETATM   11  O   UNK N   1      32.308  15.098  10.173  0.00  0.00    -0.390 OA
HETATM   12  H   UNK N   1      31.799  15.160  10.997  0.00  0.00     0.210 HD
ENDBRANCH   7  11
BRANCH   8  13
HETATM   13  O   UNK N   1      31.869  17.627   9.117  0.00  0.00    -0.388 OA
HETATM   14  H   UNK N   1      31.893  17.556  10.084  0.00  0.00     0.210 HD
ENDBRANCH   8  13
BRANCH   9  15
HETATM   15  N   UNK N   1      30.555  16.268   6.537  0.00  0.00    -0.297 N 
HETATM   16  C   UNK N   1      30.860  16.045   5.229  0.00  0.00     0.188 A 
HETATM   17  N   UNK N   1      30.136  16.859   4.402  0.00  0.00    -0.346 N 
HETATM   18  C   UNK N   1      29.376  17.591   5.241  0.00  0.00     0.123 A 
ATOM     19  HN  UNK N   1      30.165  16.902   3.384  1.00  0.00     0.167 HD
HETATM   20  C   UNK N   1      28.502  18.635   5.013  0.00  0.00     0.143 A 
HETATM   21  C   UNK N   1      29.611  17.216   6.516  0.00  0.00     0.142 A 
HETATM   22  N   UNK N   1      28.174  19.213   3.847  0.00  0.00    -0.349 N 
HETATM   23  N   UNK N   1      27.896  19.218   6.059  0.00  0.00    -0.301 N 
HETATM   24  C   UNK N   1      27.314  20.209   4.190  0.00  0.00     0.107 A 
ATOM     25  HN  UNK N   1      28.496  18.961   2.913  1.00  0.00     0.167 HD
HETATM   26  C   UNK N   1      27.141  20.207   5.574  0.00  0.00     0.116 A 
HETATM   27  C   UNK N   1      28.103  18.819   7.348  0.00  0.00     0.191 A 
HETATM   28  N   UNK N   1      28.990  17.803   7.586  0.00  0.00    -0.336 N 
ATOM     29  HN  UNK N   1      29.183  17.491   8.538  1.00  0.00     0.168 HD
ENDBRANCH   9  15
ENDBRANCH   5   6
ENDBRANCH   4   5
ENDBRANCH   3   4
BRANCH   3  30
HETATM   30  O   UNK N   1      35.799  13.192   9.471  0.00  0.00    -0.188 OA
BRANCH  30  31
HETATM   31  P   UNK N   1      36.865  13.949  10.596  0.00  0.00     0.402 P 
HETATM   32  O   UNK N   1      35.925  15.158  10.810  0.00  0.00    -0.631 OA
BRANCH  31  33
HETATM   33  O   UNK N   1      38.200  14.887   9.999  0.00  0.00    -0.307 OA
HETATM   34  H   UNK N   1      38.247  15.121   9.059  0.00  0.00     0.222 HD
ENDBRANCH  31  33
BRANCH  31  35
HETATM   35  O   UNK N   1      36.813  13.451  12.254  0.00  0.00    -0.294 OA
BRANCH  35  36
HETATM   36  C   UNK N   1      35.727  14.096  12.831  0.00  0.00     0.215 C 
BRANCH  36  37
HETATM   37  C   UNK N   1      35.604  13.747  14.315  0.00  0.00     0.180 C 
HETATM   38  C   UNK N   1      36.796  12.925  14.824  0.00  0.00     0.182 C 
HETATM   39  C   UNK N   1      36.109  12.042  15.811  0.00  0.00     0.198 C 
HETATM   40  C   UNK N   1      34.808  11.750  15.066  0.00  0.00     0.259 C 
HETATM   41  O   UNK N   1      34.421  12.988  14.503  0.00  0.00    -0.353 OA
BRANCH  38  42
HETATM   42  O   UNK N   1      37.776  13.726  15.422  0.00  0.00    -0.390 OA
HETATM   43  H   UNK N   1      38.179  13.564  16.289  0.00  0.00     0.210 HD
ENDBRANCH  38  42
BRANCH  39  44
HETATM   44  O   UNK N   1      36.854  10.912  16.155  0.00  0.00    -0.388 OA
HETATM   45  H   UNK N   1      36.597  10.135  16.678  0.00  0.00     0.210 HD
ENDBRANCH  39  44
BRANCH  40  46
HETATM   46  N   UNK N   1      34.881  10.713  14.011  0.00  0.00    -0.336 N 
HETATM   47  C   UNK N   1      35.461   9.509  14.291  0.00  0.00     0.093 A 
HETATM   48  C   UNK N   1      35.415   8.463  13.364  0.00  0.00     0.018 A 
HETATM   49  C   UNK N   1      34.757   8.648  12.150  0.00  0.00     0.018 A 
HETATM   50  C   UNK N   1      34.172   9.881  11.858  0.00  0.00     0.030 A 
HETATM   51  C   UNK N   1      34.245  10.904  12.814  0.00  0.00     0.108 A 
BRANCH  50  52
HETATM   52  C   UNK N   1      33.461  10.091  10.578  0.00  0.00     0.145 C 
HETATM   53  N   UNK N   1      33.395  11.261  10.054  0.00  0.00    -0.379 N 
HETATM   54  H   UNK N   1      32.735  11.461   9.351  0.00  0.00     0.158 HD
ATOM     55  HN  UNK N   1      34.031  11.992  10.371  1.00  0.00     0.158 HD
BRANCH  52  56
HETATM   56  O   UNK N   1      32.867   9.054   9.955  0.00  0.00    -0.346 OA
HETATM   57  H   UNK N   1      32.933   8.177  10.281  0.00  0.00     0.219 HD
ENDBRANCH  52  56
ENDBRANCH  50  52
ENDBRANCH  40  46
ENDBRANCH  36  37
ENDBRANCH  35  36
ENDBRANCH  31  35
ENDBRANCH  30  31
ENDBRANCH   3  30
TORSDOF 17
ENDMDL
MODEL 7
REMARK VINA RESULT:      -7.6      3.326      9.457
REMARK  17 active torsions:
REMARK  status: ('A' for Active; 'I' for Inactive)
REMARK    1  A    between atoms: C_12  and  C_7 
REMARK    2  A    between atoms: O_44  and  C_7 
REMARK    3  A    between atoms: C_13  and  C_8 
REMARK    4  A    between atoms: O_45  and  C_8 
REMARK    5  A    between atoms: C_19  and  C_11 
REMARK    6  A    between atoms: C_15  and  O_35 
REMARK    7  A    between atoms: C_16  and  O_36 
REMARK    8  A    between atoms: C_17  and  O_37 
REMARK    9  A    between atoms: C_18  and  O_38 
REMARK   10  A    between atoms: O_39  and  C_19 
REMARK   11  A    between atoms: C_22  and  N_32 
REMARK   12  A    between atoms: C_23  and  N_34 
REMARK   13  A    between atoms: P_49  and  O_41 
REMARK   14  A    between atoms: P_49  and  O_44 
REMARK   15  A    between atoms: P_50  and  O_45 
REMARK   16  A    between atoms: P_49  and  O_48 
REMARK   17  A    between atoms: P_50  and  O_48 
ROOT
HETATM    1  O   UNK N   1      33.680  13.181   9.001  0.00  0.00    -0.624 OA
HETATM    2  O   UNK N   1      36.001  13.718   7.768  0.00  0.00    -0.624 OA
HETATM    3  P   UNK N   1      34.451  14.319   8.282  0.00  0.00     0.417 P 
ENDROOT
BRANCH   3   4
HETATM    4  O   UNK N   1      33.515  14.811   6.899  0.00  0.00    -0.287 OA
BRANCH   4   5
HETATM    5  C   UNK N   1      34.290  14.447   5.788  0.00  0.00     0.216 C 
BRANCH   5   6
HETATM    6  C   UNK N   1      34.110  15.358   4.541  0.00  0.00     0.180 C 
HETATM    7  C   UNK N   1      33.744  14.521   3.335  0.00  0.00     0.182 C 
HETATM    8  C   UNK N   1      32.283  14.317   3.640  0.00  0.00     0.198 C 
HETATM    9  C   UNK N   1      31.932  15.750   4.042  0.00  0.00     0.262 C 
HETATM   10  O   UNK N   1      33.054  16.269   4.738  0.00  0.00    -0.353 OA
BRANCH   7  11
HETATM   11  O   UNK N   1      33.901  15.292   2.173  0.00  0.00    -0.390 OA
HETATM   12  H   UNK N   1      33.701  15.965   1.502  0.00  0.00     0.210 HD
ENDBRANCH   7  11
BRANCH   8  13
HETATM   13  O   UNK N   1      31.561  13.848   2.541  0.00  0.00    -0.388 OA
HETATM   14  H   UNK N   1      30.795  13.264   2.653  0.00  0.00     0.210 HD
ENDBRANCH   8  13
BRANCH   9  15
HETATM   15  N   UNK N   1      30.726  15.884   4.862  0.00  0.00    -0.297 N 
HETATM   16  C   UNK N   1      29.440  15.605   4.513  0.00  0.00     0.188 A 
HETATM   17  N   UNK N   1      28.562  16.012   5.480  0.00  0.00    -0.346 N 
HETATM   18  C   UNK N   1      29.347  16.551   6.435  0.00  0.00     0.123 A 
ATOM     19  HN  UNK N   1      27.546  15.928   5.478  1.00  0.00     0.167 HD
HETATM   20  C   UNK N   1      29.044  17.201   7.614  0.00  0.00     0.143 A 
HETATM   21  C   UNK N   1      30.644  16.448   6.072  0.00  0.00     0.142 A 
HETATM   22  N   UNK N   1      27.837  17.476   8.132  0.00  0.00    -0.349 N 
HETATM   23  N   UNK N   1      30.044  17.679   8.371  0.00  0.00    -0.301 N 
HETATM   24  C   UNK N   1      28.104  18.162   9.276  0.00  0.00     0.107 A 
ATOM     25  HN  UNK N   1      26.923  17.226   7.754  1.00  0.00     0.167 HD
HETATM   26  C   UNK N   1      29.486  18.284   9.422  0.00  0.00     0.116 A 
HETATM   27  C   UNK N   1      31.359  17.547   8.026  0.00  0.00     0.191 A 
HETATM   28  N   UNK N   1      31.668  16.928   6.844  0.00  0.00    -0.336 N 
ATOM     29  HN  UNK N   1      32.638  16.827   6.546  1.00  0.00     0.168 HD
ENDBRANCH   9  15
ENDBRANCH   5   6
ENDBRANCH   4   5
ENDBRANCH   3   4
BRANCH   3  30
HETATM   30  O   UNK N   1      34.569  15.768   9.241  0.00  0.00    -0.188 OA
BRANCH  30  31
HETATM   31  P   UNK N   1      35.495  15.572  10.682  0.00  0.00     0.402 P 
HETATM   32  O   UNK N   1      35.258  17.030  11.140  0.00  0.00    -0.631 OA
BRANCH  31  33
HETATM   33  O   UNK N   1      37.225  15.707  10.604  0.00  0.00    -0.307 OA
HETATM   34  H   UNK N   1      37.648  16.060   9.806  0.00  0.00     0.222 HD
ENDBRANCH  31  33
BRANCH  31  35
HETATM   35  O   UNK N   1      34.732  14.876  12.073  0.00  0.00    -0.294 OA
BRANCH  35  36
HETATM   36  C   UNK N   1      35.748  14.402  12.892  0.00  0.00     0.215 C 
BRANCH  36  37
HETATM   37  C   UNK N   1      36.123  12.965  12.529  0.00  0.00     0.180 C 
HETATM   38  C   UNK N   1      34.919  12.013  12.586  0.00  0.00     0.182 C 
HETATM   39  C   UNK N   1      35.584  10.771  13.076  0.00  0.00     0.198 C 
HETATM   40  C   UNK N   1      36.570  11.361  14.083  0.00  0.00     0.259 C 
HETATM   41  O   UNK N   1      37.101  12.508  13.448  0.00  0.00    -0.353 OA
BRANCH  38  42
HETATM   42  O   UNK N   1      34.323  11.836  11.331  0.00  0.00    -0.390 OA
HETATM   43  H   UNK N   1      34.802  11.744  10.493  0.00  0.00     0.210 HD
ENDBRANCH  38  42
BRANCH  39  44
HETATM   44  O   UNK N   1      34.691   9.838  13.608  0.00  0.00    -0.388 OA
HETATM   45  H   UNK N   1      34.339   9.760  14.509  0.00  0.00     0.210 HD
ENDBRANCH  39  44
BRANCH  40  46
HETATM   46  N   UNK N   1      36.010  11.725  15.405  0.00  0.00    -0.336 N 
HETATM   47  C   UNK N   1      35.490  10.750  16.206  0.00  0.00     0.093 A 
HETATM   48  C   UNK N   1      35.088  11.040  17.513  0.00  0.00     0.018 A 
HETATM   49  C   UNK N   1      35.236  12.335  18.007  0.00  0.00     0.018 A 
HETATM   50  C   UNK N   1      35.759  13.335  17.186  0.00  0.00     0.030 A 
HETATM   51  C   UNK N   1      36.145  13.002  15.881  0.00  0.00     0.108 A 
BRANCH  50  52
HETATM   52  C   UNK N   1      35.932  14.712  17.698  0.00  0.00     0.145 C 
HETATM   53  N   UNK N   1      35.231  15.130  18.689  0.00  0.00    -0.379 N 
HETATM   54  H   UNK N   1      35.155  16.093  18.881  0.00  0.00     0.158 HD
ATOM     55  HN  UNK N   1      34.746  14.458  19.284  1.00  0.00     0.158 HD
BRANCH  52  56
HETATM   56  O   UNK N   1      36.821  15.543  17.121  0.00  0.00    -0.346 OA
HETATM   57  H   UNK N   1      37.628  15.232  16.759  0.00  0.00     0.219 HD
ENDBRANCH  52  56
ENDBRANCH  50  52
ENDBRANCH  40  46
ENDBRANCH  36  37
ENDBRANCH  35  36
ENDBRANCH  31  35
ENDBRANCH  30  31
ENDBRANCH   3  30
TORSDOF 17
ENDMDL
MODEL 8
REMARK VINA RESULT:      -7.6      5.694     10.374
REMARK  17 active torsions:
REMARK  status: ('A' for Active; 'I' for Inactive)
REMARK    1  A    between atoms: C_12  and  C_7 
REMARK    2  A    between atoms: O_44  and  C_7 
REMARK    3  A    between atoms: C_13  and  C_8 
REMARK    4  A    between atoms: O_45  and  C_8 
REMARK    5  A    between atoms: C_19  and  C_11 
REMARK    6  A    between atoms: C_15  and  O_35 
REMARK    7  A    between atoms: C_16  and  O_36 
REMARK    8  A    between atoms: C_17  and  O_37 
REMARK    9  A    between atoms: C_18  and  O_38 
REMARK   10  A    between atoms: O_39  and  C_19 
REMARK   11  A    between atoms: C_22  and  N_32 
REMARK   12  A    between atoms: C_23  and  N_34 
REMARK   13  A    between atoms: P_49  and  O_41 
REMARK   14  A    between atoms: P_49  and  O_44 
REMARK   15  A    between atoms: P_50  and  O_45 
REMARK   16  A    between atoms: P_49  and  O_48 
REMARK   17  A    between atoms: P_50  and  O_48 
ROOT
HETATM    1  O   UNK N   1      25.354  14.531   3.727  0.00  0.00    -0.624 OA
HETATM    2  O   UNK N   1      26.400  16.893   3.003  0.00  0.00    -0.624 OA
HETATM    3  P   UNK N   1      25.963  15.832   4.311  0.00  0.00     0.417 P 
ENDROOT
BRANCH   3   4
HETATM    4  O   UNK N   1      24.756  16.588   5.313  0.00  0.00    -0.287 OA
BRANCH   4   5
HETATM    5  C   UNK N   1      23.618  16.684   4.499  0.00  0.00     0.216 C 
BRANCH   5   6
HETATM    6  C   UNK N   1      22.737  17.939   4.757  0.00  0.00     0.180 C 
HETATM    7  C   UNK N   1      21.539  17.931   3.833  0.00  0.00     0.182 C 
HETATM    8  C   UNK N   1      20.687  16.937   4.580  0.00  0.00     0.198 C 
HETATM    9  C   UNK N   1      20.891  17.482   5.994  0.00  0.00     0.262 C 
HETATM   10  O   UNK N   1      22.234  17.933   6.072  0.00  0.00    -0.353 OA
BRANCH   7  11
HETATM   11  O   UNK N   1      20.939  19.199   3.843  0.00  0.00    -0.390 OA
HETATM   12  H   UNK N   1      20.312  19.899   4.087  0.00  0.00     0.210 HD
ENDBRANCH   7  11
BRANCH   8  13
HETATM   13  O   UNK N   1      19.355  16.943   4.161  0.00  0.00    -0.388 OA
HETATM   14  H   UNK N   1      18.629  17.036   4.796  0.00  0.00     0.210 HD
ENDBRANCH   8  13
BRANCH   9  15
HETATM   15  N   UNK N   1      20.619  16.526   7.069  0.00  0.00    -0.297 N 
HETATM   16  C   UNK N   1      19.590  16.537   7.961  0.00  0.00     0.188 A 
HETATM   17  N   UNK N   1      19.756  15.581   8.925  0.00  0.00    -0.346 N 
HETATM   18  C   UNK N   1      20.919  14.980   8.600  0.00  0.00     0.123 A 
ATOM     19  HN  UNK N   1      19.140  15.371   9.710  1.00  0.00     0.167 HD
HETATM   20  C   UNK N   1      21.654  14.000   9.234  0.00  0.00     0.143 A 
HETATM   21  C   UNK N   1      21.418  15.532   7.473  0.00  0.00     0.142 A 
HETATM   22  N   UNK N   1      21.388  13.367  10.387  0.00  0.00    -0.349 N 
HETATM   23  N   UNK N   1      22.820  13.608   8.696  0.00  0.00    -0.301 N 
HETATM   24  C   UNK N   1      22.447  12.535  10.574  0.00  0.00     0.107 A 
ATOM     25  HN  UNK N   1      20.573  13.483  10.990  1.00  0.00     0.167 HD
HETATM   26  C   UNK N   1      23.339  12.687   9.512  0.00  0.00     0.116 A 
HETATM   27  C   UNK N   1      23.313  14.138   7.538  0.00  0.00     0.191 A 
HETATM   28  N   UNK N   1      22.604  15.131   6.917  0.00  0.00    -0.336 N 
ATOM     29  HN  UNK N   1      22.951  15.562   6.060  1.00  0.00     0.168 HD
ENDBRANCH   9  15
ENDBRANCH   5   6
ENDBRANCH   4   5
ENDBRANCH   3   4
BRANCH   3  30
HETATM   30  O   UNK N   1      27.282  15.530   5.408  0.00  0.00    -0.188 OA
BRANCH  30  31
HETATM   31  P   UNK N   1      28.589  14.657   4.696  0.00  0.00     0.402 P 
HETATM   32  O   UNK N   1      29.176  15.916   4.014  0.00  0.00    -0.631 OA
BRANCH  31  33
HETATM   33  O   UNK N   1      28.321  13.784   3.219  0.00  0.00    -0.307 OA
HETATM   34  H   UNK N   1      28.762  14.065   2.402  0.00  0.00     0.222 HD
ENDBRANCH  31  33
BRANCH  31  35
HETATM   35  O   UNK N   1      30.005  14.357   5.649  0.00  0.00    -0.294 OA
BRANCH  35  36
HETATM   36  C   UNK N   1      31.026  15.121   5.099  0.00  0.00     0.215 C 
BRANCH  36  37
HETATM   37  C   UNK N   1      32.130  15.385   6.123  0.00  0.00     0.180 C 
HETATM   38  C   UNK N   1      31.821  14.760   7.491  0.00  0.00     0.182 C 
HETATM   39  C   UNK N   1      32.420  15.785   8.394  0.00  0.00     0.198 C 
HETATM   40  C   UNK N   1      32.034  17.066   7.656  0.00  0.00     0.259 C 
HETATM   41  O   UNK N   1      32.265  16.786   6.289  0.00  0.00    -0.353 OA
BRANCH  38  42
HETATM   42  O   UNK N   1      32.417  13.503   7.648  0.00  0.00    -0.390 OA
HETATM   43  H   UNK N   1      32.786  12.965   6.930  0.00  0.00     0.210 HD
ENDBRANCH  38  42
BRANCH  39  44
HETATM   44  O   UNK N   1      31.956  15.704   9.709  0.00  0.00    -0.388 OA
HETATM   45  H   UNK N   1      31.312  16.261  10.175  0.00  0.00     0.210 HD
ENDBRANCH  39  44
BRANCH  40  46
HETATM   46  N   UNK N   1      30.644  17.536   7.851  0.00  0.00    -0.336 N 
HETATM   47  C   UNK N   1      30.188  17.785   9.113  0.00  0.00     0.093 A 
HETATM   48  C   UNK N   1      28.933  18.365   9.317  0.00  0.00     0.018 A 
HETATM   49  C   UNK N   1      28.146  18.705   8.219  0.00  0.00     0.018 A 
HETATM   50  C   UNK N   1      28.606  18.443   6.927  0.00  0.00     0.030 A 
HETATM   51  C   UNK N   1      29.868  17.857   6.768  0.00  0.00     0.108 A 
BRANCH  50  52
HETATM   52  C   UNK N   1      27.787  18.809   5.751  0.00  0.00     0.145 C 
HETATM   53  N   UNK N   1      28.317  18.872   4.583  0.00  0.00    -0.379 N 
HETATM   54  H   UNK N   1      27.860  19.341   3.848  0.00  0.00     0.158 HD
ATOM     55  HN  UNK N   1      29.223  18.434   4.416  1.00  0.00     0.158 HD
BRANCH  52  56
HETATM   56  O   UNK N   1      26.477  19.088   5.897  0.00  0.00    -0.346 OA
HETATM   57  H   UNK N   1      25.810  18.470   5.667  0.00  0.00     0.219 HD
ENDBRANCH  52  56
ENDBRANCH  50  52
ENDBRANCH  40  46
ENDBRANCH  36  37
ENDBRANCH  35  36
ENDBRANCH  31  35
ENDBRANCH  30  31
ENDBRANCH   3  30
TORSDOF 17
ENDMDL
MODEL 9
REMARK VINA RESULT:      -7.6      8.631     11.671
REMARK  17 active torsions:
REMARK  status: ('A' for Active; 'I' for Inactive)
REMARK    1  A    between atoms: C_12  and  C_7 
REMARK    2  A    between atoms: O_44  and  C_7 
REMARK    3  A    between atoms: C_13  and  C_8 
REMARK    4  A    between atoms: O_45  and  C_8 
REMARK    5  A    between atoms: C_19  and  C_11 
REMARK    6  A    between atoms: C_15  and  O_35 
REMARK    7  A    between atoms: C_16  and  O_36 
REMARK    8  A    between atoms: C_17  and  O_37 
REMARK    9  A    between atoms: C_18  and  O_38 
REMARK   10  A    between atoms: O_39  and  C_19 
REMARK   11  A    between atoms: C_22  and  N_32 
REMARK   12  A    between atoms: C_23  and  N_34 
REMARK   13  A    between atoms: P_49  and  O_41 
REMARK   14  A    between atoms: P_49  and  O_44 
REMARK   15  A    between atoms: P_50  and  O_45 
REMARK   16  A    between atoms: P_49  and  O_48 
REMARK   17  A    between atoms: P_50  and  O_48 
ROOT
HETATM    1  O   UNK N   1      24.129  14.975   7.106  0.00  0.00    -0.624 OA
HETATM    2  O   UNK N   1      26.381  14.699   5.677  0.00  0.00    -0.624 OA
HETATM    3  P   UNK N   1      24.885  13.977   6.192  0.00  0.00     0.417 P 
ENDROOT
BRANCH   3   4
HETATM    4  O   UNK N   1      25.205  12.537   7.117  0.00  0.00    -0.287 OA
BRANCH   4   5
HETATM    5  C   UNK N   1      24.810  12.852   8.426  0.00  0.00     0.216 C 
BRANCH   5   6
HETATM    6  C   UNK N   1      23.771  11.875   9.046  0.00  0.00     0.180 C 
HETATM    7  C   UNK N   1      23.068  12.537  10.211  0.00  0.00     0.182 C 
HETATM    8  C   UNK N   1      22.097  13.387   9.432  0.00  0.00     0.198 C 
HETATM    9  C   UNK N   1      21.641  12.338   8.416  0.00  0.00     0.262 C 
HETATM   10  O   UNK N   1      22.776  11.544   8.106  0.00  0.00    -0.353 OA
BRANCH   7  11
HETATM   11  O   UNK N   1      22.383  11.562  10.951  0.00  0.00    -0.390 OA
HETATM   12  H   UNK N   1      22.012  10.693  11.174  0.00  0.00     0.210 HD
ENDBRANCH   7  11
BRANCH   8  13
HETATM   13  O   UNK N   1      21.063  13.890  10.223  0.00  0.00    -0.388 OA
HETATM   14  H   UNK N   1      20.810  14.825  10.185  0.00  0.00     0.210 HD
ENDBRANCH   8  13
BRANCH   9  15
HETATM   15  N   UNK N   1      21.057  12.880   7.188  0.00  0.00    -0.297 N 
HETATM   16  C   UNK N   1      20.556  14.128   6.978  0.00  0.00     0.188 A 
HETATM   17  N   UNK N   1      19.941  14.220   5.760  0.00  0.00    -0.346 N 
HETATM   18  C   UNK N   1      20.078  12.989   5.226  0.00  0.00     0.123 A 
ATOM     19  HN  UNK N   1      19.484  15.033   5.349  1.00  0.00     0.167 HD
HETATM   20  C   UNK N   1      19.599  12.438   4.055  0.00  0.00     0.143 A 
HETATM   21  C   UNK N   1      20.770  12.198   6.074  0.00  0.00     0.142 A 
HETATM   22  N   UNK N   1      18.839  13.011   3.109  0.00  0.00    -0.349 N 
HETATM   23  N   UNK N   1      19.861  11.149   3.786  0.00  0.00    -0.301 N 
HETATM   24  C   UNK N   1      18.620  12.023   2.201  0.00  0.00     0.107 A 
ATOM     25  HN  UNK N   1      18.503  13.973   3.076  1.00  0.00     0.167 HD
HETATM   26  C   UNK N   1      19.263  10.860   2.627  0.00  0.00     0.116 A 
HETATM   27  C   UNK N   1      20.589  10.354   4.623  0.00  0.00     0.191 A 
HETATM   28  N   UNK N   1      21.045  10.884   5.800  0.00  0.00    -0.336 N 
ATOM     29  HN  UNK N   1      21.577  10.315   6.458  1.00  0.00     0.168 HD
ENDBRANCH   9  15
ENDBRANCH   5   6
ENDBRANCH   4   5
ENDBRANCH   3   4
BRANCH   3  30
HETATM   30  O   UNK N   1      23.914  13.408   4.862  0.00  0.00    -0.188 OA
BRANCH  30  31
HETATM   31  P   UNK N   1      23.424  14.657   3.778  0.00  0.00     0.402 P 
HETATM   32  O   UNK N   1      22.663  13.678   2.852  0.00  0.00    -0.631 OA
BRANCH  31  33
HETATM   33  O   UNK N   1      24.532  15.204   2.558  0.00  0.00    -0.307 OA
HETATM   34  H   UNK N   1      24.947  14.565   1.957  0.00  0.00     0.222 HD
ENDBRANCH  31  33
BRANCH  31  35
HETATM   35  O   UNK N   1      22.015  15.588   4.165  0.00  0.00    -0.294 OA
BRANCH  35  36
HETATM   36  C   UNK N   1      21.347  15.817   2.969  0.00  0.00     0.215 C 
BRANCH  36  37
HETATM   37  C   UNK N   1      20.303  16.924   3.125  0.00  0.00     0.180 C 
HETATM   38  C   UNK N   1      20.187  17.800   1.869  0.00  0.00     0.182 C 
HETATM   39  C   UNK N   1      19.906  19.125   2.494  0.00  0.00     0.198 C 
HETATM   40  C   UNK N   1      20.829  19.061   3.710  0.00  0.00     0.259 C 
HETATM   41  O   UNK N   1      20.680  17.748   4.215  0.00  0.00    -0.353 OA
BRANCH  38  42
HETATM   42  O   UNK N   1      19.151  17.383   1.025  0.00  0.00    -0.390 OA
HETATM   43  H   UNK N   1      18.276  17.797   0.965  0.00  0.00     0.210 HD
ENDBRANCH  38  42
BRANCH  39  44
HETATM   44  O   UNK N   1      20.142  20.202   1.637  0.00  0.00    -0.388 OA
HETATM   45  H   UNK N   1      19.931  21.143   1.750  0.00  0.00     0.210 HD
ENDBRANCH  39  44
BRANCH  40  46
HETATM   46  N   UNK N   1      22.259  19.350   3.459  0.00  0.00    -0.336 N 
HETATM   47  C   UNK N   1      22.607  20.485   2.786  0.00  0.00     0.093 A 
HETATM   48  C   UNK N   1      23.949  20.856   2.661  0.00  0.00     0.018 A 
HETATM   49  C   UNK N   1      24.939  20.066   3.242  0.00  0.00     0.018 A 
HETATM   50  C   UNK N   1      24.585  18.899   3.922  0.00  0.00     0.030 A 
HETATM   51  C   UNK N   1      23.229  18.562   4.020  0.00  0.00     0.108 A 
BRANCH  50  52
HETATM   52  C   UNK N   1      25.623  18.055   4.553  0.00  0.00     0.145 C 
HETATM   53  N   UNK N   1      25.408  17.502   5.692  0.00  0.00    -0.379 N 
HETATM   54  H   UNK N   1      26.154  17.149   6.229  0.00  0.00     0.158 HD
ATOM     55  HN  UNK N   1      24.453  17.428   6.044  1.00  0.00     0.158 HD
BRANCH  52  56
HETATM   56  O   UNK N   1      26.808  17.868   3.942  0.00  0.00    -0.346 OA
HETATM   57  H   UNK N   1      26.968  17.129   3.387  0.00  0.00     0.219 HD
ENDBRANCH  52  56
ENDBRANCH  50  52
ENDBRANCH  40  46
ENDBRANCH  36  37
ENDBRANCH  35  36
ENDBRANCH  31  35
ENDBRANCH  30  31
ENDBRANCH   3  30
TORSDOF 17
ENDMDL
