MODEL 1
REMARK VINA RESULT:      -4.6      0.000      0.000
REMARK  8 active torsions:
REMARK  status: ('A' for Active; 'I' for Inactive)
REMARK    1  A    between atoms: C_4  and  C_2 
REMARK    2  A    between atoms: C_5  and  C_3 
REMARK    3  A    between atoms: C_3  and  O_8 
REMARK    4  A    between atoms: C_6  and  C_4 
REMARK    5  A    between atoms: C_4  and  O_9 
REMARK    6  A    between atoms: C_6  and  C_5 
REMARK    7  A    between atoms: C_5  and  O_10 
REMARK    8  A    between atoms: C_6  and  O_11 
ROOT
HETATM    1  C   UNK N   1      19.862  18.798   2.888  0.00  0.00     0.184 C 
ENDROOT
BRANCH   1   2
HETATM    2  C   UNK N   1      20.700  20.094   2.784  0.00  0.00     0.210 C 
BRANCH   2   3
HETATM    3  C   UNK N   1      20.519  20.732   1.437  0.00  0.00     0.265 C 
HETATM    4  O   UNK N   1      21.337  20.559   0.551  0.00  0.00    -0.304 OA
ENDBRANCH   2   3
BRANCH   2   5
HETATM    5  O   UNK N   1      20.305  21.018   3.751  0.00  0.00    -0.386 OA
HETATM    6  H   UNK N   1      20.363  20.795   4.692  0.00  0.00     0.210 HD
ENDBRANCH   2   5
ENDBRANCH   1   2
BRANCH   1   7
HETATM    7  C   UNK N   1      20.604  17.567   2.298  0.00  0.00     0.178 C 
BRANCH   7   8
HETATM    8  C   UNK N   1      19.919  17.006   1.036  0.00  0.00     0.145 C 
HETATM    9  C   UNK N   1      20.285  15.542   0.842  0.00  0.00     0.042 C 
BRANCH   8  10
HETATM   10  O   UNK N   1      20.312  17.709  -0.104  0.00  0.00    -0.393 OA
HETATM   11  H   UNK N   1      20.963  18.423  -0.034  0.00  0.00     0.210 HD
ENDBRANCH   8  10
ENDBRANCH   7   8
BRANCH   7  12
HETATM   12  O   UNK N   1      20.660  16.551   3.255  0.00  0.00    -0.390 OA
HETATM   13  H   UNK N   1      21.409  16.498   3.870  0.00  0.00     0.210 HD
ENDBRANCH   7  12
ENDBRANCH   1   7
BRANCH   1  14
HETATM   14  O   UNK N   1      18.654  18.990   2.211  0.00  0.00    -0.390 OA
HETATM   15  H   UNK N   1      17.821  18.680   2.600  0.00  0.00     0.210 HD
ENDBRANCH   1  14
TORSDOF 8
ENDMDL
MODEL 2
REMARK VINA RESULT:      -4.5     17.910     18.856
REMARK  8 active torsions:
REMARK  status: ('A' for Active; 'I' for Inactive)
REMARK    1  A    between atoms: C_4  and  C_2 
REMARK    2  A    between atoms: C_5  and  C_3 
REMARK    3  A    between atoms: C_3  and  O_8 
REMARK    4  A    between atoms: C_6  and  C_4 
REMARK    5  A    between atoms: C_4  and  O_9 
REMARK    6  A    between atoms: C_6  and  C_5 
REMARK    7  A    between atoms: C_5  and  O_10 
REMARK    8  A    between atoms: C_6  and  O_11 
ROOT
HETATM    1  C   UNK N   1      35.199  14.959  11.780  0.00  0.00     0.184 C 
ENDROOT
BRANCH   1   2
HETATM    2  C   UNK N   1      35.866  15.569  10.525  0.00  0.00     0.210 C 
BRANCH   2   3
HETATM    3  C   UNK N   1      35.030  16.685   9.970  0.00  0.00     0.265 C 
HETATM    4  O   UNK N   1      35.446  17.829   9.959  0.00  0.00    -0.304 OA
ENDBRANCH   2   3
BRANCH   2   5
HETATM    5  O   UNK N   1      37.122  16.091  10.837  0.00  0.00    -0.386 OA
HETATM    6  H   UNK N   1      37.481  16.835  10.329  0.00  0.00     0.210 HD
ENDBRANCH   2   5
ENDBRANCH   1   2
BRANCH   1   7
HETATM    7  C   UNK N   1      35.856  13.617  12.204  0.00  0.00     0.178 C 
BRANCH   7   8
HETATM    8  C   UNK N   1      35.430  13.161  13.614  0.00  0.00     0.145 C 
HETATM    9  C   UNK N   1      36.503  12.279  14.232  0.00  0.00     0.042 C 
BRANCH   8  10
HETATM   10  O   UNK N   1      34.239  12.435  13.568  0.00  0.00    -0.393 OA
HETATM   11  H   UNK N   1      34.234  11.495  13.804  0.00  0.00     0.210 HD
ENDBRANCH   8  10
ENDBRANCH   7   8
BRANCH   7  12
HETATM   12  O   UNK N   1      37.247  13.752  12.189  0.00  0.00    -0.390 OA
HETATM   13  H   UNK N   1      37.801  13.066  11.784  0.00  0.00     0.210 HD
ENDBRANCH   7  12
ENDBRANCH   1   7
BRANCH   1  14
HETATM   14  O   UNK N   1      33.842  14.756  11.511  0.00  0.00    -0.390 OA
HETATM   15  H   UNK N   1      33.438  13.888  11.670  0.00  0.00     0.210 HD
ENDBRANCH   1  14
TORSDOF 8
ENDMDL
MODEL 3
REMARK VINA RESULT:      -4.4     17.623     18.775
REMARK  8 active torsions:
REMARK  status: ('A' for Active; 'I' for Inactive)
REMARK    1  A    between atoms: C_4  and  C_2 
REMARK    2  A    between atoms: C_5  and  C_3 
REMARK    3  A    between atoms: C_3  and  O_8 
REMARK    4  A    between atoms: C_6  and  C_4 
REMARK    5  A    between atoms: C_4  and  O_9 
REMARK    6  A    between atoms: C_6  and  C_5 
REMARK    7  A    between atoms: C_5  and  O_10 
REMARK    8  A    between atoms: C_6  and  O_11 
ROOT
HETATM    1  C   UNK N   1      35.380  14.491  11.534  0.00  0.00     0.184 C 
ENDROOT
BRANCH   1   2
HETATM    2  C   UNK N   1      36.184  13.964  12.745  0.00  0.00     0.210 C 
BRANCH   2   3
HETATM    3  C   UNK N   1      35.425  12.877  13.451  0.00  0.00     0.265 C 
HETATM    4  O   UNK N   1      34.614  13.145  14.318  0.00  0.00    -0.304 OA
ENDBRANCH   2   3
BRANCH   2   5
HETATM    5  O   UNK N   1      37.407  13.433  12.335  0.00  0.00    -0.386 OA
HETATM    6  H   UNK N   1      37.606  12.496  12.482  0.00  0.00     0.210 HD
ENDBRANCH   2   5
ENDBRANCH   1   2
BRANCH   1   7
HETATM    7  C   UNK N   1      35.715  15.972  11.204  0.00  0.00     0.178 C 
BRANCH   7   8
HETATM    8  C   UNK N   1      34.885  16.525  10.029  0.00  0.00     0.145 C 
HETATM    9  C   UNK N   1      35.063  15.652   8.797  0.00  0.00     0.042 C 
BRANCH   8  10
HETATM   10  O   UNK N   1      35.278  17.824   9.704  0.00  0.00    -0.393 OA
HETATM   11  H   UNK N   1      36.058  17.971   9.149  0.00  0.00     0.210 HD
ENDBRANCH   8  10
ENDBRANCH   7   8
BRANCH   7  12
HETATM   12  O   UNK N   1      37.069  16.082  10.874  0.00  0.00    -0.390 OA
HETATM   13  H   UNK N   1      37.629  15.290  10.835  0.00  0.00     0.210 HD
ENDBRANCH   7  12
ENDBRANCH   1   7
BRANCH   1  14
HETATM   14  O   UNK N   1      34.016  14.368  11.815  0.00  0.00    -0.390 OA
HETATM   15  H   UNK N   1      33.411  14.003  11.150  0.00  0.00     0.210 HD
ENDBRANCH   1  14
TORSDOF 8
ENDMDL
MODEL 4
REMARK VINA RESULT:      -4.3     16.444     17.434
REMARK  8 active torsions:
REMARK  status: ('A' for Active; 'I' for Inactive)
REMARK    1  A    between atoms: C_4  and  C_2 
REMARK    2  A    between atoms: C_5  and  C_3 
REMARK    3  A    between atoms: C_3  and  O_8 
REMARK    4  A    between atoms: C_6  and  C_4 
REMARK    5  A    between atoms: C_4  and  O_9 
REMARK    6  A    between atoms: C_6  and  C_5 
REMARK    7  A    between atoms: C_5  and  O_10 
REMARK    8  A    between atoms: C_6  and  O_11 
ROOT
HETATM    1  C   UNK N   1      34.668  15.561  10.375  0.00  0.00     0.184 C 
ENDROOT
BRANCH   1   2
HETATM    2  C   UNK N   1      35.815  15.744  11.396  0.00  0.00     0.210 C 
BRANCH   2   3
HETATM    3  C   UNK N   1      35.945  14.530  12.270  0.00  0.00     0.265 C 
HETATM    4  O   UNK N   1      35.122  14.294  13.136  0.00  0.00    -0.304 OA
ENDBRANCH   2   3
BRANCH   2   5
HETATM    5  O   UNK N   1      37.034  15.932  10.744  0.00  0.00    -0.386 OA
HETATM    6  H   UNK N   1      37.855  15.600  11.138  0.00  0.00     0.210 HD
ENDBRANCH   2   5
ENDBRANCH   1   2
BRANCH   1   7
HETATM    7  C   UNK N   1      34.344  16.874   9.612  0.00  0.00     0.178 C 
BRANCH   7   8
HETATM    8  C   UNK N   1      34.228  16.667   8.088  0.00  0.00     0.145 C 
HETATM    9  C   UNK N   1      35.066  15.475   7.651  0.00  0.00     0.042 C 
BRANCH   8  10
HETATM   10  O   UNK N   1      34.673  17.792   7.393  0.00  0.00    -0.393 OA
HETATM   11  H   UNK N   1      34.298  18.664   7.588  0.00  0.00     0.210 HD
ENDBRANCH   8  10
ENDBRANCH   7   8
BRANCH   7  12
HETATM   12  O   UNK N   1      35.351  17.814   9.850  0.00  0.00    -0.390 OA
HETATM   13  H   UNK N   1      36.004  17.664  10.552  0.00  0.00     0.210 HD
ENDBRANCH   7  12
ENDBRANCH   1   7
BRANCH   1  14
HETATM   14  O   UNK N   1      33.529  15.119  11.056  0.00  0.00    -0.390 OA
HETATM   15  H   UNK N   1      32.851  15.753  11.336  0.00  0.00     0.210 HD
ENDBRANCH   1  14
TORSDOF 8
ENDMDL
MODEL 5
REMARK VINA RESULT:      -4.2     17.901     18.848
REMARK  8 active torsions:
REMARK  status: ('A' for Active; 'I' for Inactive)
REMARK    1  A    between atoms: C_4  and  C_2 
REMARK    2  A    between atoms: C_5  and  C_3 
REMARK    3  A    between atoms: C_3  and  O_8 
REMARK    4  A    between atoms: C_6  and  C_4 
REMARK    5  A    between atoms: C_4  and  O_9 
REMARK    6  A    between atoms: C_6  and  C_5 
REMARK    7  A    between atoms: C_5  and  O_10 
REMARK    8  A    between atoms: C_6  and  O_11 
ROOT
HETATM    1  C   UNK N   1      35.844  14.733  11.031  0.00  0.00     0.184 C 
ENDROOT
BRANCH   1   2
HETATM    2  C   UNK N   1      34.683  15.755  11.063  0.00  0.00     0.210 C 
BRANCH   2   3
HETATM    3  C   UNK N   1      34.782  16.704   9.904  0.00  0.00     0.265 C 
HETATM    4  O   UNK N   1      35.450  17.720   9.986  0.00  0.00    -0.304 OA
ENDBRANCH   2   3
BRANCH   2   5
HETATM    5  O   UNK N   1      33.450  15.107  10.979  0.00  0.00    -0.386 OA
HETATM    6  H   UNK N   1      33.389  14.225  10.580  0.00  0.00     0.210 HD
ENDBRANCH   2   5
ENDBRANCH   1   2
BRANCH   1   7
HETATM    7  C   UNK N   1      35.962  13.935  12.359  0.00  0.00     0.178 C 
BRANCH   7   8
HETATM    8  C   UNK N   1      36.882  12.704  12.236  0.00  0.00     0.145 C 
HETATM    9  C   UNK N   1      37.111  12.076  13.601  0.00  0.00     0.042 C 
BRANCH   8  10
HETATM   10  O   UNK N   1      38.124  13.056  11.703  0.00  0.00    -0.393 OA
HETATM   11  H   UNK N   1      38.289  12.962  10.753  0.00  0.00     0.210 HD
ENDBRANCH   8  10
ENDBRANCH   7   8
BRANCH   7  12
HETATM   12  O   UNK N   1      34.696  13.498  12.756  0.00  0.00    -0.390 OA
HETATM   13  H   UNK N   1      34.131  14.067  13.302  0.00  0.00     0.210 HD
ENDBRANCH   7  12
ENDBRANCH   1   7
BRANCH   1  14
HETATM   14  O   UNK N   1      37.037  15.419  10.785  0.00  0.00    -0.390 OA
HETATM   15  H   UNK N   1      37.852  14.928  10.597  0.00  0.00     0.210 HD
ENDBRANCH   1  14
TORSDOF 8
ENDMDL
MODEL 6
REMARK VINA RESULT:      -4.2     16.333     17.184
REMARK  8 active torsions:
REMARK  status: ('A' for Active; 'I' for Inactive)
REMARK    1  A    between atoms: C_4  and  C_2 
REMARK    2  A    between atoms: C_5  and  C_3 
REMARK    3  A    between atoms: C_3  and  O_8 
REMARK    4  A    between atoms: C_6  and  C_4 
REMARK    5  A    between atoms: C_4  and  O_9 
REMARK    6  A    between atoms: C_6  and  C_5 
REMARK    7  A    between atoms: C_5  and  O_10 
REMARK    8  A    between atoms: C_6  and  O_11 
ROOT
HETATM    1  C   UNK N   1      35.387  16.678   9.961  0.00  0.00     0.184 C 
ENDROOT
BRANCH   1   2
HETATM    2  C   UNK N   1      34.432  16.862   8.759  0.00  0.00     0.210 C 
BRANCH   2   3
HETATM    3  C   UNK N   1      34.460  18.283   8.274  0.00  0.00     0.265 C 
HETATM    4  O   UNK N   1      35.347  19.042   8.620  0.00  0.00    -0.304 OA
ENDBRANCH   2   3
BRANCH   2   5
HETATM    5  O   UNK N   1      34.809  16.041   7.696  0.00  0.00    -0.386 OA
HETATM    6  H   UNK N   1      35.467  15.341   7.829  0.00  0.00     0.210 HD
ENDBRANCH   2   5
ENDBRANCH   1   2
BRANCH   1   7
HETATM    7  C   UNK N   1      35.676  15.181  10.259  0.00  0.00     0.178 C 
BRANCH   7   8
HETATM    8  C   UNK N   1      34.878  14.648  11.466  0.00  0.00     0.145 C 
HETATM    9  C   UNK N   1      35.148  13.165  11.667  0.00  0.00     0.042 C 
BRANCH   8  10
HETATM   10  O   UNK N   1      33.506  14.820  11.277  0.00  0.00    -0.393 OA
HETATM   11  H   UNK N   1      33.165  15.091  10.411  0.00  0.00     0.210 HD
ENDBRANCH   8  10
ENDBRANCH   7   8
BRANCH   7  12
HETATM   12  O   UNK N   1      37.038  15.011  10.525  0.00  0.00    -0.390 OA
HETATM   13  H   UNK N   1      37.327  14.404  11.225  0.00  0.00     0.210 HD
ENDBRANCH   7  12
ENDBRANCH   1   7
BRANCH   1  14
HETATM   14  O   UNK N   1      34.814  17.281  11.084  0.00  0.00    -0.390 OA
HETATM   15  H   UNK N   1      35.248  18.038  11.507  0.00  0.00     0.210 HD
ENDBRANCH   1  14
TORSDOF 8
ENDMDL
MODEL 7
REMARK VINA RESULT:      -4.2     15.356     16.209
REMARK  8 active torsions:
REMARK  status: ('A' for Active; 'I' for Inactive)
REMARK    1  A    between atoms: C_4  and  C_2 
REMARK    2  A    between atoms: C_5  and  C_3 
REMARK    3  A    between atoms: C_3  and  O_8 
REMARK    4  A    between atoms: C_6  and  C_4 
REMARK    5  A    between atoms: C_4  and  O_9 
REMARK    6  A    between atoms: C_6  and  C_5 
REMARK    7  A    between atoms: C_5  and  O_10 
REMARK    8  A    between atoms: C_6  and  O_11 
ROOT
HETATM    1  C   UNK N   1      34.351  15.960   8.787  0.00  0.00     0.184 C 
ENDROOT
BRANCH   1   2
HETATM    2  C   UNK N   1      33.718  17.334   8.462  0.00  0.00     0.210 C 
BRANCH   2   3
HETATM    3  C   UNK N   1      33.434  17.451   6.993  0.00  0.00     0.265 C 
HETATM    4  O   UNK N   1      34.282  17.871   6.226  0.00  0.00    -0.304 OA
ENDBRANCH   2   3
BRANCH   2   5
HETATM    5  O   UNK N   1      32.512  17.497   9.144  0.00  0.00    -0.386 OA
HETATM    6  H   UNK N   1      32.321  18.328   9.605  0.00  0.00     0.210 HD
ENDBRANCH   2   5
ENDBRANCH   1   2
BRANCH   1   7
HETATM    7  C   UNK N   1      35.236  16.007  10.063  0.00  0.00     0.178 C 
BRANCH   7   8
HETATM    8  C   UNK N   1      34.590  15.291  11.266  0.00  0.00     0.145 C 
HETATM    9  C   UNK N   1      35.244  13.937  11.491  0.00  0.00     0.042 C 
BRANCH   8  10
HETATM   10  O   UNK N   1      33.225  15.087  11.054  0.00  0.00    -0.393 OA
HETATM   11  H   UNK N   1      32.583  15.351  11.731  0.00  0.00     0.210 HD
ENDBRANCH   8  10
ENDBRANCH   7   8
BRANCH   7  12
HETATM   12  O   UNK N   1      35.471  17.338  10.421  0.00  0.00    -0.390 OA
HETATM   13  H   UNK N   1      35.690  17.566  11.338  0.00  0.00     0.210 HD
ENDBRANCH   7  12
ENDBRANCH   1   7
BRANCH   1  14
HETATM   14  O   UNK N   1      35.121  15.553   7.694  0.00  0.00    -0.390 OA
HETATM   15  H   UNK N   1      35.082  14.634   7.385  0.00  0.00     0.210 HD
ENDBRANCH   1  14
TORSDOF 8
ENDMDL
MODEL 8
REMARK VINA RESULT:      -4.2     15.966     16.810
REMARK  8 active torsions:
REMARK  status: ('A' for Active; 'I' for Inactive)
REMARK    1  A    between atoms: C_4  and  C_2 
REMARK    2  A    between atoms: C_5  and  C_3 
REMARK    3  A    between atoms: C_3  and  O_8 
REMARK    4  A    between atoms: C_6  and  C_4 
REMARK    5  A    between atoms: C_4  and  O_9 
REMARK    6  A    between atoms: C_6  and  C_5 
REMARK    7  A    between atoms: C_5  and  O_10 
REMARK    8  A    between atoms: C_6  and  O_11 
ROOT
HETATM    1  C   UNK N   1      34.143  15.990   9.302  0.00  0.00     0.184 C 
ENDROOT
BRANCH   1   2
HETATM    2  C   UNK N   1      33.563  17.411   9.107  0.00  0.00     0.210 C 
BRANCH   2   3
HETATM    3  C   UNK N   1      34.320  18.151   8.043  0.00  0.00     0.265 C 
HETATM    4  O   UNK N   1      35.083  19.054   8.335  0.00  0.00    -0.304 OA
ENDBRANCH   2   3
BRANCH   2   5
HETATM    5  O   UNK N   1      32.225  17.351   8.715  0.00  0.00    -0.386 OA
HETATM    6  H   UNK N   1      31.966  16.822   7.945  0.00  0.00     0.210 HD
ENDBRANCH   2   5
ENDBRANCH   1   2
BRANCH   1   7
HETATM    7  C   UNK N   1      34.544  15.715  10.777  0.00  0.00     0.178 C 
BRANCH   7   8
HETATM    8  C   UNK N   1      35.960  15.119  10.909  0.00  0.00     0.145 C 
HETATM    9  C   UNK N   1      36.104  14.384  12.233  0.00  0.00     0.042 C 
BRANCH   8  10
HETATM   10  O   UNK N   1      36.932  16.119  10.857  0.00  0.00    -0.393 OA
HETATM   11  H   UNK N   1      36.957  16.809  11.537  0.00  0.00     0.210 HD
ENDBRANCH   8  10
ENDBRANCH   7   8
BRANCH   7  12
HETATM   12  O   UNK N   1      33.637  14.819  11.349  0.00  0.00    -0.390 OA
HETATM   13  H   UNK N   1      33.566  14.745  12.314  0.00  0.00     0.210 HD
ENDBRANCH   7  12
ENDBRANCH   1   7
BRANCH   1  14
HETATM   14  O   UNK N   1      35.260  15.846   8.474  0.00  0.00    -0.390 OA
HETATM   15  H   UNK N   1      35.416  16.472   7.750  0.00  0.00     0.210 HD
ENDBRANCH   1  14
TORSDOF 8
ENDMDL
MODEL 9
REMARK VINA RESULT:      -4.1     10.410     11.747
REMARK  8 active torsions:
REMARK  status: ('A' for Active; 'I' for Inactive)
REMARK    1  A    between atoms: C_4  and  C_2 
REMARK    2  A    between atoms: C_5  and  C_3 
REMARK    3  A    between atoms: C_3  and  O_8 
REMARK    4  A    between atoms: C_6  and  C_4 
REMARK    5  A    between atoms: C_4  and  O_9 
REMARK    6  A    between atoms: C_6  and  C_5 
REMARK    7  A    between atoms: C_5  and  O_10 
REMARK    8  A    between atoms: C_6  and  O_11 
ROOT
HETATM    1  C   UNK N   1      29.537  23.174  -3.605  0.00  0.00     0.184 C 
ENDROOT
BRANCH   1   2
HETATM    2  C   UNK N   1      28.405  23.876  -2.818  0.00  0.00     0.210 C 
BRANCH   2   3
HETATM    3  C   UNK N   1      27.279  24.254  -3.736  0.00  0.00     0.265 C 
HETATM    4  O   UNK N   1      26.247  24.727  -3.294  0.00  0.00    -0.304 OA
ENDBRANCH   2   3
BRANCH   2   5
HETATM    5  O   UNK N   1      27.889  23.033  -1.834  0.00  0.00    -0.386 OA
HETATM    6  H   UNK N   1      26.987  23.164  -1.504  0.00  0.00     0.210 HD
ENDBRANCH   2   5
ENDBRANCH   1   2
BRANCH   1   7
HETATM    7  C   UNK N   1      30.858  23.094  -2.792  0.00  0.00     0.178 C 
BRANCH   7   8
HETATM    8  C   UNK N   1      31.726  21.881  -3.180  0.00  0.00     0.145 C 
HETATM    9  C   UNK N   1      30.863  20.782  -3.781  0.00  0.00     0.042 C 
BRANCH   8  10
HETATM   10  O   UNK N   1      32.386  21.359  -2.067  0.00  0.00    -0.393 OA
HETATM   11  H   UNK N   1      33.022  21.904  -1.579  0.00  0.00     0.210 HD
ENDBRANCH   8  10
ENDBRANCH   7   8
BRANCH   7  12
HETATM   12  O   UNK N   1      30.563  23.002  -1.428  0.00  0.00    -0.390 OA
HETATM   13  H   UNK N   1      30.073  22.238  -1.085  0.00  0.00     0.210 HD
ENDBRANCH   7  12
ENDBRANCH   1   7
BRANCH   1  14
HETATM   14  O   UNK N   1      29.757  23.876  -4.794  0.00  0.00    -0.390 OA
HETATM   15  H   UNK N   1      29.707  24.844  -4.806  0.00  0.00     0.210 HD
ENDBRANCH   1  14
TORSDOF 8
ENDMDL
