MODEL 1
REMARK VINA RESULT:      -5.0      0.000      0.000
REMARK  5 active torsions:
REMARK  status: ('A' for Active; 'I' for Inactive)
REMARK    1  A    between atoms: O_1  and  C_2 
REMARK    2  A    between atoms: C_2  and  C_3 
REMARK    3  A    between atoms: C_3  and  O_4 
REMARK    4  A    between atoms: C_3  and  C_5 
REMARK    5  A    between atoms: C_5  and  C_6 
ROOT
HETATM    1  C   UNK N   1      22.922  11.489  10.545  0.00  0.00     0.072 C 
ENDROOT
BRANCH   1   2
HETATM    2  C   UNK N   1      23.715  12.238  11.612  0.00  0.00     0.145 C 
BRANCH   2   3
HETATM    3  C   UNK N   1      23.192  11.808  12.973  0.00  0.00     0.196 C 
BRANCH   3   4
HETATM    4  O   UNK N   1      23.831  12.521  13.989  0.00  0.00    -0.398 OA
HETATM    5  H   UNK N   1      24.119  13.446  14.019  0.00  0.00     0.209 HD
ENDBRANCH   3   4
ENDBRANCH   2   3
BRANCH   2   6
HETATM    6  O   UNK N   1      25.069  11.906  11.520  0.00  0.00    -0.393 OA
HETATM    7  H   UNK N   1      25.623  12.301  10.827  0.00  0.00     0.210 HD
ENDBRANCH   2   6
ENDBRANCH   1   2
BRANCH   1   8
HETATM    8  C   UNK N   1      22.111  12.376   9.653  0.00  0.00    -0.056 A 
HETATM    9  C   UNK N   1      22.202  12.230   8.263  0.00  0.00     0.007 A 
HETATM   10  C   UNK N   1      21.494  13.090   7.419  0.00  0.00     0.001 A 
HETATM   11  C   UNK N   1      20.692  14.101   7.959  0.00  0.00     0.000 A 
HETATM   12  C   UNK N   1      20.600  14.251   9.345  0.00  0.00     0.001 A 
HETATM   13  C   UNK N   1      21.313  13.398  10.190  0.00  0.00     0.007 A 
ENDBRANCH   1   8
TORSDOF 5
ENDMDL
MODEL 2
REMARK VINA RESULT:      -5.0     14.359     15.475
REMARK  5 active torsions:
REMARK  status: ('A' for Active; 'I' for Inactive)
REMARK    1  A    between atoms: O_1  and  C_2 
REMARK    2  A    between atoms: C_2  and  C_3 
REMARK    3  A    between atoms: C_3  and  O_4 
REMARK    4  A    between atoms: C_3  and  C_5 
REMARK    5  A    between atoms: C_5  and  C_6 
ROOT
HETATM    1  C   UNK N   1      35.381  13.335  15.602  0.00  0.00     0.072 C 
ENDROOT
BRANCH   1   2
HETATM    2  C   UNK N   1      36.727  13.372  14.885  0.00  0.00     0.145 C 
BRANCH   2   3
HETATM    3  C   UNK N   1      36.473  13.721  13.428  0.00  0.00     0.196 C 
BRANCH   3   4
HETATM    4  O   UNK N   1      36.489  15.106  13.248  0.00  0.00    -0.398 OA
HETATM    5  H   UNK N   1      36.529  15.822  13.900  0.00  0.00     0.209 HD
ENDBRANCH   3   4
ENDBRANCH   2   3
BRANCH   2   6
HETATM    6  O   UNK N   1      37.543  14.354  15.453  0.00  0.00    -0.393 OA
HETATM    7  H   UNK N   1      37.388  14.652  16.364  0.00  0.00     0.210 HD
ENDBRANCH   2   6
ENDBRANCH   1   2
BRANCH   1   8
HETATM    8  C   UNK N   1      35.433  12.720  16.966  0.00  0.00    -0.056 A 
HETATM    9  C   UNK N   1      35.688  11.350  17.099  0.00  0.00     0.007 A 
HETATM   10  C   UNK N   1      35.682  10.753  18.363  0.00  0.00     0.001 A 
HETATM   11  C   UNK N   1      35.418  11.523  19.501  0.00  0.00     0.000 A 
HETATM   12  C   UNK N   1      35.162  12.891  19.372  0.00  0.00     0.001 A 
HETATM   13  C   UNK N   1      35.160  13.486  18.109  0.00  0.00     0.007 A 
ENDBRANCH   1   8
TORSDOF 5
ENDMDL
MODEL 3
REMARK VINA RESULT:      -5.0      9.929     11.530
REMARK  5 active torsions:
REMARK  status: ('A' for Active; 'I' for Inactive)
REMARK    1  A    between atoms: O_1  and  C_2 
REMARK    2  A    between atoms: C_2  and  C_3 
REMARK    3  A    between atoms: C_3  and  O_4 
REMARK    4  A    between atoms: C_3  and  C_5 
REMARK    5  A    between atoms: C_5  and  C_6 
ROOT
HETATM    1  C   UNK N   1      22.367  19.587   3.215  0.00  0.00     0.072 C 
ENDROOT
BRANCH   1   2
HETATM    2  C   UNK N   1      21.886  20.551   2.134  0.00  0.00     0.145 C 
BRANCH   2   3
HETATM    3  C   UNK N   1      20.782  19.862   1.349  0.00  0.00     0.196 C 
BRANCH   3   4
HETATM    4  O   UNK N   1      20.655  20.435   0.082  0.00  0.00    -0.398 OA
HETATM    5  H   UNK N   1      19.877  20.528  -0.488  0.00  0.00     0.209 HD
ENDBRANCH   3   4
ENDBRANCH   2   3
BRANCH   2   6
HETATM    6  O   UNK N   1      21.371  21.709   2.724  0.00  0.00    -0.393 OA
HETATM    7  H   UNK N   1      20.919  21.662   3.582  0.00  0.00     0.210 HD
ENDBRANCH   2   6
ENDBRANCH   1   2
BRANCH   1   8
HETATM    8  C   UNK N   1      23.833  19.674   3.502  0.00  0.00    -0.056 A 
HETATM    9  C   UNK N   1      24.638  20.530   2.741  0.00  0.00     0.007 A 
HETATM   10  C   UNK N   1      26.018  20.577   2.960  0.00  0.00     0.001 A 
HETATM   11  C   UNK N   1      26.601  19.766   3.940  0.00  0.00     0.000 A 
HETATM   12  C   UNK N   1      25.801  18.908   4.700  0.00  0.00     0.001 A 
HETATM   13  C   UNK N   1      24.424  18.856   4.477  0.00  0.00     0.007 A 
ENDBRANCH   1   8
TORSDOF 5
ENDMDL
MODEL 4
REMARK VINA RESULT:      -5.0     10.193     10.921
REMARK  5 active torsions:
REMARK  status: ('A' for Active; 'I' for Inactive)
REMARK    1  A    between atoms: O_1  and  C_2 
REMARK    2  A    between atoms: C_2  and  C_3 
REMARK    3  A    between atoms: C_3  and  O_4 
REMARK    4  A    between atoms: C_3  and  C_5 
REMARK    5  A    between atoms: C_5  and  C_6 
ROOT
HETATM    1  C   UNK N   1      30.451  17.274   8.732  0.00  0.00     0.072 C 
ENDROOT
BRANCH   1   2
HETATM    2  C   UNK N   1      29.809  18.607   9.104  0.00  0.00     0.145 C 
BRANCH   2   3
HETATM    3  C   UNK N   1      28.415  18.640   8.502  0.00  0.00     0.196 C 
BRANCH   3   4
HETATM    4  O   UNK N   1      27.476  18.165   9.419  0.00  0.00    -0.398 OA
HETATM    5  H   UNK N   1      27.580  17.553  10.163  0.00  0.00     0.209 HD
ENDBRANCH   3   4
ENDBRANCH   2   3
BRANCH   2   6
HETATM    6  O   UNK N   1      29.708  18.716  10.494  0.00  0.00    -0.393 OA
HETATM    7  H   UNK N   1      28.941  19.155  10.896  0.00  0.00     0.210 HD
ENDBRANCH   2   6
ENDBRANCH   1   2
BRANCH   1   8
HETATM    8  C   UNK N   1      31.585  17.391   7.762  0.00  0.00    -0.056 A 
HETATM    9  C   UNK N   1      31.394  17.022   6.425  0.00  0.00     0.007 A 
HETATM   10  C   UNK N   1      32.460  17.072   5.523  0.00  0.00     0.001 A 
HETATM   11  C   UNK N   1      33.724  17.491   5.953  0.00  0.00     0.000 A 
HETATM   12  C   UNK N   1      33.919  17.859   7.287  0.00  0.00     0.001 A 
HETATM   13  C   UNK N   1      32.856  17.802   8.191  0.00  0.00     0.007 A 
ENDBRANCH   1   8
TORSDOF 5
ENDMDL
MODEL 5
REMARK VINA RESULT:      -4.7      9.094     10.971
REMARK  5 active torsions:
REMARK  status: ('A' for Active; 'I' for Inactive)
REMARK    1  A    between atoms: O_1  and  C_2 
REMARK    2  A    between atoms: C_2  and  C_3 
REMARK    3  A    between atoms: C_3  and  O_4 
REMARK    4  A    between atoms: C_3  and  C_5 
REMARK    5  A    between atoms: C_5  and  C_6 
ROOT
HETATM    1  C   UNK N   1      20.691  19.690   3.080  0.00  0.00     0.072 C 
ENDROOT
BRANCH   1   2
HETATM    2  C   UNK N   1      21.489  20.583   2.135  0.00  0.00     0.145 C 
BRANCH   2   3
HETATM    3  C   UNK N   1      20.522  21.185   1.129  0.00  0.00     0.196 C 
BRANCH   3   4
HETATM    4  O   UNK N   1      20.653  20.556  -0.110  0.00  0.00    -0.398 OA
HETATM    5  H   UNK N   1      21.280  19.879  -0.406  0.00  0.00     0.209 HD
ENDBRANCH   3   4
ENDBRANCH   2   3
BRANCH   2   6
HETATM    6  O   UNK N   1      22.099  21.614   2.855  0.00  0.00    -0.393 OA
HETATM    7  H   UNK N   1      21.683  22.490   2.901  0.00  0.00     0.210 HD
ENDBRANCH   2   6
ENDBRANCH   1   2
BRANCH   1   8
HETATM    8  C   UNK N   1      20.882  18.224   2.844  0.00  0.00    -0.056 A 
HETATM    9  C   UNK N   1      21.856  17.527   3.570  0.00  0.00     0.007 A 
HETATM   10  C   UNK N   1      22.084  16.171   3.317  0.00  0.00     0.001 A 
HETATM   11  C   UNK N   1      21.341  15.506   2.336  0.00  0.00     0.000 A 
HETATM   12  C   UNK N   1      20.370  16.199   1.608  0.00  0.00     0.001 A 
HETATM   13  C   UNK N   1      20.147  17.555   1.854  0.00  0.00     0.007 A 
ENDBRANCH   1   8
TORSDOF 5
ENDMDL
MODEL 6
REMARK VINA RESULT:      -4.6      9.769     10.649
REMARK  5 active torsions:
REMARK  status: ('A' for Active; 'I' for Inactive)
REMARK    1  A    between atoms: O_1  and  C_2 
REMARK    2  A    between atoms: C_2  and  C_3 
REMARK    3  A    between atoms: C_3  and  O_4 
REMARK    4  A    between atoms: C_3  and  C_5 
REMARK    5  A    between atoms: C_5  and  C_6 
ROOT
HETATM    1  C   UNK N   1      29.080  17.328   7.794  0.00  0.00     0.072 C 
ENDROOT
BRANCH   1   2
HETATM    2  C   UNK N   1      28.513  18.591   8.435  0.00  0.00     0.145 C 
BRANCH   2   3
HETATM    3  C   UNK N   1      27.917  19.450   7.332  0.00  0.00     0.196 C 
BRANCH   3   4
HETATM    4  O   UNK N   1      27.150  18.667   6.466  0.00  0.00    -0.398 OA
HETATM    5  H   UNK N   1      27.328  17.794   6.087  0.00  0.00     0.209 HD
ENDBRANCH   3   4
ENDBRANCH   2   3
BRANCH   2   6
HETATM    6  O   UNK N   1      27.507  18.254   9.344  0.00  0.00    -0.393 OA
HETATM    7  H   UNK N   1      27.304  17.323   9.525  0.00  0.00     0.210 HD
ENDBRANCH   2   6
ENDBRANCH   1   2
BRANCH   1   8
HETATM    8  C   UNK N   1      30.544  17.401   7.491  0.00  0.00    -0.056 A 
HETATM    9  C   UNK N   1      31.433  17.854   8.473  0.00  0.00     0.007 A 
HETATM   10  C   UNK N   1      32.795  17.981   8.183  0.00  0.00     0.001 A 
HETATM   11  C   UNK N   1      33.274  17.658   6.909  0.00  0.00     0.000 A 
HETATM   12  C   UNK N   1      32.389  17.207   5.926  0.00  0.00     0.001 A 
HETATM   13  C   UNK N   1      31.028  17.087   6.212  0.00  0.00     0.007 A 
ENDBRANCH   1   8
TORSDOF 5
ENDMDL
MODEL 7
REMARK VINA RESULT:      -4.6     12.299     12.913
REMARK  5 active torsions:
REMARK  status: ('A' for Active; 'I' for Inactive)
REMARK    1  A    between atoms: O_1  and  C_2 
REMARK    2  A    between atoms: C_2  and  C_3 
REMARK    3  A    between atoms: C_3  and  O_4 
REMARK    4  A    between atoms: C_3  and  C_5 
REMARK    5  A    between atoms: C_5  and  C_6 
ROOT
HETATM    1  C   UNK N   1      35.462  15.237   9.199  0.00  0.00     0.072 C 
ENDROOT
BRANCH   1   2
HETATM    2  C   UNK N   1      35.569  15.938  10.550  0.00  0.00     0.145 C 
BRANCH   2   3
HETATM    3  C   UNK N   1      34.888  15.062  11.588  0.00  0.00     0.196 C 
BRANCH   3   4
HETATM    4  O   UNK N   1      33.534  14.905  11.282  0.00  0.00    -0.398 OA
HETATM    5  H   UNK N   1      32.798  14.605  11.835  0.00  0.00     0.209 HD
ENDBRANCH   3   4
ENDBRANCH   2   3
BRANCH   2   6
HETATM    6  O   UNK N   1      36.912  16.098  10.899  0.00  0.00    -0.393 OA
HETATM    7  H   UNK N   1      37.157  16.637  11.668  0.00  0.00     0.210 HD
ENDBRANCH   2   6
ENDBRANCH   1   2
BRANCH   1   8
HETATM    8  C   UNK N   1      34.813  16.063   8.132  0.00  0.00    -0.056 A 
HETATM    9  C   UNK N   1      34.216  17.284   8.468  0.00  0.00     0.007 A 
HETATM   10  C   UNK N   1      33.557  18.036   7.492  0.00  0.00     0.001 A 
HETATM   11  C   UNK N   1      33.491  17.571   6.174  0.00  0.00     0.000 A 
HETATM   12  C   UNK N   1      34.084  16.352   5.835  0.00  0.00     0.001 A 
HETATM   13  C   UNK N   1      34.736  15.596   6.811  0.00  0.00     0.007 A 
ENDBRANCH   1   8
TORSDOF 5
ENDMDL
MODEL 8
REMARK VINA RESULT:      -4.6     13.330     14.926
REMARK  5 active torsions:
REMARK  status: ('A' for Active; 'I' for Inactive)
REMARK    1  A    between atoms: O_1  and  C_2 
REMARK    2  A    between atoms: C_2  and  C_3 
REMARK    3  A    between atoms: C_3  and  O_4 
REMARK    4  A    between atoms: C_3  and  C_5 
REMARK    5  A    between atoms: C_5  and  C_6 
ROOT
HETATM    1  C   UNK N   1      36.501  14.022  14.615  0.00  0.00     0.072 C 
ENDROOT
BRANCH   1   2
HETATM    2  C   UNK N   1      36.300  13.415  13.229  0.00  0.00     0.145 C 
BRANCH   2   3
HETATM    3  C   UNK N   1      35.460  14.383  12.412  0.00  0.00     0.196 C 
BRANCH   3   4
HETATM    4  O   UNK N   1      34.232  13.805  12.083  0.00  0.00    -0.398 OA
HETATM    5  H   UNK N   1      33.493  13.539  12.651  0.00  0.00     0.209 HD
ENDBRANCH   3   4
ENDBRANCH   2   3
BRANCH   2   6
HETATM    6  O   UNK N   1      37.536  13.242  12.602  0.00  0.00    -0.393 OA
HETATM    7  H   UNK N   1      37.581  13.071  11.647  0.00  0.00     0.210 HD
ENDBRANCH   2   6
ENDBRANCH   1   2
BRANCH   1   8
HETATM    8  C   UNK N   1      36.165  13.095  15.742  0.00  0.00    -0.056 A 
HETATM    9  C   UNK N   1      36.478  11.734  15.635  0.00  0.00     0.007 A 
HETATM   10  C   UNK N   1      36.118  10.848  16.656  0.00  0.00     0.001 A 
HETATM   11  C   UNK N   1      35.442  11.318  17.786  0.00  0.00     0.000 A 
HETATM   12  C   UNK N   1      35.127  12.676  17.895  0.00  0.00     0.001 A 
HETATM   13  C   UNK N   1      35.479  13.559  16.874  0.00  0.00     0.007 A 
ENDBRANCH   1   8
TORSDOF 5
ENDMDL
MODEL 9
REMARK VINA RESULT:      -4.5     11.751     12.316
REMARK  5 active torsions:
REMARK  status: ('A' for Active; 'I' for Inactive)
REMARK    1  A    between atoms: O_1  and  C_2 
REMARK    2  A    between atoms: C_2  and  C_3 
REMARK    3  A    between atoms: C_3  and  O_4 
REMARK    4  A    between atoms: C_3  and  C_5 
REMARK    5  A    between atoms: C_5  and  C_6 
ROOT
HETATM    1  C   UNK N   1      34.351  17.302   7.004  0.00  0.00     0.072 C 
ENDROOT
BRANCH   1   2
HETATM    2  C   UNK N   1      34.223  18.027   8.341  0.00  0.00     0.145 C 
BRANCH   2   3
HETATM    3  C   UNK N   1      34.643  17.063   9.438  0.00  0.00     0.196 C 
BRANCH   3   4
HETATM    4  O   UNK N   1      35.054  15.847   8.888  0.00  0.00    -0.398 OA
HETATM    5  H   UNK N   1      35.857  15.328   9.046  0.00  0.00     0.209 HD
ENDBRANCH   3   4
ENDBRANCH   2   3
BRANCH   2   6
HETATM    6  O   UNK N   1      35.069  19.139   8.362  0.00  0.00    -0.393 OA
HETATM    7  H   UNK N   1      36.032  19.021   8.339  0.00  0.00     0.210 HD
ENDBRANCH   2   6
ENDBRANCH   1   2
BRANCH   1   8
HETATM    8  C   UNK N   1      33.097  17.303   6.186  0.00  0.00    -0.056 A 
HETATM    9  C   UNK N   1      33.165  17.576   4.815  0.00  0.00     0.007 A 
HETATM   10  C   UNK N   1      31.995  17.637   4.052  0.00  0.00     0.001 A 
HETATM   11  C   UNK N   1      30.751  17.426   4.657  0.00  0.00     0.000 A 
HETATM   12  C   UNK N   1      30.680  17.155   6.026  0.00  0.00     0.001 A 
HETATM   13  C   UNK N   1      31.847  17.101   6.790  0.00  0.00     0.007 A 
ENDBRANCH   1   8
TORSDOF 5
ENDMDL
