REMARK  4 active torsions:
REMARK  status: ('A' for Active; 'I' for Inactive)
REMARK    1  A    between atoms: O_14  and  C_6 
REMARK    2  A    between atoms: C_8  and  C_7 
REMARK    3  A    between atoms: C_9  and  C_8 
REMARK    4  A    between atoms: P_15  and  O_14 
ROOT
HETATM    1  C   UNK N   1      -0.413   2.993   0.106  0.00  0.00     0.165 C 
HETATM    2  C   UNK N   1       0.746   2.288   0.007  0.00  0.00     0.073 C 
ENDROOT
BRANCH   2   3
HETATM    3  C   UNK N   1       0.684   0.779  -0.014  0.00  0.00    -0.017 A 
HETATM    4  C   UNK N   1       1.855   0.001  -0.036  0.00  0.00     0.012 A 
HETATM    5  C   UNK N   1       1.790  -1.396  -0.036  0.00  0.00     0.001 A 
HETATM    6  C   UNK N   1       0.551  -2.039  -0.017  0.00  0.00     0.000 A 
HETATM    7  C   UNK N   1      -0.622  -1.285   0.001  0.00  0.00     0.001 A 
HETATM    8  C   UNK N   1      -0.556   0.110   0.004  0.00  0.00     0.012 A 
ENDBRANCH   2   3
BRANCH   2   9
HETATM    9  C   UNK N   1       2.069   3.009  -0.047  0.00  0.00     0.212 C 
HETATM   10  O   UNK N   1       3.117   2.383  -0.099  0.00  0.00    -0.644 OA
HETATM   11  O   UNK N   1       2.126   4.354  -0.032  0.00  0.00    -0.644 OA
ENDBRANCH   2   9
BRANCH   1  12
HETATM   12  O   UNK N   1      -0.431   4.345   0.153  0.00  0.00    -0.283 OA
BRANCH  12  13
HETATM   13  P   UNK N   1      -1.850   5.212   0.604  0.00  0.00     0.244 P 
HETATM   14  O   UNK N   1      -2.775   4.534  -0.444  0.00  0.00    -0.648 OA
HETATM   15  O   UNK N   1      -1.535   6.420  -0.317  0.00  0.00    -0.648 OA
HETATM   16  H   UNK N   1      -0.812   5.490  -0.261  0.00  0.00     0.164 HD
ENDBRANCH  12  13
ENDBRANCH   1  12
TORSDOF 4
