MODEL 1
REMARK VINA RESULT:      -6.1      0.000      0.000
REMARK  12 active torsions:
REMARK  status: ('A' for Active; 'I' for Inactive)
REMARK    1  A    between atoms: C_6  and  C_1 
REMARK    2  A    between atoms: N_10  and  C_1 
REMARK    3  A    between atoms: C_5  and  C_3 
REMARK    4  A    between atoms: O_11  and  C_3 
REMARK    5  A    between atoms: C_8  and  C_4 
REMARK    6  A    between atoms: O_12  and  C_4 
REMARK    7  A    between atoms: C_8  and  C_6 
REMARK    8  A    between atoms: C_6  and  O_13 
REMARK    9  A    between atoms: C_7  and  O_14 
REMARK   10  A    between atoms: O_19  and  C_8 
REMARK   11  A    between atoms: C_9  and  O_15 
REMARK   12  A    between atoms: S_20  and  O_19 
ROOT
HETATM    1  C   UNK N   1      30.581  17.112   6.778  0.00  0.00     0.307 C 
ENDROOT
BRANCH   1   2
HETATM    2  C   UNK N   1      31.605  15.995   7.100  0.00  0.00     0.179 C 
BRANCH   2   3
HETATM    3  C   UNK N   1      32.434  16.224   8.383  0.00  0.00     0.199 C 
BRANCH   3   4
HETATM    4  C   UNK N   1      32.001  15.183   9.432  0.00  0.00     0.200 C 
BRANCH   4   5
HETATM    5  O   UNK N   1      32.877  15.178  10.521  0.00  0.00    -0.398 OA
HETATM    6  H   UNK N   1      32.975  14.403  11.097  0.00  0.00     0.209 HD
ENDBRANCH   4   5
ENDBRANCH   3   4
BRANCH   3   7
HETATM    7  O   UNK N   1      33.815  16.107   8.087  0.00  0.00    -0.247 OA
BRANCH   7   8
HETATM    8  S   UNK N   1      34.542  17.696   8.297  0.00  0.00     0.252 S 
HETATM    9  O   UNK N   1      35.264  19.268   8.529  0.00  0.00    -0.572 OA
HETATM   10  O   UNK N   1      34.417  17.996   6.578  0.00  0.00    -0.572 OA
HETATM   11  O   UNK N   1      34.848  17.324   9.973  0.00  0.00    -0.572 OA
ENDBRANCH   7   8
ENDBRANCH   3   7
ENDBRANCH   2   3
BRANCH   2  12
HETATM   12  O   UNK N   1      32.451  15.801   6.007  0.00  0.00    -0.391 OA
HETATM   13  H   UNK N   1      32.984  15.118   5.571  0.00  0.00     0.210 HD
ENDBRANCH   2  12
ENDBRANCH   1   2
BRANCH   1  14
HETATM   14  N   UNK N   1      29.209  16.663   6.471  0.00  0.00     0.103 N 
HETATM   15  C   UNK N   1      28.918  17.087   5.091  0.00  0.00     0.307 C 
HETATM   16  C   UNK N   1      28.128  18.392   5.123  0.00  0.00     0.177 C 
HETATM   17  C   UNK N   1      28.156  18.791   6.580  0.00  0.00     0.184 C 
HETATM   18  C   UNK N   1      28.202  17.423   7.243  0.00  0.00     0.277 C 
BRANCH  16  19
HETATM   19  O   UNK N   1      28.716  19.366   4.314  0.00  0.00    -0.391 OA
HETATM   20  H   UNK N   1      28.749  19.764   3.429  0.00  0.00     0.210 HD
ENDBRANCH  16  19
BRANCH  17  21
HETATM   21  O   UNK N   1      27.041  19.550   6.943  0.00  0.00    -0.391 OA
HETATM   22  H   UNK N   1      26.419  19.855   6.264  0.00  0.00     0.210 HD
ENDBRANCH  17  21
BRANCH  18  23
HETATM   23  C   UNK N   1      28.416  17.451   8.765  0.00  0.00     0.202 C 
BRANCH  23  24
HETATM   24  O   UNK N   1      27.432  18.188   9.428  0.00  0.00    -0.399 OA
HETATM   25  H   UNK N   1      26.652  18.337   9.985  0.00  0.00     0.209 HD
ENDBRANCH  23  24
ENDBRANCH  18  23
ENDBRANCH   1  14
TORSDOF 12
ENDMDL
MODEL 2
REMARK VINA RESULT:      -5.8      4.867      7.551
REMARK  12 active torsions:
REMARK  status: ('A' for Active; 'I' for Inactive)
REMARK    1  A    between atoms: C_6  and  C_1 
REMARK    2  A    between atoms: N_10  and  C_1 
REMARK    3  A    between atoms: C_5  and  C_3 
REMARK    4  A    between atoms: O_11  and  C_3 
REMARK    5  A    between atoms: C_8  and  C_4 
REMARK    6  A    between atoms: O_12  and  C_4 
REMARK    7  A    between atoms: C_8  and  C_6 
REMARK    8  A    between atoms: C_6  and  O_13 
REMARK    9  A    between atoms: C_7  and  O_14 
REMARK   10  A    between atoms: O_19  and  C_8 
REMARK   11  A    between atoms: C_9  and  O_15 
REMARK   12  A    between atoms: S_20  and  O_19 
ROOT
HETATM    1  C   UNK N   1      34.200  13.835   9.968  0.00  0.00     0.307 C 
ENDROOT
BRANCH   1   2
HETATM    2  C   UNK N   1      33.775  13.944   8.482  0.00  0.00     0.179 C 
BRANCH   2   3
HETATM    3  C   UNK N   1      34.310  15.191   7.745  0.00  0.00     0.199 C 
BRANCH   3   4
HETATM    4  C   UNK N   1      34.507  14.829   6.261  0.00  0.00     0.200 C 
BRANCH   4   5
HETATM    5  O   UNK N   1      35.595  15.517   5.719  0.00  0.00    -0.398 OA
HETATM    6  H   UNK N   1      36.496  15.409   6.064  0.00  0.00     0.209 HD
ENDBRANCH   4   5
ENDBRANCH   3   4
BRANCH   3   7
HETATM    7  O   UNK N   1      33.395  16.263   7.892  0.00  0.00    -0.247 OA
BRANCH   7   8
HETATM    8  S   UNK N   1      34.330  17.728   8.171  0.00  0.00     0.252 S 
HETATM    9  O   UNK N   1      35.258  19.175   8.470  0.00  0.00    -0.572 OA
HETATM   10  O   UNK N   1      34.289  18.096   6.461  0.00  0.00    -0.572 OA
HETATM   11  O   UNK N   1      34.542  17.264   9.839  0.00  0.00    -0.572 OA
ENDBRANCH   7   8
ENDBRANCH   3   7
ENDBRANCH   2   3
BRANCH   2  12
HETATM   12  O   UNK N   1      32.384  13.886   8.384  0.00  0.00    -0.391 OA
HETATM   13  H   UNK N   1      31.655  14.100   7.781  0.00  0.00     0.210 HD
ENDBRANCH   2  12
ENDBRANCH   1   2
BRANCH   1  14
HETATM   14  N   UNK N   1      35.304  12.899  10.258  0.00  0.00     0.103 N 
HETATM   15  C   UNK N   1      34.832  11.995  11.321  0.00  0.00     0.307 C 
HETATM   16  C   UNK N   1      35.343  12.494  12.668  0.00  0.00     0.177 C 
HETATM   17  C   UNK N   1      35.963  13.834  12.342  0.00  0.00     0.184 C 
HETATM   18  C   UNK N   1      36.437  13.581  10.919  0.00  0.00     0.277 C 
BRANCH  16  19
HETATM   19  O   UNK N   1      34.306  12.622  13.594  0.00  0.00    -0.391 OA
HETATM   20  H   UNK N   1      33.809  13.228  14.165  0.00  0.00     0.210 HD
ENDBRANCH  16  19
BRANCH  17  21
HETATM   21  O   UNK N   1      36.994  14.170  13.222  0.00  0.00    -0.391 OA
HETATM   22  H   UNK N   1      36.889  14.919  13.829  0.00  0.00     0.210 HD
ENDBRANCH  17  21
BRANCH  18  23
HETATM   23  C   UNK N   1      36.979  14.822  10.190  0.00  0.00     0.202 C 
BRANCH  23  24
HETATM   24  O   UNK N   1      36.919  15.972  10.980  0.00  0.00    -0.399 OA
HETATM   25  H   UNK N   1      37.023  16.513  11.779  0.00  0.00     0.209 HD
ENDBRANCH  23  24
ENDBRANCH  18  23
ENDBRANCH   1  14
TORSDOF 12
ENDMDL
MODEL 3
REMARK VINA RESULT:      -5.7      9.928     11.801
REMARK  12 active torsions:
REMARK  status: ('A' for Active; 'I' for Inactive)
REMARK    1  A    between atoms: C_6  and  C_1 
REMARK    2  A    between atoms: N_10  and  C_1 
REMARK    3  A    between atoms: C_5  and  C_3 
REMARK    4  A    between atoms: O_11  and  C_3 
REMARK    5  A    between atoms: C_8  and  C_4 
REMARK    6  A    between atoms: O_12  and  C_4 
REMARK    7  A    between atoms: C_8  and  C_6 
REMARK    8  A    between atoms: C_6  and  O_13 
REMARK    9  A    between atoms: C_7  and  O_14 
REMARK   10  A    between atoms: O_19  and  C_8 
REMARK   11  A    between atoms: C_9  and  O_15 
REMARK   12  A    between atoms: S_20  and  O_19 
ROOT
HETATM    1  C   UNK N   1      21.050  18.808   4.712  0.00  0.00     0.307 C 
ENDROOT
BRANCH   1   2
HETATM    2  C   UNK N   1      21.404  17.848   5.876  0.00  0.00     0.179 C 
BRANCH   2   3
HETATM    3  C   UNK N   1      20.188  17.276   6.637  0.00  0.00     0.199 C 
BRANCH   3   4
HETATM    4  C   UNK N   1      19.720  16.000   5.911  0.00  0.00     0.200 C 
BRANCH   4   5
HETATM    5  O   UNK N   1      18.325  15.958   5.826  0.00  0.00    -0.398 OA
HETATM    6  H   UNK N   1      17.840  15.120   5.762  0.00  0.00     0.209 HD
ENDBRANCH   4   5
ENDBRANCH   3   4
BRANCH   3   7
HETATM    7  O   UNK N   1      20.552  16.996   7.978  0.00  0.00    -0.247 OA
BRANCH   7   8
HETATM    8  S   UNK N   1      19.252  17.573   9.014  0.00  0.00     0.252 S 
HETATM    9  O   UNK N   1      17.952  18.126  10.038  0.00  0.00    -0.572 OA
HETATM   10  O   UNK N   1      20.087  19.095   9.236  0.00  0.00    -0.572 OA
HETATM   11  O   UNK N   1      18.516  15.993   8.956  0.00  0.00    -0.572 OA
ENDBRANCH   7   8
ENDBRANCH   3   7
ENDBRANCH   2   3
BRANCH   2  12
HETATM   12  O   UNK N   1      22.273  18.485   6.763  0.00  0.00    -0.391 OA
HETATM   13  H   UNK N   1      23.129  18.366   7.204  0.00  0.00     0.210 HD
ENDBRANCH   2  12
ENDBRANCH   1   2
BRANCH   1  14
HETATM   14  N   UNK N   1      21.725  18.542   3.426  0.00  0.00     0.103 N 
HETATM   15  C   UNK N   1      22.693  19.631   3.216  0.00  0.00     0.307 C 
HETATM   16  C   UNK N   1      22.077  20.680   2.297  0.00  0.00     0.177 C 
HETATM   17  C   UNK N   1      20.641  20.231   2.153  0.00  0.00     0.184 C 
HETATM   18  C   UNK N   1      20.807  18.724   2.281  0.00  0.00     0.277 C 
BRANCH  16  19
HETATM   19  O   UNK N   1      22.161  21.959   2.850  0.00  0.00    -0.391 OA
HETATM   20  H   UNK N   1      21.946  22.521   3.611  0.00  0.00     0.210 HD
ENDBRANCH  16  19
BRANCH  17  21
HETATM   21  O   UNK N   1      20.080  20.629   0.937  0.00  0.00    -0.391 OA
HETATM   22  H   UNK N   1      19.119  20.727   0.855  0.00  0.00     0.210 HD
ENDBRANCH  17  21
BRANCH  18  23
HETATM   23  C   UNK N   1      19.489  17.934   2.355  0.00  0.00     0.202 C 
BRANCH  23  24
HETATM   24  O   UNK N   1      18.370  18.769   2.387  0.00  0.00    -0.399 OA
HETATM   25  H   UNK N   1      17.436  19.014   2.289  0.00  0.00     0.209 HD
ENDBRANCH  23  24
ENDBRANCH  18  23
ENDBRANCH   1  14
TORSDOF 12
ENDMDL
MODEL 4
REMARK VINA RESULT:      -5.5      0.848      2.364
REMARK  12 active torsions:
REMARK  status: ('A' for Active; 'I' for Inactive)
REMARK    1  A    between atoms: C_6  and  C_1 
REMARK    2  A    between atoms: N_10  and  C_1 
REMARK    3  A    between atoms: C_5  and  C_3 
REMARK    4  A    between atoms: O_11  and  C_3 
REMARK    5  A    between atoms: C_8  and  C_4 
REMARK    6  A    between atoms: O_12  and  C_4 
REMARK    7  A    between atoms: C_8  and  C_6 
REMARK    8  A    between atoms: C_6  and  O_13 
REMARK    9  A    between atoms: C_7  and  O_14 
REMARK   10  A    between atoms: O_19  and  C_8 
REMARK   11  A    between atoms: C_9  and  O_15 
REMARK   12  A    between atoms: S_20  and  O_19 
ROOT
HETATM    1  C   UNK N   1      30.368  16.083   6.949  0.00  0.00     0.307 C 
ENDROOT
BRANCH   1   2
HETATM    2  C   UNK N   1      31.831  15.596   7.099  0.00  0.00     0.179 C 
BRANCH   2   3
HETATM    3  C   UNK N   1      32.558  16.102   8.364  0.00  0.00     0.199 C 
BRANCH   3   4
HETATM    4  C   UNK N   1      32.116  15.233   9.556  0.00  0.00     0.200 C 
BRANCH   4   5
HETATM    5  O   UNK N   1      33.162  15.070  10.470  0.00  0.00    -0.398 OA
HETATM    6  H   UNK N   1      33.182  14.333  11.101  0.00  0.00     0.209 HD
ENDBRANCH   4   5
ENDBRANCH   3   4
BRANCH   3   7
HETATM    7  O   UNK N   1      33.960  16.031   8.171  0.00  0.00    -0.247 OA
BRANCH   7   8
HETATM    8  S   UNK N   1      34.606  17.658   8.353  0.00  0.00     0.252 S 
HETATM    9  O   UNK N   1      35.249  19.267   8.556  0.00  0.00    -0.572 OA
HETATM   10  O   UNK N   1      34.473  17.918   6.628  0.00  0.00    -0.572 OA
HETATM   11  O   UNK N   1      34.926  17.333  10.037  0.00  0.00    -0.572 OA
ENDBRANCH   7   8
ENDBRANCH   3   7
ENDBRANCH   2   3
BRANCH   2  12
HETATM   12  O   UNK N   1      32.559  15.934   5.957  0.00  0.00    -0.391 OA
HETATM   13  H   UNK N   1      32.941  16.699   5.498  0.00  0.00     0.210 HD
ENDBRANCH   2  12
ENDBRANCH   1   2
BRANCH   1  14
HETATM   14  N   UNK N   1      30.168  17.545   6.959  0.00  0.00     0.103 N 
HETATM   15  C   UNK N   1      29.623  17.895   8.281  0.00  0.00     0.307 C 
HETATM   16  C   UNK N   1      28.106  18.022   8.181  0.00  0.00     0.177 C 
HETATM   17  C   UNK N   1      27.798  17.536   6.783  0.00  0.00     0.184 C 
HETATM   18  C   UNK N   1      29.069  17.952   6.058  0.00  0.00     0.277 C 
BRANCH  16  19
HETATM   19  O   UNK N   1      27.462  17.247   9.147  0.00  0.00    -0.391 OA
HETATM   20  H   UNK N   1      27.509  16.875  10.041  0.00  0.00     0.210 HD
ENDBRANCH  16  19
BRANCH  17  21
HETATM   21  O   UNK N   1      26.642  18.118   6.261  0.00  0.00    -0.391 OA
HETATM   22  H   UNK N   1      26.259  18.903   6.685  0.00  0.00     0.210 HD
ENDBRANCH  17  21
BRANCH  18  23
HETATM   23  C   UNK N   1      29.179  17.447   4.609  0.00  0.00     0.202 C 
BRANCH  23  24
HETATM   24  O   UNK N   1      28.353  18.156   3.734  0.00  0.00    -0.399 OA
HETATM   25  H   UNK N   1      27.914  18.933   3.353  0.00  0.00     0.209 HD
ENDBRANCH  23  24
ENDBRANCH  18  23
ENDBRANCH   1  14
TORSDOF 12
ENDMDL
MODEL 5
REMARK VINA RESULT:      -5.5      9.773     11.539
REMARK  12 active torsions:
REMARK  status: ('A' for Active; 'I' for Inactive)
REMARK    1  A    between atoms: C_6  and  C_1 
REMARK    2  A    between atoms: N_10  and  C_1 
REMARK    3  A    between atoms: C_5  and  C_3 
REMARK    4  A    between atoms: O_11  and  C_3 
REMARK    5  A    between atoms: C_8  and  C_4 
REMARK    6  A    between atoms: O_12  and  C_4 
REMARK    7  A    between atoms: C_8  and  C_6 
REMARK    8  A    between atoms: C_6  and  O_13 
REMARK    9  A    between atoms: C_7  and  O_14 
REMARK   10  A    between atoms: O_19  and  C_8 
REMARK   11  A    between atoms: C_9  and  O_15 
REMARK   12  A    between atoms: S_20  and  O_19 
ROOT
HETATM    1  C   UNK N   1      21.751  17.562   4.129  0.00  0.00     0.307 C 
ENDROOT
BRANCH   1   2
HETATM    2  C   UNK N   1      22.047  17.334   5.633  0.00  0.00     0.179 C 
BRANCH   2   3
HETATM    3  C   UNK N   1      20.923  16.621   6.415  0.00  0.00     0.199 C 
BRANCH   3   4
HETATM    4  C   UNK N   1      20.828  15.168   5.910  0.00  0.00     0.200 C 
BRANCH   4   5
HETATM    5  O   UNK N   1      19.517  14.692   6.001  0.00  0.00    -0.398 OA
HETATM    6  H   UNK N   1      19.224  13.901   5.522  0.00  0.00     0.209 HD
ENDBRANCH   4   5
ENDBRANCH   3   4
BRANCH   3   7
HETATM    7  O   UNK N   1      21.206  16.661   7.803  0.00  0.00    -0.247 OA
BRANCH   7   8
HETATM    8  S   UNK N   1      19.784  17.303   8.618  0.00  0.00     0.252 S 
HETATM    9  O   UNK N   1      18.383  17.961   9.423  0.00  0.00    -0.572 OA
HETATM   10  O   UNK N   1      19.149  15.684   8.814  0.00  0.00    -0.572 OA
HETATM   11  O   UNK N   1      20.315  18.923   8.249  0.00  0.00    -0.572 OA
ENDBRANCH   7   8
ENDBRANCH   3   7
ENDBRANCH   2   3
BRANCH   2  12
HETATM   12  O   UNK N   1      22.361  18.551   6.241  0.00  0.00    -0.391 OA
HETATM   13  H   UNK N   1      22.494  19.489   6.037  0.00  0.00     0.210 HD
ENDBRANCH   2  12
ENDBRANCH   1   2
BRANCH   1  14
HETATM   14  N   UNK N   1      20.363  17.932   3.792  0.00  0.00     0.103 N 
HETATM   15  C   UNK N   1      19.856  16.903   2.869  0.00  0.00     0.307 C 
HETATM   16  C   UNK N   1      19.987  17.407   1.435  0.00  0.00     0.177 C 
HETATM   17  C   UNK N   1      20.773  18.690   1.577  0.00  0.00     0.184 C 
HETATM   18  C   UNK N   1      20.312  19.148   2.952  0.00  0.00     0.277 C 
BRANCH  16  19
HETATM   19  O   UNK N   1      20.654  16.484   0.627  0.00  0.00    -0.391 OA
HETATM   20  H   UNK N   1      21.311  15.772   0.594  0.00  0.00     0.210 HD
ENDBRANCH  16  19
BRANCH  17  21
HETATM   21  O   UNK N   1      20.487  19.602   0.560  0.00  0.00    -0.391 OA
HETATM   22  H   UNK N   1      21.124  19.745  -0.159  0.00  0.00     0.210 HD
ENDBRANCH  17  21
BRANCH  18  23
HETATM   23  C   UNK N   1      21.061  20.371   3.509  0.00  0.00     0.202 C 
BRANCH  23  24
HETATM   24  O   UNK N   1      21.227  21.375   2.552  0.00  0.00    -0.399 OA
HETATM   25  H   UNK N   1      21.365  22.275   2.218  0.00  0.00     0.209 HD
ENDBRANCH  23  24
ENDBRANCH  18  23
ENDBRANCH   1  14
TORSDOF 12
ENDMDL
MODEL 6
REMARK VINA RESULT:      -5.4      1.043      2.099
REMARK  12 active torsions:
REMARK  status: ('A' for Active; 'I' for Inactive)
REMARK    1  A    between atoms: C_6  and  C_1 
REMARK    2  A    between atoms: N_10  and  C_1 
REMARK    3  A    between atoms: C_5  and  C_3 
REMARK    4  A    between atoms: O_11  and  C_3 
REMARK    5  A    between atoms: C_8  and  C_4 
REMARK    6  A    between atoms: O_12  and  C_4 
REMARK    7  A    between atoms: C_8  and  C_6 
REMARK    8  A    between atoms: C_6  and  O_13 
REMARK    9  A    between atoms: C_7  and  O_14 
REMARK   10  A    between atoms: O_19  and  C_8 
REMARK   11  A    between atoms: C_9  and  O_15 
REMARK   12  A    between atoms: S_20  and  O_19 
ROOT
HETATM    1  C   UNK N   1      30.472  17.253   6.463  0.00  0.00     0.307 C 
ENDROOT
BRANCH   1   2
HETATM    2  C   UNK N   1      31.516  16.128   6.253  0.00  0.00     0.179 C 
BRANCH   2   3
HETATM    3  C   UNK N   1      32.882  16.375   6.928  0.00  0.00     0.199 C 
BRANCH   3   4
HETATM    4  C   UNK N   1      33.942  16.554   5.825  0.00  0.00     0.200 C 
BRANCH   4   5
HETATM    5  O   UNK N   1      34.019  17.889   5.418  0.00  0.00    -0.398 OA
HETATM    6  H   UNK N   1      34.642  18.181   4.733  0.00  0.00     0.209 HD
ENDBRANCH   4   5
ENDBRANCH   3   4
BRANCH   3   7
HETATM    7  O   UNK N   1      32.806  17.524   7.754  0.00  0.00    -0.247 OA
BRANCH   7   8
HETATM    8  S   UNK N   1      34.164  17.468   8.872  0.00  0.00     0.252 S 
HETATM    9  O   UNK N   1      35.519  17.432   9.970  0.00  0.00    -0.572 OA
HETATM   10  O   UNK N   1      33.529  16.005   9.592  0.00  0.00    -0.572 OA
HETATM   11  O   UNK N   1      34.693  19.026   8.293  0.00  0.00    -0.572 OA
ENDBRANCH   7   8
ENDBRANCH   3   7
ENDBRANCH   2   3
BRANCH   2  12
HETATM   12  O   UNK N   1      31.688  15.894   4.887  0.00  0.00    -0.391 OA
HETATM   13  H   UNK N   1      31.543  15.215   4.209  0.00  0.00     0.210 HD
ENDBRANCH   2  12
ENDBRANCH   1   2
BRANCH   1  14
HETATM   14  N   UNK N   1      29.064  16.886   6.213  0.00  0.00     0.103 N 
HETATM   15  C   UNK N   1      28.700  17.447   4.902  0.00  0.00     0.307 C 
HETATM   16  C   UNK N   1      27.972  18.772   5.108  0.00  0.00     0.177 C 
HETATM   17  C   UNK N   1      28.113  19.031   6.591  0.00  0.00     0.184 C 
HETATM   18  C   UNK N   1      28.144  17.605   7.120  0.00  0.00     0.277 C 
BRANCH  16  19
HETATM   19  O   UNK N   1      28.545  19.796   4.352  0.00  0.00    -0.391 OA
HETATM   20  H   UNK N   1      28.638  20.188   3.470  0.00  0.00     0.210 HD
ENDBRANCH  16  19
BRANCH  17  21
HETATM   21  O   UNK N   1      27.058  19.792   7.099  0.00  0.00    -0.391 OA
HETATM   22  H   UNK N   1      27.115  20.760   7.103  0.00  0.00     0.210 HD
ENDBRANCH  17  21
BRANCH  18  23
HETATM   23  C   UNK N   1      28.461  17.481   8.620  0.00  0.00     0.202 C 
BRANCH  23  24
HETATM   24  O   UNK N   1      27.495  18.096   9.420  0.00  0.00    -0.399 OA
HETATM   25  H   UNK N   1      26.774  18.150  10.068  0.00  0.00     0.209 HD
ENDBRANCH  23  24
ENDBRANCH  18  23
ENDBRANCH   1  14
TORSDOF 12
ENDMDL
MODEL 7
REMARK VINA RESULT:      -5.4      2.804      6.605
REMARK  12 active torsions:
REMARK  status: ('A' for Active; 'I' for Inactive)
REMARK    1  A    between atoms: C_6  and  C_1 
REMARK    2  A    between atoms: N_10  and  C_1 
REMARK    3  A    between atoms: C_5  and  C_3 
REMARK    4  A    between atoms: O_11  and  C_3 
REMARK    5  A    between atoms: C_8  and  C_4 
REMARK    6  A    between atoms: O_12  and  C_4 
REMARK    7  A    between atoms: C_8  and  C_6 
REMARK    8  A    between atoms: C_6  and  O_13 
REMARK    9  A    between atoms: C_7  and  O_14 
REMARK   10  A    between atoms: O_19  and  C_8 
REMARK   11  A    between atoms: C_9  and  O_15 
REMARK   12  A    between atoms: S_20  and  O_19 
ROOT
HETATM    1  C   UNK N   1      31.804  17.084   8.608  0.00  0.00     0.307 C 
ENDROOT
BRANCH   1   2
HETATM    2  C   UNK N   1      30.772  17.522   7.538  0.00  0.00     0.179 C 
BRANCH   2   3
HETATM    3  C   UNK N   1      29.299  17.232   7.899  0.00  0.00     0.199 C 
BRANCH   3   4
HETATM    4  C   UNK N   1      28.936  18.056   9.148  0.00  0.00     0.200 C 
BRANCH   4   5
HETATM    5  O   UNK N   1      27.555  18.054   9.364  0.00  0.00    -0.398 OA
HETATM    6  H   UNK N   1      27.005  18.832   9.179  0.00  0.00     0.209 HD
ENDBRANCH   4   5
ENDBRANCH   3   4
BRANCH   3   7
HETATM    7  O   UNK N   1      28.463  17.568   6.805  0.00  0.00    -0.247 OA
BRANCH   7   8
HETATM    8  S   UNK N   1      27.824  16.068   6.143  0.00  0.00     0.252 S 
HETATM    9  O   UNK N   1      27.176  14.578   5.505  0.00  0.00    -0.572 OA
HETATM   10  O   UNK N   1      28.840  16.242   4.729  0.00  0.00    -0.572 OA
HETATM   11  O   UNK N   1      26.670  15.994   7.449  0.00  0.00    -0.572 OA
ENDBRANCH   7   8
ENDBRANCH   3   7
ENDBRANCH   2   3
BRANCH   2  12
HETATM   12  O   UNK N   1      31.092  16.940   6.310  0.00  0.00    -0.391 OA
HETATM   13  H   UNK N   1      31.069  17.119   5.356  0.00  0.00     0.210 HD
ENDBRANCH   2  12
ENDBRANCH   1   2
BRANCH   1  14
HETATM   14  N   UNK N   1      32.986  16.355   8.108  0.00  0.00     0.103 N 
HETATM   15  C   UNK N   1      33.101  15.124   8.908  0.00  0.00     0.307 C 
HETATM   16  C   UNK N   1      34.120  15.344  10.021  0.00  0.00     0.177 C 
HETATM   17  C   UNK N   1      34.432  16.820   9.935  0.00  0.00     0.184 C 
HETATM   18  C   UNK N   1      34.242  17.058   8.445  0.00  0.00     0.277 C 
BRANCH  16  19
HETATM   19  O   UNK N   1      33.597  15.003  11.270  0.00  0.00    -0.391 OA
HETATM   20  H   UNK N   1      32.851  14.609  11.748  0.00  0.00     0.210 HD
ENDBRANCH  16  19
BRANCH  17  21
HETATM   21  O   UNK N   1      35.719  17.118  10.388  0.00  0.00    -0.391 OA
HETATM   22  H   UNK N   1      36.041  16.739  11.221  0.00  0.00     0.210 HD
ENDBRANCH  17  21
BRANCH  18  23
HETATM   23  C   UNK N   1      34.313  18.532   8.013  0.00  0.00     0.202 C 
BRANCH  23  24
HETATM   24  O   UNK N   1      35.378  19.211   8.609  0.00  0.00    -0.399 OA
HETATM   25  H   UNK N   1      35.877  19.637   9.324  0.00  0.00     0.209 HD
ENDBRANCH  23  24
ENDBRANCH  18  23
ENDBRANCH   1  14
TORSDOF 12
ENDMDL
MODEL 8
REMARK VINA RESULT:      -5.3      8.810     11.918
REMARK  12 active torsions:
REMARK  status: ('A' for Active; 'I' for Inactive)
REMARK    1  A    between atoms: C_6  and  C_1 
REMARK    2  A    between atoms: N_10  and  C_1 
REMARK    3  A    between atoms: C_5  and  C_3 
REMARK    4  A    between atoms: O_11  and  C_3 
REMARK    5  A    between atoms: C_8  and  C_4 
REMARK    6  A    between atoms: O_12  and  C_4 
REMARK    7  A    between atoms: C_8  and  C_6 
REMARK    8  A    between atoms: C_6  and  O_13 
REMARK    9  A    between atoms: C_7  and  O_14 
REMARK   10  A    between atoms: O_19  and  C_8 
REMARK   11  A    between atoms: C_9  and  O_15 
REMARK   12  A    between atoms: S_20  and  O_19 
ROOT
HETATM    1  C   UNK N   1      21.668  13.889   9.815  0.00  0.00     0.307 C 
ENDROOT
BRANCH   1   2
HETATM    2  C   UNK N   1      20.418  14.357   9.028  0.00  0.00     0.179 C 
BRANCH   2   3
HETATM    3  C   UNK N   1      20.503  15.796   8.474  0.00  0.00     0.199 C 
BRANCH   3   4
HETATM    4  C   UNK N   1      21.572  15.826   7.366  0.00  0.00     0.200 C 
BRANCH   4   5
HETATM    5  O   UNK N   1      21.914  17.141   7.036  0.00  0.00    -0.398 OA
HETATM    6  H   UNK N   1      21.687  17.889   7.611  0.00  0.00     0.209 HD
ENDBRANCH   4   5
ENDBRANCH   3   4
BRANCH   3   7
HETATM    7  O   UNK N   1      19.237  16.190   7.973  0.00  0.00    -0.247 OA
BRANCH   7   8
HETATM    8  S   UNK N   1      18.514  17.281   9.150  0.00  0.00     0.252 S 
HETATM    9  O   UNK N   1      17.817  18.375  10.317  0.00  0.00    -0.572 OA
HETATM   10  O   UNK N   1      17.071  16.292   9.200  0.00  0.00    -0.572 OA
HETATM   11  O   UNK N   1      19.862  18.370   8.955  0.00  0.00    -0.572 OA
ENDBRANCH   7   8
ENDBRANCH   3   7
ENDBRANCH   2   3
BRANCH   2  12
HETATM   12  O   UNK N   1      19.280  14.212   9.823  0.00  0.00    -0.391 OA
HETATM   13  H   UNK N   1      18.311  14.228   9.772  0.00  0.00     0.210 HD
ENDBRANCH   2  12
ENDBRANCH   1   2
BRANCH   1  14
HETATM   14  N   UNK N   1      22.001  12.455   9.707  0.00  0.00     0.103 N 
HETATM   15  C   UNK N   1      21.986  11.906  11.073  0.00  0.00     0.307 C 
HETATM   16  C   UNK N   1      23.413  11.857  11.610  0.00  0.00     0.177 C 
HETATM   17  C   UNK N   1      24.216  12.586  10.557  0.00  0.00     0.184 C 
HETATM   18  C   UNK N   1      23.411  12.250   9.311  0.00  0.00     0.277 C 
BRANCH  16  19
HETATM   19  O   UNK N   1      23.514  12.480  12.855  0.00  0.00    -0.391 OA
HETATM   20  H   UNK N   1      23.168  12.529  13.760  0.00  0.00     0.210 HD
ENDBRANCH  16  19
BRANCH  17  21
HETATM   21  O   UNK N   1      25.540  12.145  10.501  0.00  0.00    -0.391 OA
HETATM   22  H   UNK N   1      26.263  12.744  10.748  0.00  0.00     0.210 HD
ENDBRANCH  17  21
BRANCH  18  23
HETATM   23  C   UNK N   1      23.856  12.990   8.038  0.00  0.00     0.202 C 
BRANCH  23  24
HETATM   24  O   UNK N   1      25.230  13.242   8.022  0.00  0.00    -0.399 OA
HETATM   25  H   UNK N   1      26.174  13.050   8.135  0.00  0.00     0.209 HD
ENDBRANCH  23  24
ENDBRANCH  18  23
ENDBRANCH   1  14
TORSDOF 12
ENDMDL
MODEL 9
REMARK VINA RESULT:      -5.2      2.579      6.647
REMARK  12 active torsions:
REMARK  status: ('A' for Active; 'I' for Inactive)
REMARK    1  A    between atoms: C_6  and  C_1 
REMARK    2  A    between atoms: N_10  and  C_1 
REMARK    3  A    between atoms: C_5  and  C_3 
REMARK    4  A    between atoms: O_11  and  C_3 
REMARK    5  A    between atoms: C_8  and  C_4 
REMARK    6  A    between atoms: O_12  and  C_4 
REMARK    7  A    between atoms: C_8  and  C_6 
REMARK    8  A    between atoms: C_6  and  O_13 
REMARK    9  A    between atoms: C_7  and  O_14 
REMARK   10  A    between atoms: O_19  and  C_8 
REMARK   11  A    between atoms: C_9  and  O_15 
REMARK   12  A    between atoms: S_20  and  O_19 
ROOT
HETATM    1  C   UNK N   1      32.030  17.363   8.365  0.00  0.00     0.307 C 
ENDROOT
BRANCH   1   2
HETATM    2  C   UNK N   1      30.646  16.836   7.908  0.00  0.00     0.179 C 
BRANCH   2   3
HETATM    3  C   UNK N   1      30.061  17.543   6.666  0.00  0.00     0.199 C 
BRANCH   3   4
HETATM    4  C   UNK N   1      30.693  16.914   5.410  0.00  0.00     0.200 C 
BRANCH   4   5
HETATM    5  O   UNK N   1      30.634  17.796   4.327  0.00  0.00    -0.398 OA
HETATM    6  H   UNK N   1      29.992  17.684   3.607  0.00  0.00     0.209 HD
ENDBRANCH   4   5
ENDBRANCH   3   4
BRANCH   3   7
HETATM    7  O   UNK N   1      28.651  17.400   6.655  0.00  0.00    -0.247 OA
BRANCH   7   8
HETATM    8  S   UNK N   1      27.952  19.015   6.638  0.00  0.00     0.252 S 
HETATM    9  O   UNK N   1      27.260  20.616   6.598  0.00  0.00    -0.572 OA
HETATM   10  O   UNK N   1      27.885  19.019   8.386  0.00  0.00    -0.572 OA
HETATM   11  O   UNK N   1      27.833  18.936   4.899  0.00  0.00    -0.572 OA
ENDBRANCH   7   8
ENDBRANCH   3   7
ENDBRANCH   2   3
BRANCH   2  12
HETATM   12  O   UNK N   1      29.743  16.901   8.971  0.00  0.00    -0.391 OA
HETATM   13  H   UNK N   1      28.859  17.230   9.196  0.00  0.00     0.210 HD
ENDBRANCH   2  12
ENDBRANCH   1   2
BRANCH   1  14
HETATM   14  N   UNK N   1      33.196  16.555   7.959  0.00  0.00     0.103 N 
HETATM   15  C   UNK N   1      33.134  15.297   8.722  0.00  0.00     0.307 C 
HETATM   16  C   UNK N   1      34.049  15.403   9.938  0.00  0.00     0.177 C 
HETATM   17  C   UNK N   1      34.482  16.851   9.936  0.00  0.00     0.184 C 
HETATM   18  C   UNK N   1      34.463  17.144   8.443  0.00  0.00     0.277 C 
BRANCH  16  19
HETATM   19  O   UNK N   1      33.376  15.071  11.116  0.00  0.00    -0.391 OA
HETATM   20  H   UNK N   1      32.896  14.381  11.601  0.00  0.00     0.210 HD
ENDBRANCH  16  19
BRANCH  17  21
HETATM   21  O   UNK N   1      35.736  17.030  10.524  0.00  0.00    -0.391 OA
HETATM   22  H   UNK N   1      36.035  16.429  11.224  0.00  0.00     0.210 HD
ENDBRANCH  17  21
BRANCH  18  23
HETATM   23  C   UNK N   1      34.692  18.619   8.073  0.00  0.00     0.202 C 
BRANCH  23  24
HETATM   24  O   UNK N   1      35.583  19.254   8.942  0.00  0.00    -0.399 OA
HETATM   25  H   UNK N   1      36.002  19.470   9.790  0.00  0.00     0.209 HD
ENDBRANCH  23  24
ENDBRANCH  18  23
ENDBRANCH   1  14
TORSDOF 12
ENDMDL
