REMARK  10 active torsions:
REMARK  status: ('A' for Active; 'I' for Inactive)
REMARK    1  A    between atoms: C_2  and  C_3 
REMARK    2  A    between atoms: C_2  and  C_20 
REMARK    3  A    between atoms: C_3  and  C_4 
REMARK    4  A    between atoms: C_4  and  C_5 
REMARK    5  A    between atoms: C_5  and  C_6 
REMARK    6  A    between atoms: C_6  and  C_8 
REMARK    7  A    between atoms: C_8  and  C_9 
REMARK    8  A    between atoms: C_9  and  C_10 
REMARK    9  A    between atoms: C_20  and  C_21 
REMARK   10  A    between atoms: C_21  and  O_22 
ROOT
HETATM    1  C   UNK N   1       1.703   3.005   0.006  0.00  0.00     0.007 C 
ENDROOT
BRANCH   1   2
HETATM    2  C   UNK N   1       2.922   3.852  -0.076  0.00  0.00    -0.062 C 
HETATM    3  C   UNK N   1       2.749   5.323   0.079  0.00  0.00     0.048 C 
BRANCH   2   4
HETATM    4  C   UNK N   1       4.168   3.387  -0.285  0.00  0.00     0.007 C 
BRANCH   4   5
HETATM    5  C   UNK N   1       4.515   1.964  -0.475  0.00  0.00     0.001 C 
BRANCH   5   6
HETATM    6  C   UNK N   1       5.769   1.491  -0.517  0.00  0.00     0.006 C 
BRANCH   6   7
HETATM    7  C   UNK N   1       7.011   2.296  -0.458  0.00  0.00    -0.064 C 
HETATM    8  C   UNK N   1       7.008   3.772  -0.736  0.00  0.00     0.048 C 
BRANCH   7   9
HETATM    9  C   UNK N   1       8.150   1.664  -0.152  0.00  0.00     0.005 C 
BRANCH   9  10
HETATM   10  C   UNK N   1       9.469   2.364  -0.032  0.00  0.00     0.192 C 
BRANCH  10  11
HETATM   11  O   UNK N   1       9.436   3.260   1.039  0.00  0.00    -0.397 OA
HETATM   12  H   UNK N   1       9.964   3.590   1.783  0.00  0.00     0.209 HD
ENDBRANCH  10  11
ENDBRANCH   9  10
ENDBRANCH   7   9
ENDBRANCH   6   7
ENDBRANCH   5   6
ENDBRANCH   4   5
ENDBRANCH   2   4
ENDBRANCH   1   2
BRANCH   1  13
HETATM   13  C   UNK N   1       1.729   1.669   0.001  0.00  0.00     0.009 C 
BRANCH  13  14
HETATM   14  C   UNK N   1       0.516   0.805   0.018  0.00  0.00    -0.041 C 
HETATM   15  C   UNK N   1       0.685  -0.541   0.112  0.00  0.00    -0.009 C 
HETATM   16  C   UNK N   1       2.060  -1.149   0.143  0.00  0.00     0.052 C 
HETATM   17  C   UNK N   1      -0.487  -1.440   0.224  0.00  0.00     0.155 C 
HETATM   18  O   UNK N   1      -0.350  -2.652   0.169  0.00  0.00    -0.293 OA
HETATM   19  C   UNK N   1      -1.834  -0.858   0.490  0.00  0.00     0.084 C 
HETATM   20  C   UNK N   1      -1.990   0.386  -0.356  0.00  0.00     0.021 C 
HETATM   21  C   UNK N   1      -0.891   1.423  -0.077  0.00  0.00    -0.019 C 
HETATM   22  C   UNK N   1      -1.210   2.182   1.201  0.00  0.00     0.020 C 
HETATM   23  C   UNK N   1      -0.964   2.391  -1.247  0.00  0.00     0.020 C 
ENDBRANCH  13  14
ENDBRANCH   1  13
TORSDOF 10
