MODEL 1
REMARK VINA RESULT:      -6.5      0.000      0.000
REMARK  8 active torsions:
REMARK  status: ('A' for Active; 'I' for Inactive)
REMARK    1  A    between atoms: C_5  and  C_2 
REMARK    2  A    between atoms: O_24  and  C_2 
REMARK    3  A    between atoms: C_6  and  O_19 
REMARK    4  A    between atoms: C_7  and  O_20 
REMARK    5  A    between atoms: C_9  and  N_18 
REMARK       I    between atoms: N_11  and  C_10 
REMARK    6  A    between atoms: P_26  and  O_21 
REMARK    7  A    between atoms: P_26  and  O_22 
REMARK    8  A    between atoms: P_26  and  O_24 
ROOT
HETATM    1  C   UNK N   1      33.044  15.070   8.471  0.00  0.00     0.180 C 
HETATM    2  C   UNK N   1      33.705  16.192   7.657  0.00  0.00     0.182 C 
HETATM    3  C   UNK N   1      32.525  17.116   7.332  0.00  0.00     0.198 C 
HETATM    4  C   UNK N   1      31.347  16.358   7.942  0.00  0.00     0.261 C 
HETATM    5  O   UNK N   1      31.886  15.641   9.035  0.00  0.00    -0.353 OA
ENDROOT
BRANCH   4   6
HETATM    6  N   UNK N   1      30.220  17.209   8.344  0.00  0.00    -0.308 N 
HETATM    7  C   UNK N   1      29.965  17.693   9.590  0.00  0.00     0.187 A 
HETATM    8  N   UNK N   1      28.893  18.534   9.589  0.00  0.00    -0.336 N 
HETATM    9  C   UNK N   1      28.512  18.577   8.301  0.00  0.00     0.150 A 
ATOM     10  HN  UNK N   1      28.475  19.019  10.382  1.00  0.00     0.168 HD
HETATM   11  C   UNK N   1      29.302  17.786   7.550  0.00  0.00     0.098 A 
HETATM   12  N   UNK N   1      27.522  19.332   7.767  0.00  0.00    -0.175 N 
HETATM   13  C   UNK N   1      29.123  17.718   6.176  0.00  0.00     0.139 A 
HETATM   14  N   UNK N   1      28.125  18.477   5.630  0.00  0.00    -0.200 N 
HETATM   15  C   UNK N   1      27.331  19.279   6.413  0.00  0.00     0.677 A 
HETATM   16  H   UNK N   1      27.973  18.448   4.658  0.00  0.00     0.183 HD
HETATM   17  N   UNK N   1      26.418  19.992   5.871  0.00  0.00    -0.234 N 
HETATM   18  H   UNK N   1      25.857  20.580   6.425  0.00  0.00     0.174 HD
ATOM     19  HN  UNK N   1      26.272  19.950   4.862  1.00  0.00     0.174 HD
ATOM     20  HN  UNK N   1      26.936  19.923   8.358  1.00  0.00     0.186 HD
ENDBRANCH   4   6
BRANCH   3  21
HETATM   21  O   UNK N   1      32.683  18.351   7.976  0.00  0.00    -0.388 OA
HETATM   22  H   UNK N   1      32.383  19.188   8.365  0.00  0.00     0.210 HD
ENDBRANCH   3  21
BRANCH   2  23
HETATM   23  O   UNK N   1      34.641  16.883   8.442  0.00  0.00    -0.390 OA
HETATM   24  H   UNK N   1      35.206  17.203   9.161  0.00  0.00     0.210 HD
ENDBRANCH   2  23
BRANCH   1  25
HETATM   25  C   UNK N   1      33.997  14.491   9.517  0.00  0.00     0.215 C 
BRANCH  25  26
HETATM   26  O   UNK N   1      33.950  15.196  10.729  0.00  0.00    -0.294 OA
BRANCH  26  27
HETATM   27  P   UNK N   1      35.565  15.190  11.392  0.00  0.00     0.390 P 
HETATM   28  O   UNK N   1      35.913  14.604   9.994  0.00  0.00    -0.632 OA
BRANCH  27  29
HETATM   29  O   UNK N   1      36.808  16.279  10.859  0.00  0.00    -0.307 OA
HETATM   30  H   UNK N   1      36.758  16.796  10.041  0.00  0.00     0.222 HD
ENDBRANCH  27  29
BRANCH  27  31
HETATM   31  O   UNK N   1      34.984  16.804  11.121  0.00  0.00    -0.307 OA
HETATM   32  H   UNK N   1      34.346  16.982  10.412  0.00  0.00     0.222 HD
ENDBRANCH  27  31
ENDBRANCH  26  27
ENDBRANCH  25  26
ENDBRANCH   1  25
TORSDOF 8
ENDMDL
MODEL 2
REMARK VINA RESULT:      -6.4     11.656     13.223
REMARK  8 active torsions:
REMARK  status: ('A' for Active; 'I' for Inactive)
REMARK    1  A    between atoms: C_5  and  C_2 
REMARK    2  A    between atoms: O_24  and  C_2 
REMARK    3  A    between atoms: C_6  and  O_19 
REMARK    4  A    between atoms: C_7  and  O_20 
REMARK    5  A    between atoms: C_9  and  N_18 
REMARK       I    between atoms: N_11  and  C_10 
REMARK    6  A    between atoms: P_26  and  O_21 
REMARK    7  A    between atoms: P_26  and  O_22 
REMARK    8  A    between atoms: P_26  and  O_24 
ROOT
HETATM    1  C   UNK N   1      21.222  17.359   3.960  0.00  0.00     0.180 C 
HETATM    2  C   UNK N   1      19.971  16.596   3.498  0.00  0.00     0.182 C 
HETATM    3  C   UNK N   1      19.663  15.691   4.697  0.00  0.00     0.198 C 
HETATM    4  C   UNK N   1      20.820  16.009   5.644  0.00  0.00     0.261 C 
HETATM    5  O   UNK N   1      21.174  17.349   5.368  0.00  0.00    -0.353 OA
ENDROOT
BRANCH   4   6
HETATM    6  N   UNK N   1      20.515  15.801   7.065  0.00  0.00    -0.308 N 
HETATM    7  C   UNK N   1      19.670  16.539   7.836  0.00  0.00     0.187 A 
HETATM    8  N   UNK N   1      19.542  16.008   9.084  0.00  0.00    -0.336 N 
HETATM    9  C   UNK N   1      20.311  14.906   9.052  0.00  0.00     0.150 A 
ATOM     10  HN  UNK N   1      18.991  16.366   9.864  1.00  0.00     0.168 HD
HETATM   11  C   UNK N   1      20.896  14.776   7.846  0.00  0.00     0.098 A 
HETATM   12  N   UNK N   1      20.467  13.991  10.039  0.00  0.00    -0.175 N 
HETATM   13  C   UNK N   1      21.694  13.676   7.569  0.00  0.00     0.139 A 
HETATM   14  N   UNK N   1      21.857  12.749   8.561  0.00  0.00    -0.200 N 
HETATM   15  C   UNK N   1      21.251  12.898   9.784  0.00  0.00     0.677 A 
HETATM   16  H   UNK N   1      22.420  11.958   8.394  0.00  0.00     0.183 HD
HETATM   17  N   UNK N   1      21.406  12.003  10.684  0.00  0.00    -0.234 N 
HETATM   18  H   UNK N   1      20.961  12.097  11.556  0.00  0.00     0.174 HD
ATOM     19  HN  UNK N   1      21.993  11.190  10.497  1.00  0.00     0.174 HD
ATOM     20  HN  UNK N   1      20.013  14.113  10.944  1.00  0.00     0.186 HD
ENDBRANCH   4   6
BRANCH   3  21
HETATM   21  O   UNK N   1      18.447  16.062   5.287  0.00  0.00    -0.388 OA
HETATM   22  H   UNK N   1      17.719  15.994   5.925  0.00  0.00     0.210 HD
ENDBRANCH   3  21
BRANCH   2  23
HETATM   23  O   UNK N   1      18.903  17.483   3.292  0.00  0.00    -0.390 OA
HETATM   24  H   UNK N   1      18.048  17.940   3.308  0.00  0.00     0.210 HD
ENDBRANCH   2  23
BRANCH   1  25
HETATM   25  C   UNK N   1      21.277  18.768   3.371  0.00  0.00     0.215 C 
BRANCH  25  26
HETATM   26  O   UNK N   1      21.080  18.772   1.981  0.00  0.00    -0.294 OA
BRANCH  26  27
HETATM   27  P   UNK N   1      20.644  20.400   1.527  0.00  0.00     0.390 P 
HETATM   28  O   UNK N   1      22.164  20.647   1.749  0.00  0.00    -0.632 OA
BRANCH  27  29
HETATM   29  O   UNK N   1      21.104  21.114   0.012  0.00  0.00    -0.307 OA
HETATM   30  H   UNK N   1      22.016  21.351  -0.217  0.00  0.00     0.222 HD
ENDBRANCH  27  29
BRANCH  27  31
HETATM   31  O   UNK N   1      20.512  19.300   0.190  0.00  0.00    -0.307 OA
HETATM   32  H   UNK N   1      20.304  18.365   0.344  0.00  0.00     0.222 HD
ENDBRANCH  27  31
ENDBRANCH  26  27
ENDBRANCH  25  26
ENDBRANCH   1  25
TORSDOF 8
ENDMDL
MODEL 3
REMARK VINA RESULT:      -6.4      4.346      5.445
REMARK  8 active torsions:
REMARK  status: ('A' for Active; 'I' for Inactive)
REMARK    1  A    between atoms: C_5  and  C_2 
REMARK    2  A    between atoms: O_24  and  C_2 
REMARK    3  A    between atoms: C_6  and  O_19 
REMARK    4  A    between atoms: C_7  and  O_20 
REMARK    5  A    between atoms: C_9  and  N_18 
REMARK       I    between atoms: N_11  and  C_10 
REMARK    6  A    between atoms: P_26  and  O_21 
REMARK    7  A    between atoms: P_26  and  O_22 
REMARK    8  A    between atoms: P_26  and  O_24 
ROOT
HETATM    1  C   UNK N   1      35.423  12.714  11.413  0.00  0.00     0.180 C 
HETATM    2  C   UNK N   1      36.882  12.886  10.966  0.00  0.00     0.182 C 
HETATM    3  C   UNK N   1      36.778  13.959   9.875  0.00  0.00     0.198 C 
HETATM    4  C   UNK N   1      35.270  14.196   9.802  0.00  0.00     0.261 C 
HETATM    5  O   UNK N   1      34.783  13.930  11.101  0.00  0.00    -0.353 OA
ENDROOT
BRANCH   4   6
HETATM    6  N   UNK N   1      34.888  15.534   9.333  0.00  0.00    -0.308 N 
HETATM    7  C   UNK N   1      35.046  16.709  10.001  0.00  0.00     0.187 A 
HETATM    8  N   UNK N   1      34.677  17.773   9.233  0.00  0.00    -0.336 N 
HETATM    9  C   UNK N   1      34.314  17.221   8.063  0.00  0.00     0.150 A 
ATOM     10  HN  UNK N   1      34.676  18.760   9.488  1.00  0.00     0.168 HD
HETATM   11  C   UNK N   1      34.438  15.882   8.116  0.00  0.00     0.098 A 
HETATM   12  N   UNK N   1      33.927  17.872   6.940  0.00  0.00    -0.175 N 
HETATM   13  C   UNK N   1      34.167  15.108   6.997  0.00  0.00     0.139 A 
HETATM   14  N   UNK N   1      33.775  15.758   5.859  0.00  0.00    -0.200 N 
HETATM   15  C   UNK N   1      33.656  17.125   5.825  0.00  0.00     0.677 A 
HETATM   16  H   UNK N   1      33.574  15.234   5.049  0.00  0.00     0.183 HD
HETATM   17  N   UNK N   1      33.306  17.706   4.740  0.00  0.00    -0.234 N 
HETATM   18  H   UNK N   1      33.235  18.686   4.706  0.00  0.00     0.174 HD
ATOM     19  HN  UNK N   1      33.100  17.151   3.910  1.00  0.00     0.174 HD
ATOM     20  HN  UNK N   1      33.840  18.889   6.925  1.00  0.00     0.186 HD
ENDBRANCH   4   6
BRANCH   3  21
HETATM   21  O   UNK N   1      37.426  15.132  10.284  0.00  0.00    -0.388 OA
HETATM   22  H   UNK N   1      38.131  15.799  10.277  0.00  0.00     0.210 HD
ENDBRANCH   3  21
BRANCH   2  23
HETATM   23  O   UNK N   1      37.667  13.368  12.025  0.00  0.00    -0.390 OA
HETATM   24  H   UNK N   1      37.986  13.773  12.846  0.00  0.00     0.210 HD
ENDBRANCH   2  23
BRANCH   1  25
HETATM   25  C   UNK N   1      35.323  12.346  12.894  0.00  0.00     0.215 C 
BRANCH  25  26
HETATM   26  O   UNK N   1      34.976  13.445  13.694  0.00  0.00    -0.294 OA
BRANCH  26  27
HETATM   27  P   UNK N   1      35.959  13.365  15.134  0.00  0.00     0.390 P 
HETATM   28  O   UNK N   1      36.480  12.066  14.455  0.00  0.00    -0.632 OA
BRANCH  27  29
HETATM   29  O   UNK N   1      37.673  13.642  15.125  0.00  0.00    -0.307 OA
HETATM   30  H   UNK N   1      38.086  14.472  15.407  0.00  0.00     0.222 HD
ENDBRANCH  27  29
BRANCH  27  31
HETATM   31  O   UNK N   1      36.429  14.683  14.106  0.00  0.00    -0.307 OA
HETATM   32  H   UNK N   1      37.352  14.778  13.824  0.00  0.00     0.222 HD
ENDBRANCH  27  31
ENDBRANCH  26  27
ENDBRANCH  25  26
ENDBRANCH   1  25
TORSDOF 8
ENDMDL
MODEL 4
REMARK VINA RESULT:      -6.3      6.243      9.108
REMARK  8 active torsions:
REMARK  status: ('A' for Active; 'I' for Inactive)
REMARK    1  A    between atoms: C_5  and  C_2 
REMARK    2  A    between atoms: O_24  and  C_2 
REMARK    3  A    between atoms: C_6  and  O_19 
REMARK    4  A    between atoms: C_7  and  O_20 
REMARK    5  A    between atoms: C_9  and  N_18 
REMARK       I    between atoms: N_11  and  C_10 
REMARK    6  A    between atoms: P_26  and  O_21 
REMARK    7  A    between atoms: P_26  and  O_22 
REMARK    8  A    between atoms: P_26  and  O_24 
ROOT
HETATM    1  C   UNK N   1      34.629  15.414  10.936  0.00  0.00     0.180 C 
HETATM    2  C   UNK N   1      35.905  15.754  11.721  0.00  0.00     0.182 C 
HETATM    3  C   UNK N   1      36.078  14.535  12.635  0.00  0.00     0.198 C 
HETATM    4  C   UNK N   1      34.839  13.705  12.297  0.00  0.00     0.261 C 
HETATM    5  O   UNK N   1      34.538  14.008  10.950  0.00  0.00    -0.353 OA
ENDROOT
BRANCH   4   6
HETATM    6  N   UNK N   1      34.999  12.261  12.514  0.00  0.00    -0.308 N 
HETATM    7  C   UNK N   1      35.355  11.330  11.588  0.00  0.00     0.187 A 
HETATM    8  N   UNK N   1      35.510  10.099  12.152  0.00  0.00    -0.336 N 
HETATM    9  C   UNK N   1      35.266  10.304  13.457  0.00  0.00     0.150 A 
ATOM     10  HN  UNK N   1      35.754   9.224  11.689  1.00  0.00     0.168 HD
HETATM   11  C   UNK N   1      34.960  11.596  13.681  0.00  0.00     0.098 A 
HETATM   12  N   UNK N   1      35.358   9.395  14.457  0.00  0.00    -0.175 N 
HETATM   13  C   UNK N   1      34.723  12.047  14.972  0.00  0.00     0.139 A 
HETATM   14  N   UNK N   1      34.812  11.134  15.986  0.00  0.00    -0.200 N 
HETATM   15  C   UNK N   1      35.128   9.821  15.737  0.00  0.00     0.677 A 
HETATM   16  H   UNK N   1      34.647  11.425  16.912  0.00  0.00     0.183 HD
HETATM   17  N   UNK N   1      35.223   8.995  16.709  0.00  0.00    -0.234 N 
HETATM   18  H   UNK N   1      35.465   8.057  16.538  0.00  0.00     0.174 HD
ATOM     19  HN  UNK N   1      35.048   9.310  17.663  1.00  0.00     0.174 HD
ATOM     20  HN  UNK N   1      35.591   8.421  14.261  1.00  0.00     0.186 HD
ENDBRANCH   4   6
BRANCH   3  21
HETATM   21  O   UNK N   1      37.236  13.827  12.287  0.00  0.00    -0.388 OA
HETATM   22  H   UNK N   1      37.739  13.069  11.947  0.00  0.00     0.210 HD
ENDBRANCH   3  21
BRANCH   2  23
HETATM   23  O   UNK N   1      37.004  15.851  10.853  0.00  0.00    -0.390 OA
HETATM   24  H   UNK N   1      37.833  15.707  10.371  0.00  0.00     0.210 HD
ENDBRANCH   2  23
BRANCH   1  25
HETATM   25  C   UNK N   1      34.658  16.000   9.524  0.00  0.00     0.215 C 
BRANCH  25  26
HETATM   26  O   UNK N   1      34.829  17.393   9.530  0.00  0.00    -0.294 OA
BRANCH  26  27
HETATM   27  P   UNK N   1      33.912  18.029   8.187  0.00  0.00     0.390 P 
HETATM   28  O   UNK N   1      34.999  19.141   8.241  0.00  0.00    -0.632 OA
BRANCH  27  29
HETATM   29  O   UNK N   1      34.499  18.019   6.553  0.00  0.00    -0.307 OA
HETATM   30  H   UNK N   1      35.221  18.582   6.236  0.00  0.00     0.222 HD
ENDBRANCH  27  29
BRANCH  27  31
HETATM   31  O   UNK N   1      34.731  16.556   7.769  0.00  0.00    -0.307 OA
HETATM   32  H   UNK N   1      34.267  15.862   7.273  0.00  0.00     0.222 HD
ENDBRANCH  27  31
ENDBRANCH  26  27
ENDBRANCH  25  26
ENDBRANCH   1  25
TORSDOF 8
ENDMDL
MODEL 5
REMARK VINA RESULT:      -6.2      8.386     11.036
REMARK  8 active torsions:
REMARK  status: ('A' for Active; 'I' for Inactive)
REMARK    1  A    between atoms: C_5  and  C_2 
REMARK    2  A    between atoms: O_24  and  C_2 
REMARK    3  A    between atoms: C_6  and  O_19 
REMARK    4  A    between atoms: C_7  and  O_20 
REMARK    5  A    between atoms: C_9  and  N_18 
REMARK       I    between atoms: N_11  and  C_10 
REMARK    6  A    between atoms: P_26  and  O_21 
REMARK    7  A    between atoms: P_26  and  O_22 
REMARK    8  A    between atoms: P_26  and  O_24 
ROOT
HETATM    1  C   UNK N   1      36.431  13.646  13.680  0.00  0.00     0.180 C 
HETATM    2  C   UNK N   1      35.422  12.502  13.505  0.00  0.00     0.182 C 
HETATM    3  C   UNK N   1      35.212  12.012  14.944  0.00  0.00     0.198 C 
HETATM    4  C   UNK N   1      36.182  12.895  15.727  0.00  0.00     0.261 C 
HETATM    5  O   UNK N   1      36.261  14.105  15.001  0.00  0.00    -0.353 OA
ENDROOT
BRANCH   4   6
HETATM    6  N   UNK N   1      35.804  13.117  17.129  0.00  0.00    -0.308 N 
HETATM    7  C   UNK N   1      35.390  14.286  17.688  0.00  0.00     0.187 A 
HETATM    8  N   UNK N   1      35.021  14.114  18.988  0.00  0.00    -0.336 N 
HETATM    9  C   UNK N   1      35.193  12.800  19.206  0.00  0.00     0.150 A 
ATOM     10  HN  UNK N   1      34.691  14.821  19.645  1.00  0.00     0.168 HD
HETATM   11  C   UNK N   1      35.661  12.196  18.097  0.00  0.00     0.098 A 
HETATM   12  N   UNK N   1      34.899  12.115  20.338  0.00  0.00    -0.175 N 
HETATM   13  C   UNK N   1      35.862  10.824  18.077  0.00  0.00     0.139 A 
HETATM   14  N   UNK N   1      35.569  10.126  19.216  0.00  0.00    -0.200 N 
HETATM   15  C   UNK N   1      35.090  10.759  20.337  0.00  0.00     0.677 A 
HETATM   16  H   UNK N   1      35.704   9.151  19.233  0.00  0.00     0.183 HD
HETATM   17  N   UNK N   1      34.807  10.077  21.380  0.00  0.00    -0.234 N 
HETATM   18  H   UNK N   1      34.448  10.523  22.180  0.00  0.00     0.174 HD
ATOM     19  HN  UNK N   1      34.953   9.067  21.383  1.00  0.00     0.174 HD
ATOM     20  HN  UNK N   1      34.545  12.595  21.165  1.00  0.00     0.186 HD
ENDBRANCH   4   6
BRANCH   3  21
HETATM   21  O   UNK N   1      33.897  12.265  15.356  0.00  0.00    -0.388 OA
HETATM   22  H   UNK N   1      33.075  12.089  15.841  0.00  0.00     0.210 HD
ENDBRANCH   3  21
BRANCH   2  23
HETATM   23  O   UNK N   1      34.210  12.989  12.993  0.00  0.00    -0.390 OA
HETATM   24  H   UNK N   1      33.421  13.161  12.455  0.00  0.00     0.210 HD
ENDBRANCH   2  23
BRANCH   1  25
HETATM   25  C   UNK N   1      36.231  14.743  12.633  0.00  0.00     0.215 C 
BRANCH  25  26
HETATM   26  O   UNK N   1      36.250  14.238  11.324  0.00  0.00    -0.294 OA
BRANCH  26  27
HETATM   27  P   UNK N   1      35.366  15.365  10.326  0.00  0.00     0.390 P 
HETATM   28  O   UNK N   1      34.303  15.209  11.452  0.00  0.00    -0.632 OA
BRANCH  27  29
HETATM   29  O   UNK N   1      35.096  17.019  10.780  0.00  0.00    -0.307 OA
HETATM   30  H   UNK N   1      34.477  17.294  11.473  0.00  0.00     0.222 HD
ENDBRANCH  27  29
BRANCH  27  31
HETATM   31  O   UNK N   1      36.756  16.105  11.057  0.00  0.00    -0.307 OA
HETATM   32  H   UNK N   1      36.853  16.117  12.023  0.00  0.00     0.222 HD
ENDBRANCH  27  31
ENDBRANCH  26  27
ENDBRANCH  25  26
ENDBRANCH   1  25
TORSDOF 8
ENDMDL
MODEL 6
REMARK VINA RESULT:      -6.1      2.277      3.949
REMARK  8 active torsions:
REMARK  status: ('A' for Active; 'I' for Inactive)
REMARK    1  A    between atoms: C_5  and  C_2 
REMARK    2  A    between atoms: O_24  and  C_2 
REMARK    3  A    between atoms: C_6  and  O_19 
REMARK    4  A    between atoms: C_7  and  O_20 
REMARK    5  A    between atoms: C_9  and  N_18 
REMARK       I    between atoms: N_11  and  C_10 
REMARK    6  A    between atoms: P_26  and  O_21 
REMARK    7  A    between atoms: P_26  and  O_22 
REMARK    8  A    between atoms: P_26  and  O_24 
ROOT
HETATM    1  C   UNK N   1      30.701  18.054   8.392  0.00  0.00     0.180 C 
HETATM    2  C   UNK N   1      29.708  18.371   9.520  0.00  0.00     0.182 C 
HETATM    3  C   UNK N   1      28.378  18.517   8.771  0.00  0.00     0.198 C 
HETATM    4  C   UNK N   1      28.809  18.336   7.316  0.00  0.00     0.261 C 
HETATM    5  O   UNK N   1      29.933  17.481   7.359  0.00  0.00    -0.353 OA
ENDROOT
BRANCH   4   6
HETATM    6  N   UNK N   1      27.757  17.820   6.431  0.00  0.00    -0.308 N 
HETATM    7  C   UNK N   1      27.364  16.523   6.300  0.00  0.00     0.187 A 
HETATM    8  N   UNK N   1      26.292  16.409   5.467  0.00  0.00    -0.336 N 
HETATM    9  C   UNK N   1      26.018  17.676   5.110  0.00  0.00     0.150 A 
ATOM     10  HN  UNK N   1      25.809  15.559   5.180  1.00  0.00     0.168 HD
HETATM   11  C   UNK N   1      26.891  18.525   5.684  0.00  0.00     0.098 A 
HETATM   12  N   UNK N   1      24.991  18.101   4.336  0.00  0.00    -0.175 N 
HETATM   13  C   UNK N   1      26.764  19.894   5.497  0.00  0.00     0.139 A 
HETATM   14  N   UNK N   1      25.731  20.331   4.716  0.00  0.00    -0.200 N 
HETATM   15  C   UNK N   1      24.849  19.449   4.141  0.00  0.00     0.677 A 
HETATM   16  H   UNK N   1      25.616  21.297   4.563  0.00  0.00     0.183 HD
HETATM   17  N   UNK N   1      23.880  19.890   3.432  0.00  0.00    -0.234 N 
HETATM   18  H   UNK N   1      23.236  19.263   3.031  0.00  0.00     0.174 HD
ATOM     19  HN  UNK N   1      23.775  20.893   3.282  1.00  0.00     0.174 HD
ATOM     20  HN  UNK N   1      24.342  17.437   3.913  1.00  0.00     0.186 HD
ENDBRANCH   4   6
BRANCH   3  21
HETATM   21  O   UNK N   1      27.497  17.491   9.139  0.00  0.00    -0.388 OA
HETATM   22  H   UNK N   1      26.999  16.668   9.011  0.00  0.00     0.210 HD
ENDBRANCH   3  21
BRANCH   2  23
HETATM   23  O   UNK N   1      29.625  17.295  10.418  0.00  0.00    -0.390 OA
HETATM   24  H   UNK N   1      29.427  16.713  11.168  0.00  0.00     0.210 HD
ENDBRANCH   2  23
BRANCH   1  25
HETATM   25  C   UNK N   1      31.834  17.147   8.872  0.00  0.00     0.215 C 
BRANCH  25  26
HETATM   26  O   UNK N   1      31.565  15.790   8.640  0.00  0.00    -0.294 OA
BRANCH  26  27
HETATM   27  P   UNK N   1      32.843  14.874   9.398  0.00  0.00     0.390 P 
HETATM   28  O   UNK N   1      33.594  16.233   9.299  0.00  0.00    -0.632 OA
BRANCH  27  29
HETATM   29  O   UNK N   1      33.333  15.120  11.045  0.00  0.00    -0.307 OA
HETATM   30  H   UNK N   1      32.860  14.756  11.809  0.00  0.00     0.222 HD
ENDBRANCH  27  29
BRANCH  27  31
HETATM   31  O   UNK N   1      31.504  15.125  10.475  0.00  0.00    -0.307 OA
HETATM   32  H   UNK N   1      30.606  15.230  10.122  0.00  0.00     0.222 HD
ENDBRANCH  27  31
ENDBRANCH  26  27
ENDBRANCH  25  26
ENDBRANCH   1  25
TORSDOF 8
ENDMDL
MODEL 7
REMARK VINA RESULT:      -6.1      6.795      9.600
REMARK  8 active torsions:
REMARK  status: ('A' for Active; 'I' for Inactive)
REMARK    1  A    between atoms: C_5  and  C_2 
REMARK    2  A    between atoms: O_24  and  C_2 
REMARK    3  A    between atoms: C_6  and  O_19 
REMARK    4  A    between atoms: C_7  and  O_20 
REMARK    5  A    between atoms: C_9  and  N_18 
REMARK       I    between atoms: N_11  and  C_10 
REMARK    6  A    between atoms: P_26  and  O_21 
REMARK    7  A    between atoms: P_26  and  O_22 
REMARK    8  A    between atoms: P_26  and  O_24 
ROOT
HETATM    1  C   UNK N   1      25.197  19.329   4.872  0.00  0.00     0.180 C 
HETATM    2  C   UNK N   1      26.169  20.488   4.607  0.00  0.00     0.182 C 
HETATM    3  C   UNK N   1      27.483  19.973   5.209  0.00  0.00     0.198 C 
HETATM    4  C   UNK N   1      27.059  18.627   5.797  0.00  0.00     0.261 C 
HETATM    5  O   UNK N   1      25.999  18.176   4.979  0.00  0.00    -0.353 OA
ENDROOT
BRANCH   4   6
HETATM    6  N   UNK N   1      28.142  17.639   5.891  0.00  0.00    -0.308 N 
HETATM    7  C   UNK N   1      28.476  16.703   4.962  0.00  0.00     0.187 A 
HETATM    8  N   UNK N   1      29.596  16.017   5.326  0.00  0.00    -0.336 N 
HETATM    9  C   UNK N   1      29.957  16.576   6.494  0.00  0.00     0.150 A 
ATOM     10  HN  UNK N   1      30.054  15.254   4.828  1.00  0.00     0.168 HD
HETATM   11  C   UNK N   1      29.091  17.548   6.837  0.00  0.00     0.098 A 
HETATM   12  N   UNK N   1      31.056  16.286   7.232  0.00  0.00    -0.175 N 
HETATM   13  C   UNK N   1      29.300  18.300   7.985  0.00  0.00     0.139 A 
HETATM   14  N   UNK N   1      30.406  18.011   8.736  0.00  0.00    -0.200 N 
HETATM   15  C   UNK N   1      31.279  17.018   8.367  0.00  0.00     0.677 A 
HETATM   16  H   UNK N   1      30.579  18.527   9.557  0.00  0.00     0.183 HD
HETATM   17  N   UNK N   1      32.315  16.785   9.080  0.00  0.00    -0.234 N 
HETATM   18  H   UNK N   1      32.952  16.085   8.811  0.00  0.00     0.174 HD
ATOM     19  HN  UNK N   1      32.481  17.326   9.928  1.00  0.00     0.174 HD
ATOM     20  HN  UNK N   1      31.697  15.544   6.949  1.00  0.00     0.186 HD
ENDBRANCH   4   6
BRANCH   3  21
HETATM   21  O   UNK N   1      28.435  19.775   4.201  0.00  0.00    -0.388 OA
HETATM   22  H   UNK N   1      28.740  19.636   3.290  0.00  0.00     0.210 HD
ENDBRANCH   3  21
BRANCH   2  23
HETATM   23  O   UNK N   1      26.331  20.687   3.227  0.00  0.00    -0.390 OA
HETATM   24  H   UNK N   1      26.220  20.936   2.297  0.00  0.00     0.210 HD
ENDBRANCH   2  23
BRANCH   1  25
HETATM   25  C   UNK N   1      24.132  19.221   3.780  0.00  0.00     0.215 C 
BRANCH  25  26
HETATM   26  O   UNK N   1      23.609  20.472   3.421  0.00  0.00    -0.294 OA
BRANCH  26  27
HETATM   27  P   UNK N   1      22.028  20.192   2.736  0.00  0.00     0.390 P 
HETATM   28  O   UNK N   1      21.718  19.699   4.178  0.00  0.00    -0.632 OA
BRANCH  27  29
HETATM   29  O   UNK N   1      20.639  21.153   3.139  0.00  0.00    -0.307 OA
HETATM   30  H   UNK N   1      19.775  21.057   2.711  0.00  0.00     0.222 HD
ENDBRANCH  27  29
BRANCH  27  31
HETATM   31  O   UNK N   1      22.386  21.887   2.858  0.00  0.00    -0.307 OA
HETATM   32  H   UNK N   1      21.937  22.435   3.521  0.00  0.00     0.222 HD
ENDBRANCH  27  31
ENDBRANCH  26  27
ENDBRANCH  25  26
ENDBRANCH   1  25
TORSDOF 8
ENDMDL
MODEL 8
REMARK VINA RESULT:      -6.0      9.605     11.106
REMARK  8 active torsions:
REMARK  status: ('A' for Active; 'I' for Inactive)
REMARK    1  A    between atoms: C_5  and  C_2 
REMARK    2  A    between atoms: O_24  and  C_2 
REMARK    3  A    between atoms: C_6  and  O_19 
REMARK    4  A    between atoms: C_7  and  O_20 
REMARK    5  A    between atoms: C_9  and  N_18 
REMARK       I    between atoms: N_11  and  C_10 
REMARK    6  A    between atoms: P_26  and  O_21 
REMARK    7  A    between atoms: P_26  and  O_22 
REMARK    8  A    between atoms: P_26  and  O_24 
ROOT
HETATM    1  C   UNK N   1      22.042  14.734   7.893  0.00  0.00     0.180 C 
HETATM    2  C   UNK N   1      20.829  15.381   8.578  0.00  0.00     0.182 C 
HETATM    3  C   UNK N   1      20.224  16.237   7.458  0.00  0.00     0.198 C 
HETATM    4  C   UNK N   1      21.216  16.016   6.316  0.00  0.00     0.261 C 
HETATM    5  O   UNK N   1      21.740  14.719   6.517  0.00  0.00    -0.353 OA
ENDROOT
BRANCH   4   6
HETATM    6  N   UNK N   1      20.640  16.175   4.974  0.00  0.00    -0.308 N 
HETATM    7  C   UNK N   1      19.889  15.267   4.295  0.00  0.00     0.187 A 
HETATM    8  N   UNK N   1      19.431  15.778   3.118  0.00  0.00    -0.336 N 
HETATM    9  C   UNK N   1      19.900  17.038   3.104  0.00  0.00     0.150 A 
ATOM     10  HN  UNK N   1      18.865  15.312   2.409  1.00  0.00     0.168 HD
HETATM   11  C   UNK N   1      20.624  17.282   4.212  0.00  0.00     0.098 A 
HETATM   12  N   UNK N   1      19.662  17.987   2.167  0.00  0.00    -0.175 N 
HETATM   13  C   UNK N   1      21.162  18.541   4.435  0.00  0.00     0.139 A 
HETATM   14  N   UNK N   1      20.927  19.504   3.493  0.00  0.00    -0.200 N 
HETATM   15  C   UNK N   1      20.184  19.236   2.370  0.00  0.00     0.677 A 
HETATM   16  H   UNK N   1      21.298  20.407   3.623  0.00  0.00     0.183 HD
HETATM   17  N   UNK N   1      19.965  20.163   1.517  0.00  0.00    -0.234 N 
HETATM   18  H   UNK N   1      19.420  19.980   0.718  0.00  0.00     0.174 HD
ATOM     19  HN  UNK N   1      20.356  21.093   1.664  1.00  0.00     0.174 HD
ATOM     20  HN  UNK N   1      19.110  17.776   1.335  1.00  0.00     0.186 HD
ENDBRANCH   4   6
BRANCH   3  21
HETATM   21  O   UNK N   1      18.963  15.745   7.097  0.00  0.00    -0.388 OA
HETATM   22  H   UNK N   1      18.322  15.296   6.523  0.00  0.00     0.210 HD
ENDBRANCH   3  21
BRANCH   2  23
HETATM   23  O   UNK N   1      19.905  14.400   8.971  0.00  0.00    -0.390 OA
HETATM   24  H   UNK N   1      19.190  13.747   9.005  0.00  0.00     0.210 HD
ENDBRANCH   2  23
BRANCH   1  25
HETATM   25  C   UNK N   1      22.337  13.343   8.458  0.00  0.00     0.215 C 
BRANCH  25  26
HETATM   26  O   UNK N   1      22.697  13.385   9.814  0.00  0.00    -0.294 OA
BRANCH  26  27
HETATM   27  P   UNK N   1      24.014  12.261  10.031  0.00  0.00     0.390 P 
HETATM   28  O   UNK N   1      24.867  13.509   9.661  0.00  0.00    -0.632 OA
BRANCH  27  29
HETATM   29  O   UNK N   1      25.113  12.341  11.374  0.00  0.00    -0.307 OA
HETATM   30  H   UNK N   1      25.793  13.025  11.473  0.00  0.00     0.222 HD
ENDBRANCH  27  29
BRANCH  27  31
HETATM   31  O   UNK N   1      23.226  12.629  11.534  0.00  0.00    -0.307 OA
HETATM   32  H   UNK N   1      23.482  12.165  12.347  0.00  0.00     0.222 HD
ENDBRANCH  27  31
ENDBRANCH  26  27
ENDBRANCH  25  26
ENDBRANCH   1  25
TORSDOF 8
ENDMDL
MODEL 9
REMARK VINA RESULT:      -5.9      1.789      2.249
REMARK  8 active torsions:
REMARK  status: ('A' for Active; 'I' for Inactive)
REMARK    1  A    between atoms: C_5  and  C_2 
REMARK    2  A    between atoms: O_24  and  C_2 
REMARK    3  A    between atoms: C_6  and  O_19 
REMARK    4  A    between atoms: C_7  and  O_20 
REMARK    5  A    between atoms: C_9  and  N_18 
REMARK       I    between atoms: N_11  and  C_10 
REMARK    6  A    between atoms: P_26  and  O_21 
REMARK    7  A    between atoms: P_26  and  O_22 
REMARK    8  A    between atoms: P_26  and  O_24 
ROOT
HETATM    1  C   UNK N   1      33.898  15.060   9.742  0.00  0.00     0.180 C 
HETATM    2  C   UNK N   1      34.623  16.350   9.333  0.00  0.00     0.182 C 
HETATM    3  C   UNK N   1      33.596  17.046   8.430  0.00  0.00     0.198 C 
HETATM    4  C   UNK N   1      32.460  16.024   8.393  0.00  0.00     0.261 C 
HETATM    5  O   UNK N   1      32.523  15.345   9.630  0.00  0.00    -0.353 OA
ENDROOT
BRANCH   4   6
HETATM    6  N   UNK N   1      31.133  16.602   8.147  0.00  0.00    -0.308 N 
HETATM    7  C   UNK N   1      30.230  17.002   9.084  0.00  0.00     0.187 A 
HETATM    8  N   UNK N   1      29.142  17.587   8.510  0.00  0.00    -0.336 N 
HETATM    9  C   UNK N   1      29.411  17.560   7.194  0.00  0.00     0.150 A 
ATOM     10  HN  UNK N   1      28.313  17.959   8.973  1.00  0.00     0.168 HD
HETATM   11  C   UNK N   1      30.602  16.972   6.970  0.00  0.00     0.098 A 
HETATM   12  N   UNK N   1      28.661  18.086   6.196  0.00  0.00    -0.175 N 
HETATM   13  C   UNK N   1      31.108  16.883   5.681  0.00  0.00     0.139 A 
HETATM   14  N   UNK N   1      30.356  17.410   4.669  0.00  0.00    -0.200 N 
HETATM   15  C   UNK N   1      29.145  18.008   4.918  0.00  0.00     0.677 A 
HETATM   16  H   UNK N   1      30.689  17.360   3.743  0.00  0.00     0.183 HD
HETATM   17  N   UNK N   1      28.473  18.510   3.952  0.00  0.00    -0.234 N 
HETATM   18  H   UNK N   1      27.613  18.953   4.127  0.00  0.00     0.174 HD
ATOM     19  HN  UNK N   1      28.830  18.449   2.999  1.00  0.00     0.174 HD
ATOM     20  HN  UNK N   1      27.762  18.527   6.392  1.00  0.00     0.186 HD
ENDBRANCH   4   6
BRANCH   3  21
HETATM   21  O   UNK N   1      33.151  18.233   9.026  0.00  0.00    -0.388 OA
HETATM   22  H   UNK N   1      32.727  19.106   9.045  0.00  0.00     0.210 HD
ENDBRANCH   3  21
BRANCH   2  23
HETATM   23  O   UNK N   1      34.877  17.149  10.458  0.00  0.00    -0.390 OA
HETATM   24  H   UNK N   1      35.263  17.564  11.245  0.00  0.00     0.210 HD
ENDBRANCH   2  23
BRANCH   1  25
HETATM   25  C   UNK N   1      34.304  14.601  11.143  0.00  0.00     0.215 C 
BRANCH  25  26
HETATM   26  O   UNK N   1      35.682  14.353  11.242  0.00  0.00    -0.294 OA
BRANCH  26  27
HETATM   27  P   UNK N   1      36.116  14.528  12.924  0.00  0.00     0.390 P 
HETATM   28  O   UNK N   1      34.954  13.511  13.116  0.00  0.00    -0.632 OA
BRANCH  27  29
HETATM   29  O   UNK N   1      36.900  13.273  13.834  0.00  0.00    -0.307 OA
HETATM   30  H   UNK N   1      36.780  13.144  14.787  0.00  0.00     0.222 HD
ENDBRANCH  27  29
BRANCH  27  31
HETATM   31  O   UNK N   1      37.350  13.705  12.022  0.00  0.00    -0.307 OA
HETATM   32  H   UNK N   1      37.949  13.084  12.467  0.00  0.00     0.222 HD
ENDBRANCH  27  31
ENDBRANCH  26  27
ENDBRANCH  25  26
ENDBRANCH   1  25
TORSDOF 8
ENDMDL
