REMARK  5 active torsions:
REMARK  status: ('A' for Active; 'I' for Inactive)
REMARK    1  A    between atoms: O_1  and  C_2 
REMARK    2  A    between atoms: C_2  and  C_3 
REMARK    3  A    between atoms: C_3  and  O_4 
REMARK    4  A    between atoms: C_3  and  C_5 
REMARK    5  A    between atoms: C_5  and  C_6 
ROOT
HETATM    1  C   UNK N   1       0.806   2.677  -0.702  0.00  0.00     0.072 C 
ENDROOT
BRANCH   1   2
HETATM    2  C   UNK N   1      -0.112   3.443   0.246  0.00  0.00     0.145 C 
BRANCH   2   3
HETATM    3  C   UNK N   1      -0.064   4.912  -0.140  0.00  0.00     0.196 C 
BRANCH   3   4
HETATM    4  O   UNK N   1      -0.980   5.645   0.617  0.00  0.00    -0.398 OA
HETATM    5  H   UNK N   1      -0.857   6.450   1.142  0.00  0.00     0.209 HD
ENDBRANCH   3   4
ENDBRANCH   2   3
BRANCH   2   6
HETATM    6  O   UNK N   1      -1.424   2.980   0.116  0.00  0.00    -0.393 OA
HETATM    7  H   UNK N   1      -2.158   3.609   0.026  0.00  0.00     0.210 HD
ENDBRANCH   2   6
ENDBRANCH   1   2
BRANCH   1   8
HETATM    8  C   UNK N   1       0.914   1.215  -0.399  0.00  0.00    -0.056 A 
HETATM    9  C   UNK N   1       2.172   0.648  -0.161  0.00  0.00     0.007 A 
HETATM   10  C   UNK N   1       2.292  -0.726   0.066  0.00  0.00     0.001 A 
HETATM   11  C   UNK N   1       1.155  -1.541   0.054  0.00  0.00     0.000 A 
HETATM   12  C   UNK N   1      -0.102  -0.979  -0.185  0.00  0.00     0.001 A 
HETATM   13  C   UNK N   1      -0.222   0.392  -0.419  0.00  0.00     0.007 A 
ENDBRANCH   1   8
TORSDOF 5
