REMARK  14 active torsions:
REMARK  status: ('A' for Active; 'I' for Inactive)
REMARK    1  A    between atoms: C_4  and  C_3 
REMARK    2  A    between atoms: C_5  and  C_4 
REMARK    3  A    between atoms: C_12  and  C_5 
REMARK    4  A    between atoms: C_11  and  C_7 
REMARK    5  A    between atoms: N_17  and  C_7 
REMARK    6  A    between atoms: C_10  and  C_8 
REMARK    7  A    between atoms: O_24  and  C_8 
REMARK    8  A    between atoms: C_14  and  C_12 
REMARK    9  A    between atoms: C_12  and  N_17 
REMARK   10  A    between atoms: O_18  and  C_13 
REMARK   11  A    between atoms: O_20  and  C_14 
REMARK   12  A    between atoms: P_25  and  O_21 
REMARK   13  A    between atoms: P_25  and  O_22 
REMARK   14  A    between atoms: P_25  and  O_24 
ROOT
HETATM    1  C   UNK N   1      10.564  -4.893   0.219  0.00  0.00     0.071 C 
HETATM    2  C   UNK N   1      11.433  -1.264   0.296  0.00  0.00     0.098 A 
HETATM    3  C   UNK N   1      10.425  -3.410   0.127  0.00  0.00     0.039 A 
HETATM    4  C   UNK N   1      10.227  -0.638  -0.041  0.00  0.00    -0.008 A 
HETATM    5  C   UNK N   1       9.097  -1.431  -0.301  0.00  0.00     0.004 A 
HETATM    6  C   UNK N   1       9.194  -2.830  -0.212  0.00  0.00     0.096 A 
HETATM    7  N   UNK N   1      11.506  -2.622   0.368  0.00  0.00    -0.367 N 
ATOM      8  HN  UNK N   1      12.395  -3.059   0.610  1.00  0.00     0.165 HD
ENDROOT
BRANCH   5   9
HETATM    9  C   UNK N   1       7.806  -0.780  -0.697  0.00  0.00     0.157 C 
BRANCH   9  10
HETATM   10  N   UNK N   1       6.756  -1.018   0.288  0.00  0.00    -0.404 N 
HETATM   11  H   UNK N   1       6.829  -1.629   1.102  0.00  0.00     0.154 HD
BRANCH  10  12
HETATM   12  C   UNK N   1       5.577  -0.231  -0.089  0.00  0.00     0.175 C 
BRANCH  12  13
HETATM   13  C   UNK N   1       4.345  -0.874   0.545  0.00  0.00     0.035 C 
BRANCH  13  14
HETATM   14  C   UNK N   1       3.059  -0.286  -0.014  0.00  0.00     0.002 C 
BRANCH  14  15
HETATM   15  C   UNK N   1       1.878  -1.142   0.385  0.00  0.00    -0.004 C 
HETATM   16  C   UNK N   1       0.610  -0.529  -0.171  0.00  0.00     0.005 C 
ENDBRANCH  14  15
ENDBRANCH  13  14
ENDBRANCH  12  13
BRANCH  12  17
HETATM   17  C   UNK N   1       5.723   1.214   0.345  0.00  0.00     0.163 C 
HETATM   18  O   UNK N   1       6.716   1.585   0.953  0.00  0.00    -0.648 OA
BRANCH  17  19
HETATM   19  O   UNK N   1       4.760   2.107   0.046  0.00  0.00    -0.775 OA
HETATM   20  H   UNK N   1       4.964   2.998  -0.162  0.00  0.00     0.167 HD
ENDBRANCH  17  19
ENDBRANCH  12  17
ENDBRANCH  10  12
ENDBRANCH   9  10
ENDBRANCH   5   9
BRANCH   4  21
HETATM   21  C   UNK N   1      10.127   0.861  -0.138  0.00  0.00     0.221 C 
BRANCH  21  22
HETATM   22  O   UNK N   1      11.145   1.523   0.557  0.00  0.00    -0.292 OA
BRANCH  22  23
HETATM   23  P   UNK N   1      11.146   3.168  -0.037  0.00  0.00     0.391 P 
HETATM   24  O   UNK N   1       9.733   3.533  -0.576  0.00  0.00    -0.632 OA
BRANCH  23  25
HETATM   25  O   UNK N   1      11.486   4.299   1.235  0.00  0.00    -0.307 OA
HETATM   26  H   UNK N   1      12.128   4.450   1.947  0.00  0.00     0.222 HD
ENDBRANCH  23  25
BRANCH  23  27
HETATM   27  O   UNK N   1      12.265   3.372  -1.347  0.00  0.00    -0.307 OA
HETATM   28  H   UNK N   1      12.677   2.888  -2.080  0.00  0.00     0.222 HD
ENDBRANCH  23  27
ENDBRANCH  22  23
ENDBRANCH  21  22
ENDBRANCH   4  21
BRANCH   6  29
HETATM   29  O   UNK N   1       8.122  -3.606  -0.456  0.00  0.00    -0.358 OA
HETATM   30  H   UNK N   1       7.281  -3.229  -0.626  0.00  0.00     0.217 HD
ENDBRANCH   6  29
TORSDOF 14
