REMARK  12 active torsions:
REMARK  status: ('A' for Active; 'I' for Inactive)
REMARK    1  A    between atoms: C_6  and  C_7 
REMARK    2  A    between atoms: C_7  and  O_8 
REMARK    3  A    between atoms: O_8  and  P_9 
REMARK    4  A    between atoms: P_9  and  O_10 
REMARK    5  A    between atoms: P_9  and  O_11 
REMARK    6  A    between atoms: C_13  and  C_14 
REMARK    7  A    between atoms: C_14  and  N_15 
REMARK    8  A    between atoms: N_15  and  O_16 
REMARK    9  A    between atoms: O_16  and  C_17 
REMARK   10  A    between atoms: C_17  and  C_18 
REMARK   11  A    between atoms: C_18  and  O_19 
REMARK   12  A    between atoms: C_21  and  O_22 
ROOT
HETATM    1  C   UNK N   1      -2.712  -1.152   0.614  0.00  0.00     0.071 C 
HETATM    2  C   UNK N   1      -1.433  -0.454   0.302  0.00  0.00     0.039 A 
HETATM    3  N   UNK N   1      -1.402   0.904   0.290  0.00  0.00    -0.367 N 
ATOM      4  HN  UNK N   1      -2.251   1.422   0.514  1.00  0.00     0.165 HD
HETATM    5  C   UNK N   1      -0.267   1.591  -0.012  0.00  0.00     0.098 A 
HETATM    6  C   UNK N   1       0.912   0.908  -0.319  0.00  0.00    -0.008 A 
HETATM    7  C   UNK N   1       0.914  -0.503  -0.304  0.00  0.00     0.006 A 
HETATM    8  C   UNK N   1      -0.273  -1.187   0.009  0.00  0.00     0.096 A 
ENDROOT
BRANCH   7   9
HETATM    9  C   UNK N   1       2.144  -1.293  -0.653  0.00  0.00     0.188 C 
BRANCH   9  10
HETATM   10  N   UNK N   1       3.236  -0.995   0.259  0.00  0.00    -0.298 N 
HETATM   11  H   UNK N   1       3.287  -1.224   1.252  0.00  0.00     0.187 HD
BRANCH  10  12
HETATM   12  O   UNK N   1       4.174  -0.352  -0.477  0.00  0.00    -0.274 OA
BRANCH  12  13
HETATM   13  C   UNK N   1       5.148   0.038   0.440  0.00  0.00     0.310 C 
BRANCH  13  14
HETATM   14  C   UNK N   1       6.444  -0.606   0.088  0.00  0.00     0.166 C 
HETATM   15  O   UNK N   1       6.543  -1.822   0.089  0.00  0.00    -0.648 OA
BRANCH  14  16
HETATM   16  O   UNK N   1       7.505   0.155  -0.237  0.00  0.00    -0.775 OA
HETATM   17  H   UNK N   1       8.334  -0.220  -0.464  0.00  0.00     0.167 HD
ENDBRANCH  14  16
ENDBRANCH  13  14
ENDBRANCH  12  13
ENDBRANCH  10  12
ENDBRANCH   9  10
ENDBRANCH   7   9
BRANCH   6  18
HETATM   18  C   UNK N   1       2.129   1.690  -0.706  0.00  0.00     0.221 C 
BRANCH  18  19
HETATM   19  O   UNK N   1       2.557   2.524   0.333  0.00  0.00    -0.292 OA
BRANCH  19  20
HETATM   20  P   UNK N   1       3.703   3.591  -0.427  0.00  0.00     0.391 P 
HETATM   21  O   UNK N   1       4.553   3.012   0.735  0.00  0.00    -0.632 OA
BRANCH  20  22
HETATM   22  O   UNK N   1       4.283   5.028   0.354  0.00  0.00    -0.307 OA
HETATM   23  H   UNK N   1       5.141   5.149   0.790  0.00  0.00     0.222 HD
ENDBRANCH  20  22
BRANCH  20  24
HETATM   24  O   UNK N   1       2.395   4.514   0.248  0.00  0.00    -0.307 OA
HETATM   25  H   UNK N   1       2.476   5.404   0.624  0.00  0.00     0.222 HD
ENDBRANCH  20  24
ENDBRANCH  19  20
ENDBRANCH  18  19
ENDBRANCH   6  18
BRANCH   8  26
HETATM   26  O   UNK N   1      -0.302  -2.533   0.013  0.00  0.00    -0.358 OA
HETATM   27  H   UNK N   1      -1.124  -2.984   0.016  0.00  0.00     0.217 HD
ENDBRANCH   8  26
TORSDOF 12
