REMARK  4 active torsions:
REMARK  status: ('A' for Active; 'I' for Inactive)
REMARK    1  A    between atoms: C_5  and  C_1 
REMARK    2  A    between atoms: C_6  and  C_1 
REMARK    3  A    between atoms: C_5  and  C_3 
REMARK    4  A    between atoms: C_5  and  N_8 
REMARK       I    between atoms: N_17  and  C_7 
ROOT
HETATM    1  C   UNK N   1      -0.309  -0.843   0.212  0.00  0.00     0.141 A 
HETATM    2  C   UNK N   1      -2.055  -2.112   0.011  0.00  0.00     0.206 A 
HETATM    3  C   UNK N   1      -1.451  -0.079   0.314  0.00  0.00     0.029 A 
HETATM    4  C   UNK N   1       0.131  -3.269  -0.049  0.00  0.00     0.718 A 
HETATM    5  N   UNK N   1      -2.538  -0.868   0.198  0.00  0.00    -0.354 N 
ATOM      6  HN  UNK N   1      -3.516  -0.584   0.242  1.00  0.00     0.166 HD
HETATM    7  N   UNK N   1      -0.317  -4.533  -0.112  0.00  0.00    -0.117 N 
ATOM      8  HN  UNK N   1      -1.288  -4.845  -0.157  1.00  0.00     0.207 HD
HETATM    9  N   UNK N   1       1.472  -3.245   0.005  0.00  0.00    -0.113 N 
ATOM     10  HN  UNK N   1       2.075  -2.425   0.064  1.00  0.00     0.203 HD
HETATM   11  N   UNK N   1       0.769  -5.289  -0.102  0.00  0.00    -0.211 N 
HETATM   12  N   UNK N   1       1.844  -4.515  -0.033  0.00  0.00     0.009 NA
HETATM   13  N   UNK N   1      -0.708  -2.113   0.022  0.00  0.00    -0.150 N 
HETATM   14  H   UNK N   1       0.778  -6.272  -0.140  0.00  0.00     0.206 HD
ENDROOT
BRANCH   3  15
HETATM   15  C   UNK N   1      -1.500   1.367   0.705  0.00  0.00     0.090 C 
BRANCH  15  16
HETATM   16  C   UNK N   1      -2.347   2.274  -0.185  0.00  0.00     0.141 C 
BRANCH  16  17
HETATM   17  C   UNK N   1      -2.459   3.592   0.513  0.00  0.00     0.256 C 
HETATM   18  O   UNK N   1      -3.127   4.496   0.039  0.00  0.00    -0.305 OA
ENDBRANCH  16  17
BRANCH  16  19
HETATM   19  N   UNK N   1      -3.681   1.720  -0.358  0.00  0.00    -0.420 N 
HETATM   20  H   UNK N   1      -4.485   2.336  -0.479  0.00  0.00     0.150 HD
HETATM   21  H   UNK N   1      -3.814   0.708  -0.358  0.00  0.00     0.150 HD
ENDBRANCH  16  19
ENDBRANCH  15  16
ENDBRANCH   3  15
TORSDOF 4
