MODEL 1
REMARK VINA RESULT:      -6.5      0.000      0.000
REMARK  26 active torsions:
REMARK  status: ('A' for Active; 'I' for Inactive)
REMARK    1  A    between atoms: C_6  and  C_5 
REMARK    2  A    between atoms: C_10  and  C_6 
REMARK    3  A    between atoms: C_15  and  C_10 
REMARK    4  A    between atoms: N_32  and  C_15 
REMARK    5  A    between atoms: C_20  and  C_17 
REMARK    6  A    between atoms: C_24  and  C_17 
REMARK    7  A    between atoms: C_21  and  C_18 
REMARK    8  A    between atoms: C_23  and  C_18 
REMARK    9  A    between atoms: C_26  and  C_19 
REMARK   10  A    between atoms: O_42  and  C_19 
REMARK   11  A    between atoms: C_29  and  C_22 
REMARK   12  A    between atoms: C_27  and  C_23 
REMARK   13  A    between atoms: C_23  and  N_33 
REMARK   14  A    between atoms: C_28  and  C_24 
REMARK   15  A    between atoms: C_24  and  N_34 
REMARK   16  A    between atoms: O_42  and  C_25 
REMARK   17  A    between atoms: O_36  and  C_26 
REMARK   18  A    between atoms: N_32  and  C_27 
REMARK   19  A    between atoms: C_27  and  O_37 
REMARK   20  A    between atoms: N_33  and  C_28 
REMARK   21  A    between atoms: C_28  and  O_38 
REMARK   22  A    between atoms: O_40  and  C_29 
REMARK   23  A    between atoms: N_34  and  C_30 
REMARK   24  A    between atoms: C_30  and  O_41 
REMARK   25  A    between atoms: O_43  and  C_30 
REMARK   26  A    between atoms: O_43  and  C_31 
ROOT
HETATM    1  C   UNK N   1      33.749  16.587   9.217  0.00  0.00     0.131 C 
ENDROOT
BRANCH   1   2
HETATM    2  C   UNK N   1      33.595  17.366   7.878  0.00  0.00     0.067 C 
BRANCH   2   3
HETATM    3  C   UNK N   1      32.169  17.574   7.478  0.00  0.00    -0.055 A 
HETATM    4  C   UNK N   1      31.703  16.989   6.308  0.00  0.00     0.010 A 
HETATM    5  C   UNK N   1      30.335  16.908   6.073  0.00  0.00     0.038 A 
HETATM    6  C   UNK N   1      29.396  17.331   7.027  0.00  0.00     0.086 A 
HETATM    7  C   UNK N   1      29.883  17.934   8.250  0.00  0.00     0.071 A 
HETATM    8  C   UNK N   1      31.264  18.076   8.412  0.00  0.00     0.028 A 
BRANCH   6   9
HETATM    9  O   UNK N   1      28.092  17.123   6.689  0.00  0.00    -0.340 OA
BRANCH   9  10
HETATM   10  C   UNK N   1      27.309  17.809   5.791  0.00  0.00     0.285 C 
BRANCH  10  11
HETATM   11  C   UNK N   1      27.556  19.284   5.845  0.00  0.00     0.164 C 
HETATM   12  O   UNK N   1      27.226  19.910   6.838  0.00  0.00    -0.648 OA
BRANCH  11  13
HETATM   13  O   UNK N   1      28.171  19.918   4.829  0.00  0.00    -0.775 OA
HETATM   14  H   UNK N   1      27.903  20.546   4.187  0.00  0.00     0.167 HD
ENDBRANCH  11  13
ENDBRANCH  10  11
ENDBRANCH   9  10
ENDBRANCH   6   9
BRANCH   7  15
HETATM   15  C   UNK N   1      29.087  18.316   9.458  0.00  0.00     0.178 C 
HETATM   16  O   UNK N   1      29.598  18.821  10.435  0.00  0.00    -0.646 OA
BRANCH  15  17
HETATM   17  O   UNK N   1      27.739  18.257   9.398  0.00  0.00    -0.773 OA
HETATM   18  H   UNK N   1      26.979  18.798   9.301  0.00  0.00     0.167 HD
ENDBRANCH  15  17
ENDBRANCH   7  15
ENDBRANCH   2   3
ENDBRANCH   1   2
BRANCH   1  19
HETATM   19  C   UNK N   1      32.816  15.306   9.353  0.00  0.00     0.236 C 
BRANCH  19  20
HETATM   20  N   UNK N   1      33.491  14.087   8.898  0.00  0.00    -0.395 N 
HETATM   21  H   UNK N   1      34.108  13.509   9.469  0.00  0.00     0.155 HD
BRANCH  20  22
HETATM   22  C   UNK N   1      33.146  13.827   7.500  0.00  0.00     0.116 C 
BRANCH  22  23
HETATM   23  C   UNK N   1      34.345  13.282   6.762  0.00  0.00     0.019 C 
BRANCH  23  24
HETATM   24  C   UNK N   1      35.186  14.441   6.262  0.00  0.00     0.001 C 
BRANCH  24  25
HETATM   25  C   UNK N   1      34.524  15.071   5.050  0.00  0.00    -0.004 C 
HETATM   26  C   UNK N   1      34.427  14.066   3.916  0.00  0.00     0.005 C 
ENDBRANCH  24  25
ENDBRANCH  23  24
ENDBRANCH  22  23
ENDBRANCH  20  22
ENDBRANCH  19  20
BRANCH  19  27
HETATM   27  O   UNK N   1      32.342  15.045  10.636  0.00  0.00    -0.375 OA
HETATM   28  H   UNK N   1      31.649  14.397  10.839  0.00  0.00     0.212 HD
ENDBRANCH  19  27
ENDBRANCH   1  19
BRANCH   1  29
HETATM   29  N   UNK N   1      35.199  16.277   9.331  0.00  0.00    -0.387 N 
HETATM   30  H   UNK N   1      35.769  16.188   8.489  0.00  0.00     0.156 HD
BRANCH  29  31
HETATM   31  C   UNK N   1      35.814  16.097  10.663  0.00  0.00     0.236 C 
BRANCH  31  32
HETATM   32  C   UNK N   1      36.348  14.646  10.869  0.00  0.00     0.133 C 
BRANCH  32  33
HETATM   33  C   UNK N   1      37.690  14.377  10.152  0.00  0.00     0.067 C 
BRANCH  33  34
HETATM   34  C   UNK N   1      37.649  13.300   9.111  0.00  0.00    -0.056 A 
HETATM   35  C   UNK N   1      38.356  13.433   7.908  0.00  0.00     0.007 A 
HETATM   36  C   UNK N   1      38.315  12.414   6.952  0.00  0.00     0.001 A 
HETATM   37  C   UNK N   1      37.556  11.264   7.189  0.00  0.00     0.000 A 
HETATM   38  C   UNK N   1      36.837  11.135   8.381  0.00  0.00     0.001 A 
HETATM   39  C   UNK N   1      36.885  12.151   9.341  0.00  0.00     0.007 A 
ENDBRANCH  33  34
ENDBRANCH  32  33
BRANCH  32  40
HETATM   40  N   UNK N   1      36.384  14.290  12.297  0.00  0.00    -0.367 N 
HETATM   41  H   UNK N   1      37.057  14.715  12.934  0.00  0.00     0.158 HD
BRANCH  40  42
HETATM   42  C   UNK N   1      35.413  13.304  12.765  0.00  0.00     0.364 C 
BRANCH  42  43
HETATM   43  O   UNK N   1      34.275  13.377  11.954  0.00  0.00    -0.355 OA
HETATM   44  H   UNK N   1      33.928  14.041  11.337  0.00  0.00     0.214 HD
ENDBRANCH  42  43
BRANCH  42  45
HETATM   45  O   UNK N   1      35.095  13.643  14.106  0.00  0.00    -0.334 OA
BRANCH  45  46
HETATM   46  C   UNK N   1      35.178  12.569  15.034  0.00  0.00     0.055 C 
HETATM   47  C   UNK N   1      34.072  11.550  14.807  0.00  0.00     0.045 C 
HETATM   48  C   UNK N   1      36.539  11.881  15.058  0.00  0.00     0.045 C 
HETATM   49  C   UNK N   1      34.960  13.151  16.414  0.00  0.00     0.045 C 
ENDBRANCH  45  46
ENDBRANCH  42  45
ENDBRANCH  40  42
ENDBRANCH  32  40
ENDBRANCH  31  32
BRANCH  31  50
HETATM   50  O   UNK N   1      34.930  16.484  11.673  0.00  0.00    -0.375 OA
HETATM   51  H   UNK N   1      35.099  16.265  12.602  0.00  0.00     0.212 HD
ENDBRANCH  31  50
ENDBRANCH  29  31
ENDBRANCH   1  29
TORSDOF 26
ENDMDL
MODEL 2
REMARK VINA RESULT:      -6.2      3.254      5.185
REMARK  26 active torsions:
REMARK  status: ('A' for Active; 'I' for Inactive)
REMARK    1  A    between atoms: C_6  and  C_5 
REMARK    2  A    between atoms: C_10  and  C_6 
REMARK    3  A    between atoms: C_15  and  C_10 
REMARK    4  A    between atoms: N_32  and  C_15 
REMARK    5  A    between atoms: C_20  and  C_17 
REMARK    6  A    between atoms: C_24  and  C_17 
REMARK    7  A    between atoms: C_21  and  C_18 
REMARK    8  A    between atoms: C_23  and  C_18 
REMARK    9  A    between atoms: C_26  and  C_19 
REMARK   10  A    between atoms: O_42  and  C_19 
REMARK   11  A    between atoms: C_29  and  C_22 
REMARK   12  A    between atoms: C_27  and  C_23 
REMARK   13  A    between atoms: C_23  and  N_33 
REMARK   14  A    between atoms: C_28  and  C_24 
REMARK   15  A    between atoms: C_24  and  N_34 
REMARK   16  A    between atoms: O_42  and  C_25 
REMARK   17  A    between atoms: O_36  and  C_26 
REMARK   18  A    between atoms: N_32  and  C_27 
REMARK   19  A    between atoms: C_27  and  O_37 
REMARK   20  A    between atoms: N_33  and  C_28 
REMARK   21  A    between atoms: C_28  and  O_38 
REMARK   22  A    between atoms: O_40  and  C_29 
REMARK   23  A    between atoms: N_34  and  C_30 
REMARK   24  A    between atoms: C_30  and  O_41 
REMARK   25  A    between atoms: O_43  and  C_30 
REMARK   26  A    between atoms: O_43  and  C_31 
ROOT
HETATM    1  C   UNK N   1      35.784  15.419   9.901  0.00  0.00     0.131 C 
ENDROOT
BRANCH   1   2
HETATM    2  C   UNK N   1      34.648  14.356   9.847  0.00  0.00     0.067 C 
BRANCH   2   3
HETATM    3  C   UNK N   1      34.282  13.955   8.454  0.00  0.00    -0.055 A 
HETATM    4  C   UNK N   1      32.940  13.873   8.106  0.00  0.00     0.010 A 
HETATM    5  C   UNK N   1      32.577  13.805   6.765  0.00  0.00     0.038 A 
HETATM    6  C   UNK N   1      33.527  13.899   5.737  0.00  0.00     0.086 A 
HETATM    7  C   UNK N   1      34.926  13.993   6.101  0.00  0.00     0.071 A 
HETATM    8  C   UNK N   1      35.257  13.970   7.459  0.00  0.00     0.028 A 
BRANCH   6   9
HETATM    9  O   UNK N   1      33.018  13.892   4.473  0.00  0.00    -0.340 OA
BRANCH   9  10
HETATM   10  C   UNK N   1      32.844  12.832   3.615  0.00  0.00     0.285 C 
BRANCH  10  11
HETATM   11  C   UNK N   1      33.086  13.220   2.189  0.00  0.00     0.164 C 
HETATM   12  O   UNK N   1      33.832  14.152   1.941  0.00  0.00    -0.648 OA
BRANCH  11  13
HETATM   13  O   UNK N   1      32.521  12.528   1.181  0.00  0.00    -0.775 OA
HETATM   14  H   UNK N   1      32.833  12.170   0.374  0.00  0.00     0.167 HD
ENDBRANCH  11  13
ENDBRANCH  10  11
ENDBRANCH   9  10
ENDBRANCH   6   9
BRANCH   7  15
HETATM   15  C   UNK N   1      36.088  14.251   5.196  0.00  0.00     0.178 C 
HETATM   16  O   UNK N   1      37.094  14.811   5.579  0.00  0.00    -0.646 OA
BRANCH  15  17
HETATM   17  O   UNK N   1      36.094  13.696   3.964  0.00  0.00    -0.773 OA
HETATM   18  H   UNK N   1      35.837  12.923   3.501  0.00  0.00     0.167 HD
ENDBRANCH  15  17
ENDBRANCH   7  15
ENDBRANCH   2   3
ENDBRANCH   1   2
BRANCH   1  19
HETATM   19  C   UNK N   1      35.297  16.899  10.225  0.00  0.00     0.236 C 
BRANCH  19  20
HETATM   20  N   UNK N   1      34.061  17.236   9.513  0.00  0.00    -0.395 N 
HETATM   21  H   UNK N   1      33.120  17.150   9.897  0.00  0.00     0.155 HD
BRANCH  20  22
HETATM   22  C   UNK N   1      34.383  17.714   8.168  0.00  0.00     0.116 C 
BRANCH  22  23
HETATM   23  C   UNK N   1      33.200  17.516   7.250  0.00  0.00     0.019 C 
BRANCH  23  24
HETATM   24  C   UNK N   1      33.683  17.524   5.812  0.00  0.00     0.001 C 
BRANCH  24  25
HETATM   25  C   UNK N   1      32.502  17.365   4.872  0.00  0.00    -0.004 C 
HETATM   26  C   UNK N   1      31.232  17.088   5.658  0.00  0.00     0.005 C 
ENDBRANCH  24  25
ENDBRANCH  23  24
ENDBRANCH  22  23
ENDBRANCH  20  22
ENDBRANCH  19  20
BRANCH  19  27
HETATM   27  O   UNK N   1      35.070  17.172  11.571  0.00  0.00    -0.375 OA
HETATM   28  H   UNK N   1      35.190  18.046  11.976  0.00  0.00     0.212 HD
ENDBRANCH  19  27
ENDBRANCH   1  19
BRANCH   1  29
HETATM   29  N   UNK N   1      36.772  14.895  10.881  0.00  0.00    -0.387 N 
HETATM   30  H   UNK N   1      37.111  15.495  11.633  0.00  0.00     0.156 HD
BRANCH  29  31
HETATM   31  C   UNK N   1      37.263  13.506  10.765  0.00  0.00     0.236 C 
BRANCH  31  32
HETATM   32  C   UNK N   1      36.584  12.557  11.800  0.00  0.00     0.133 C 
BRANCH  32  33
HETATM   33  C   UNK N   1      36.521  11.085  11.334  0.00  0.00     0.067 C 
BRANCH  33  34
HETATM   34  C   UNK N   1      35.475  10.790  10.303  0.00  0.00    -0.056 A 
HETATM   35  C   UNK N   1      35.826  10.555   8.967  0.00  0.00     0.007 A 
HETATM   36  C   UNK N   1      34.837  10.271   8.019  0.00  0.00     0.001 A 
HETATM   37  C   UNK N   1      33.493  10.233   8.403  0.00  0.00     0.000 A 
HETATM   38  C   UNK N   1      33.138  10.481   9.732  0.00  0.00     0.001 A 
HETATM   39  C   UNK N   1      34.128  10.758  10.681  0.00  0.00     0.007 A 
ENDBRANCH  33  34
ENDBRANCH  32  33
BRANCH  32  40
HETATM   40  N   UNK N   1      37.187  12.707  13.135  0.00  0.00    -0.367 N 
HETATM   41  H   UNK N   1      38.089  12.289  13.361  0.00  0.00     0.158 HD
BRANCH  40  42
HETATM   42  C   UNK N   1      36.439  13.482  14.122  0.00  0.00     0.364 C 
BRANCH  42  43
HETATM   43  O   UNK N   1      36.861  14.815  14.058  0.00  0.00    -0.355 OA
HETATM   44  H   UNK N   1      36.669  15.555  13.461  0.00  0.00     0.214 HD
ENDBRANCH  42  43
BRANCH  42  45
HETATM   45  O   UNK N   1      36.735  12.924  15.393  0.00  0.00    -0.334 OA
BRANCH  45  46
HETATM   46  C   UNK N   1      35.614  12.404  16.098  0.00  0.00     0.055 C 
HETATM   47  C   UNK N   1      35.202  13.317  17.242  0.00  0.00     0.045 C 
HETATM   48  C   UNK N   1      34.417  12.095  15.204  0.00  0.00     0.045 C 
HETATM   49  C   UNK N   1      36.044  11.092  16.718  0.00  0.00     0.045 C 
ENDBRANCH  45  46
ENDBRANCH  42  45
ENDBRANCH  40  42
ENDBRANCH  32  40
ENDBRANCH  31  32
BRANCH  31  50
HETATM   50  O   UNK N   1      38.658  13.466  10.845  0.00  0.00    -0.375 OA
HETATM   51  H   UNK N   1      39.110  13.331  11.692  0.00  0.00     0.212 HD
ENDBRANCH  31  50
ENDBRANCH  29  31
ENDBRANCH   1  29
TORSDOF 26
ENDMDL
MODEL 3
REMARK VINA RESULT:      -6.2      5.643     11.450
REMARK  26 active torsions:
REMARK  status: ('A' for Active; 'I' for Inactive)
REMARK    1  A    between atoms: C_6  and  C_5 
REMARK    2  A    between atoms: C_10  and  C_6 
REMARK    3  A    between atoms: C_15  and  C_10 
REMARK    4  A    between atoms: N_32  and  C_15 
REMARK    5  A    between atoms: C_20  and  C_17 
REMARK    6  A    between atoms: C_24  and  C_17 
REMARK    7  A    between atoms: C_21  and  C_18 
REMARK    8  A    between atoms: C_23  and  C_18 
REMARK    9  A    between atoms: C_26  and  C_19 
REMARK   10  A    between atoms: O_42  and  C_19 
REMARK   11  A    between atoms: C_29  and  C_22 
REMARK   12  A    between atoms: C_27  and  C_23 
REMARK   13  A    between atoms: C_23  and  N_33 
REMARK   14  A    between atoms: C_28  and  C_24 
REMARK   15  A    between atoms: C_24  and  N_34 
REMARK   16  A    between atoms: O_42  and  C_25 
REMARK   17  A    between atoms: O_36  and  C_26 
REMARK   18  A    between atoms: N_32  and  C_27 
REMARK   19  A    between atoms: C_27  and  O_37 
REMARK   20  A    between atoms: N_33  and  C_28 
REMARK   21  A    between atoms: C_28  and  O_38 
REMARK   22  A    between atoms: O_40  and  C_29 
REMARK   23  A    between atoms: N_34  and  C_30 
REMARK   24  A    between atoms: C_30  and  O_41 
REMARK   25  A    between atoms: O_43  and  C_30 
REMARK   26  A    between atoms: O_43  and  C_31 
ROOT
HETATM    1  C   UNK N   1      26.309  16.238   5.712  0.00  0.00     0.131 C 
ENDROOT
BRANCH   1   2
HETATM    2  C   UNK N   1      27.719  16.045   5.080  0.00  0.00     0.067 C 
BRANCH   2   3
HETATM    3  C   UNK N   1      28.835  16.329   6.034  0.00  0.00    -0.055 A 
HETATM    4  C   UNK N   1      30.128  16.450   5.543  0.00  0.00     0.010 A 
HETATM    5  C   UNK N   1      31.122  17.007   6.341  0.00  0.00     0.038 A 
HETATM    6  C   UNK N   1      30.840  17.530   7.612  0.00  0.00     0.086 A 
HETATM    7  C   UNK N   1      29.489  17.410   8.121  0.00  0.00     0.071 A 
HETATM    8  C   UNK N   1      28.539  16.766   7.324  0.00  0.00     0.028 A 
BRANCH   6   9
HETATM    9  O   UNK N   1      31.897  18.110   8.248  0.00  0.00    -0.340 OA
BRANCH   9  10
HETATM   10  C   UNK N   1      33.121  17.570   8.564  0.00  0.00     0.285 C 
BRANCH  10  11
HETATM   11  C   UNK N   1      34.236  18.237   7.821  0.00  0.00     0.164 C 
HETATM   12  O   UNK N   1      34.925  19.065   8.393  0.00  0.00    -0.648 OA
BRANCH  11  13
HETATM   13  O   UNK N   1      34.509  17.905   6.545  0.00  0.00    -0.775 OA
HETATM   14  H   UNK N   1      33.991  17.664   5.803  0.00  0.00     0.167 HD
ENDBRANCH  11  13
ENDBRANCH  10  11
ENDBRANCH   9  10
ENDBRANCH   6   9
BRANCH   7  15
HETATM   15  C   UNK N   1      28.927  18.017   9.367  0.00  0.00     0.178 C 
HETATM   16  O   UNK N   1      27.801  17.779   9.750  0.00  0.00    -0.646 OA
BRANCH  15  17
HETATM   17  O   UNK N   1      29.747  18.716  10.182  0.00  0.00    -0.773 OA
HETATM   18  H   UNK N   1      30.487  18.615  10.748  0.00  0.00     0.167 HD
ENDBRANCH  15  17
ENDBRANCH   7  15
ENDBRANCH   2   3
ENDBRANCH   1   2
BRANCH   1  19
HETATM   19  C   UNK N   1      25.553  17.563   5.260  0.00  0.00     0.236 C 
BRANCH  19  20
HETATM   20  N   UNK N   1      25.922  17.966   3.900  0.00  0.00    -0.395 N 
HETATM   21  H   UNK N   1      25.909  17.357   3.082  0.00  0.00     0.155 HD
BRANCH  20  22
HETATM   22  C   UNK N   1      26.313  19.377   3.895  0.00  0.00     0.116 C 
BRANCH  22  23
HETATM   23  C   UNK N   1      27.760  19.516   4.302  0.00  0.00     0.019 C 
BRANCH  23  24
HETATM   24  C   UNK N   1      27.855  20.478   5.471  0.00  0.00     0.001 C 
BRANCH  24  25
HETATM   25  C   UNK N   1      26.501  21.117   5.721  0.00  0.00    -0.004 C 
HETATM   26  C   UNK N   1      26.322  21.420   7.198  0.00  0.00     0.005 C 
ENDBRANCH  24  25
ENDBRANCH  23  24
ENDBRANCH  22  23
ENDBRANCH  20  22
ENDBRANCH  19  20
BRANCH  19  27
HETATM   27  O   UNK N   1      24.162  17.499   5.294  0.00  0.00    -0.375 OA
HETATM   28  H   UNK N   1      23.625  17.756   6.061  0.00  0.00     0.212 HD
ENDBRANCH  19  27
ENDBRANCH   1  19
BRANCH   1  29
HETATM   29  N   UNK N   1      25.559  14.994   5.396  0.00  0.00    -0.387 N 
HETATM   30  H   UNK N   1      25.385  14.736   4.424  0.00  0.00     0.156 HD
BRANCH  29  31
HETATM   31  C   UNK N   1      25.066  14.130   6.489  0.00  0.00     0.236 C 
BRANCH  31  32
HETATM   32  C   UNK N   1      23.515  13.969   6.453  0.00  0.00     0.133 C 
BRANCH  32  33
HETATM   33  C   UNK N   1      23.031  12.577   6.919  0.00  0.00     0.067 C 
BRANCH  33  34
HETATM   34  C   UNK N   1      22.776  12.453   8.390  0.00  0.00    -0.056 A 
HETATM   35  C   UNK N   1      23.789  12.041   9.266  0.00  0.00     0.007 A 
HETATM   36  C   UNK N   1      23.536  11.939  10.637  0.00  0.00     0.001 A 
HETATM   37  C   UNK N   1      22.265  12.236  11.136  0.00  0.00     0.000 A 
HETATM   38  C   UNK N   1      21.247  12.633  10.264  0.00  0.00     0.001 A 
HETATM   39  C   UNK N   1      21.502  12.742   8.893  0.00  0.00     0.007 A 
ENDBRANCH  33  34
ENDBRANCH  32  33
BRANCH  32  40
HETATM   40  N   UNK N   1      22.849  15.072   7.166  0.00  0.00    -0.367 N 
HETATM   41  H   UNK N   1      23.081  15.296   8.133  0.00  0.00     0.158 HD
BRANCH  40  42
HETATM   42  C   UNK N   1      21.844  15.832   6.429  0.00  0.00     0.364 C 
BRANCH  42  43
HETATM   43  O   UNK N   1      21.699  17.086   7.034  0.00  0.00    -0.355 OA
HETATM   44  H   UNK N   1      21.402  17.383   7.908  0.00  0.00     0.214 HD
ENDBRANCH  42  43
BRANCH  42  45
HETATM   45  O   UNK N   1      20.632  15.096   6.506  0.00  0.00    -0.334 OA
BRANCH  45  46
HETATM   46  C   UNK N   1      20.054  14.756   5.252  0.00  0.00     0.055 C 
HETATM   47  C   UNK N   1      20.934  15.198   4.094  0.00  0.00     0.045 C 
HETATM   48  C   UNK N   1      19.702  13.277   5.120  0.00  0.00     0.045 C 
HETATM   49  C   UNK N   1      18.755  15.524   5.134  0.00  0.00     0.045 C 
ENDBRANCH  45  46
ENDBRANCH  42  45
ENDBRANCH  40  42
ENDBRANCH  32  40
ENDBRANCH  31  32
BRANCH  31  50
HETATM   50  O   UNK N   1      25.522  14.590   7.727  0.00  0.00    -0.375 OA
HETATM   51  H   UNK N   1      24.934  14.634   8.497  0.00  0.00     0.212 HD
ENDBRANCH  31  50
ENDBRANCH  29  31
ENDBRANCH   1  29
TORSDOF 26
ENDMDL
MODEL 4
REMARK VINA RESULT:      -6.2      8.292     12.182
REMARK  26 active torsions:
REMARK  status: ('A' for Active; 'I' for Inactive)
REMARK    1  A    between atoms: C_6  and  C_5 
REMARK    2  A    between atoms: C_10  and  C_6 
REMARK    3  A    between atoms: C_15  and  C_10 
REMARK    4  A    between atoms: N_32  and  C_15 
REMARK    5  A    between atoms: C_20  and  C_17 
REMARK    6  A    between atoms: C_24  and  C_17 
REMARK    7  A    between atoms: C_21  and  C_18 
REMARK    8  A    between atoms: C_23  and  C_18 
REMARK    9  A    between atoms: C_26  and  C_19 
REMARK   10  A    between atoms: O_42  and  C_19 
REMARK   11  A    between atoms: C_29  and  C_22 
REMARK   12  A    between atoms: C_27  and  C_23 
REMARK   13  A    between atoms: C_23  and  N_33 
REMARK   14  A    between atoms: C_28  and  C_24 
REMARK   15  A    between atoms: C_24  and  N_34 
REMARK   16  A    between atoms: O_42  and  C_25 
REMARK   17  A    between atoms: O_36  and  C_26 
REMARK   18  A    between atoms: N_32  and  C_27 
REMARK   19  A    between atoms: C_27  and  O_37 
REMARK   20  A    between atoms: N_33  and  C_28 
REMARK   21  A    between atoms: C_28  and  O_38 
REMARK   22  A    between atoms: O_40  and  C_29 
REMARK   23  A    between atoms: N_34  and  C_30 
REMARK   24  A    between atoms: C_30  and  O_41 
REMARK   25  A    between atoms: O_43  and  C_30 
REMARK   26  A    between atoms: O_43  and  C_31 
ROOT
HETATM    1  C   UNK N   1      26.438  16.307   4.358  0.00  0.00     0.131 C 
ENDROOT
BRANCH   1   2
HETATM    2  C   UNK N   1      25.244  16.662   5.292  0.00  0.00     0.067 C 
BRANCH   2   3
HETATM    3  C   UNK N   1      24.121  17.346   4.578  0.00  0.00    -0.055 A 
HETATM    4  C   UNK N   1      22.813  17.016   4.907  0.00  0.00     0.010 A 
HETATM    5  C   UNK N   1      21.769  17.836   4.492  0.00  0.00     0.038 A 
HETATM    6  C   UNK N   1      22.002  19.042   3.813  0.00  0.00     0.086 A 
HETATM    7  C   UNK N   1      23.368  19.389   3.478  0.00  0.00     0.071 A 
HETATM    8  C   UNK N   1      24.382  18.496   3.836  0.00  0.00     0.028 A 
BRANCH   6   9
HETATM    9  O   UNK N   1      20.888  19.777   3.536  0.00  0.00    -0.340 OA
BRANCH   9  10
HETATM   10  C   UNK N   1      20.014  19.660   2.481  0.00  0.00     0.285 C 
BRANCH  10  11
HETATM   11  C   UNK N   1      20.507  20.378   1.264  0.00  0.00     0.164 C 
HETATM   12  O   UNK N   1      20.814  21.556   1.347  0.00  0.00    -0.648 OA
BRANCH  11  13
HETATM   13  O   UNK N   1      20.648  19.731   0.091  0.00  0.00    -0.775 OA
HETATM   14  H   UNK N   1      21.360  19.299  -0.340  0.00  0.00     0.167 HD
ENDBRANCH  11  13
ENDBRANCH  10  11
ENDBRANCH   9  10
ENDBRANCH   6   9
BRANCH   7  15
HETATM   15  C   UNK N   1      23.866  20.675   2.900  0.00  0.00     0.178 C 
HETATM   16  O   UNK N   1      24.879  20.735   2.234  0.00  0.00    -0.646 OA
BRANCH  15  17
HETATM   17  O   UNK N   1      23.082  21.773   2.972  0.00  0.00    -0.773 OA
HETATM   18  H   UNK N   1      22.816  22.453   3.560  0.00  0.00     0.167 HD
ENDBRANCH  15  17
ENDBRANCH   7  15
ENDBRANCH   2   3
ENDBRANCH   1   2
BRANCH   1  19
HETATM   19  C   UNK N   1      27.875  16.620   4.966  0.00  0.00     0.236 C 
BRANCH  19  20
HETATM   20  N   UNK N   1      27.785  17.208   6.305  0.00  0.00    -0.395 N 
HETATM   21  H   UNK N   1      27.379  16.752   7.122  0.00  0.00     0.155 HD
BRANCH  20  22
HETATM   22  C   UNK N   1      28.367  18.551   6.292  0.00  0.00     0.116 C 
BRANCH  22  23
HETATM   23  C   UNK N   1      28.303  19.131   4.899  0.00  0.00     0.019 C 
BRANCH  23  24
HETATM   24  C   UNK N   1      27.330  20.295   4.893  0.00  0.00     0.001 C 
BRANCH  24  25
HETATM   25  C   UNK N   1      27.617  21.211   6.069  0.00  0.00    -0.004 C 
HETATM   26  C   UNK N   1      26.343  21.486   6.849  0.00  0.00     0.005 C 
ENDBRANCH  24  25
ENDBRANCH  23  24
ENDBRANCH  22  23
ENDBRANCH  20  22
ENDBRANCH  19  20
BRANCH  19  27
HETATM   27  O   UNK N   1      28.733  15.528   5.065  0.00  0.00    -0.375 OA
HETATM   28  H   UNK N   1      29.193  15.270   5.880  0.00  0.00     0.212 HD
ENDBRANCH  19  27
ENDBRANCH   1  19
BRANCH   1  29
HETATM   29  N   UNK N   1      26.248  14.877   3.998  0.00  0.00    -0.387 N 
HETATM   30  H   UNK N   1      26.405  14.150   4.698  0.00  0.00     0.156 HD
BRANCH  29  31
HETATM   31  C   UNK N   1      25.834  14.507   2.629  0.00  0.00     0.236 C 
BRANCH  31  32
HETATM   32  C   UNK N   1      24.375  13.958   2.587  0.00  0.00     0.133 C 
BRANCH  32  33
HETATM   33  C   UNK N   1      23.743  13.998   1.178  0.00  0.00     0.067 C 
BRANCH  33  34
HETATM   34  C   UNK N   1      22.261  14.218   1.151  0.00  0.00    -0.056 A 
HETATM   35  C   UNK N   1      21.698  15.392   1.669  0.00  0.00     0.007 A 
HETATM   36  C   UNK N   1      20.313  15.585   1.627  0.00  0.00     0.001 A 
HETATM   37  C   UNK N   1      19.487  14.600   1.079  0.00  0.00     0.000 A 
HETATM   38  C   UNK N   1      20.045  13.421   0.575  0.00  0.00     0.001 A 
HETATM   39  C   UNK N   1      21.430  13.232   0.610  0.00  0.00     0.007 A 
ENDBRANCH  33  34
ENDBRANCH  32  33
BRANCH  32  40
HETATM   40  N   UNK N   1      24.289  12.628   3.212  0.00  0.00    -0.367 N 
HETATM   41  H   UNK N   1      24.786  11.826   2.826  0.00  0.00     0.158 HD
BRANCH  40  42
HETATM   42  C   UNK N   1      23.463  12.505   4.411  0.00  0.00     0.364 C 
BRANCH  42  43
HETATM   43  O   UNK N   1      22.118  12.618   4.041  0.00  0.00    -0.355 OA
HETATM   44  H   UNK N   1      21.335  12.059   4.165  0.00  0.00     0.214 HD
ENDBRANCH  42  43
BRANCH  42  45
HETATM   45  O   UNK N   1      23.835  13.566   5.277  0.00  0.00    -0.334 OA
BRANCH  45  46
HETATM   46  C   UNK N   1      23.855  13.235   6.660  0.00  0.00     0.055 C 
HETATM   47  C   UNK N   1      22.941  14.146   7.465  0.00  0.00     0.045 C 
HETATM   48  C   UNK N   1      23.532  11.771   6.945  0.00  0.00     0.045 C 
HETATM   49  C   UNK N   1      25.263  13.475   7.158  0.00  0.00     0.045 C 
ENDBRANCH  45  46
ENDBRANCH  42  45
ENDBRANCH  40  42
ENDBRANCH  32  40
ENDBRANCH  31  32
BRANCH  31  50
HETATM   50  O   UNK N   1      26.750  13.620   2.057  0.00  0.00    -0.375 OA
HETATM   51  H   UNK N   1      27.350  13.091   2.605  0.00  0.00     0.212 HD
ENDBRANCH  31  50
ENDBRANCH  29  31
ENDBRANCH   1  29
TORSDOF 26
ENDMDL
MODEL 5
REMARK VINA RESULT:      -6.1      5.599     11.342
REMARK  26 active torsions:
REMARK  status: ('A' for Active; 'I' for Inactive)
REMARK    1  A    between atoms: C_6  and  C_5 
REMARK    2  A    between atoms: C_10  and  C_6 
REMARK    3  A    between atoms: C_15  and  C_10 
REMARK    4  A    between atoms: N_32  and  C_15 
REMARK    5  A    between atoms: C_20  and  C_17 
REMARK    6  A    between atoms: C_24  and  C_17 
REMARK    7  A    between atoms: C_21  and  C_18 
REMARK    8  A    between atoms: C_23  and  C_18 
REMARK    9  A    between atoms: C_26  and  C_19 
REMARK   10  A    between atoms: O_42  and  C_19 
REMARK   11  A    between atoms: C_29  and  C_22 
REMARK   12  A    between atoms: C_27  and  C_23 
REMARK   13  A    between atoms: C_23  and  N_33 
REMARK   14  A    between atoms: C_28  and  C_24 
REMARK   15  A    between atoms: C_24  and  N_34 
REMARK   16  A    between atoms: O_42  and  C_25 
REMARK   17  A    between atoms: O_36  and  C_26 
REMARK   18  A    between atoms: N_32  and  C_27 
REMARK   19  A    between atoms: C_27  and  O_37 
REMARK   20  A    between atoms: N_33  and  C_28 
REMARK   21  A    between atoms: C_28  and  O_38 
REMARK   22  A    between atoms: O_40  and  C_29 
REMARK   23  A    between atoms: N_34  and  C_30 
REMARK   24  A    between atoms: C_30  and  O_41 
REMARK   25  A    between atoms: O_43  and  C_30 
REMARK   26  A    between atoms: O_43  and  C_31 
ROOT
HETATM    1  C   UNK N   1      26.115  15.978   5.735  0.00  0.00     0.131 C 
ENDROOT
BRANCH   1   2
HETATM    2  C   UNK N   1      27.505  16.136   5.051  0.00  0.00     0.067 C 
BRANCH   2   3
HETATM    3  C   UNK N   1      28.616  16.372   6.023  0.00  0.00    -0.055 A 
HETATM    4  C   UNK N   1      29.928  16.346   5.568  0.00  0.00     0.010 A 
HETATM    5  C   UNK N   1      30.947  16.856   6.366  0.00  0.00     0.038 A 
HETATM    6  C   UNK N   1      30.680  17.475   7.597  0.00  0.00     0.086 A 
HETATM    7  C   UNK N   1      29.311  17.509   8.067  0.00  0.00     0.071 A 
HETATM    8  C   UNK N   1      28.327  16.909   7.276  0.00  0.00     0.028 A 
BRANCH   6   9
HETATM    9  O   UNK N   1      31.769  17.993   8.233  0.00  0.00    -0.340 OA
BRANCH   9  10
HETATM   10  C   UNK N   1      32.998  17.419   8.453  0.00  0.00     0.285 C 
BRANCH  10  11
HETATM   11  C   UNK N   1      34.093  18.149   7.738  0.00  0.00     0.164 C 
HETATM   12  O   UNK N   1      34.283  17.932   6.553  0.00  0.00    -0.648 OA
BRANCH  11  13
HETATM   13  O   UNK N   1      34.842  19.068   8.378  0.00  0.00    -0.775 OA
HETATM   14  H   UNK N   1      34.652  19.816   8.910  0.00  0.00     0.167 HD
ENDBRANCH  11  13
ENDBRANCH  10  11
ENDBRANCH   9  10
ENDBRANCH   6   9
BRANCH   7  15
HETATM   15  C   UNK N   1      28.774  18.237   9.258  0.00  0.00     0.178 C 
HETATM   16  O   UNK N   1      29.498  18.798  10.053  0.00  0.00    -0.646 OA
BRANCH  15  17
HETATM   17  O   UNK N   1      27.440  18.424   9.364  0.00  0.00    -0.773 OA
HETATM   18  H   UNK N   1      26.634  18.272   8.910  0.00  0.00     0.167 HD
ENDBRANCH  15  17
ENDBRANCH   7  15
ENDBRANCH   2   3
ENDBRANCH   1   2
BRANCH   1  19
HETATM   19  C   UNK N   1      24.891  16.550   4.895  0.00  0.00     0.236 C 
BRANCH  19  20
HETATM   20  N   UNK N   1      24.561  17.925   5.277  0.00  0.00    -0.395 N 
HETATM   21  H   UNK N   1      24.283  18.226   6.212  0.00  0.00     0.155 HD
BRANCH  20  22
HETATM   22  C   UNK N   1      24.689  18.804   4.113  0.00  0.00     0.116 C 
BRANCH  22  23
HETATM   23  C   UNK N   1      25.527  20.010   4.463  0.00  0.00     0.019 C 
BRANCH  23  24
HETATM   24  C   UNK N   1      26.505  19.631   5.560  0.00  0.00     0.001 C 
BRANCH  24  25
HETATM   25  C   UNK N   1      27.675  20.598   5.562  0.00  0.00    -0.004 C 
HETATM   26  C   UNK N   1      27.318  21.860   6.326  0.00  0.00     0.005 C 
ENDBRANCH  24  25
ENDBRANCH  23  24
ENDBRANCH  22  23
ENDBRANCH  20  22
ENDBRANCH  19  20
BRANCH  19  27
HETATM   27  O   UNK N   1      25.062  16.549   3.513  0.00  0.00    -0.375 OA
HETATM   28  H   UNK N   1      24.434  16.943   2.887  0.00  0.00     0.212 HD
ENDBRANCH  19  27
ENDBRANCH   1  19
BRANCH   1  29
HETATM   29  N   UNK N   1      25.990  14.531   6.050  0.00  0.00    -0.387 N 
HETATM   30  H   UNK N   1      26.721  14.060   6.583  0.00  0.00     0.156 HD
BRANCH  29  31
HETATM   31  C   UNK N   1      24.807  13.773   5.591  0.00  0.00     0.236 C 
BRANCH  31  32
HETATM   32  C   UNK N   1      24.116  13.003   6.758  0.00  0.00     0.133 C 
BRANCH  32  33
HETATM   33  C   UNK N   1      23.707  13.913   7.938  0.00  0.00     0.067 C 
BRANCH  33  34
HETATM   34  C   UNK N   1      23.543  13.213   9.253  0.00  0.00    -0.056 A 
HETATM   35  C   UNK N   1      22.276  13.050   9.829  0.00  0.00     0.007 A 
HETATM   36  C   UNK N   1      22.140  12.386  11.052  0.00  0.00     0.001 A 
HETATM   37  C   UNK N   1      23.272  11.895  11.709  0.00  0.00     0.000 A 
HETATM   38  C   UNK N   1      24.539  12.069  11.144  0.00  0.00     0.001 A 
HETATM   39  C   UNK N   1      24.674  12.726   9.917  0.00  0.00     0.007 A 
ENDBRANCH  33  34
ENDBRANCH  32  33
BRANCH  32  40
HETATM   40  N   UNK N   1      23.002  12.176   6.264  0.00  0.00    -0.367 N 
HETATM   41  H   UNK N   1      23.130  11.187   6.048  0.00  0.00     0.158 HD
BRANCH  40  42
HETATM   42  C   UNK N   1      21.707  12.829   6.098  0.00  0.00     0.364 C 
BRANCH  42  43
HETATM   43  O   UNK N   1      20.734  12.068   6.756  0.00  0.00    -0.355 OA
HETATM   44  H   UNK N   1      19.775  12.151   6.868  0.00  0.00     0.214 HD
ENDBRANCH  42  43
BRANCH  42  45
HETATM   45  O   UNK N   1      21.446  12.879   4.704  0.00  0.00    -0.334 OA
BRANCH  45  46
HETATM   46  C   UNK N   1      21.139  14.171   4.194  0.00  0.00     0.055 C 
HETATM   47  C   UNK N   1      22.107  14.581   3.095  0.00  0.00     0.045 C 
HETATM   48  C   UNK N   1      19.698  14.315   3.716  0.00  0.00     0.045 C 
HETATM   49  C   UNK N   1      21.322  15.155   5.329  0.00  0.00     0.045 C 
ENDBRANCH  45  46
ENDBRANCH  42  45
ENDBRANCH  40  42
ENDBRANCH  32  40
ENDBRANCH  31  32
BRANCH  31  50
HETATM   50  O   UNK N   1      25.140  12.932   4.526  0.00  0.00    -0.375 OA
HETATM   51  H   UNK N   1      24.460  12.568   3.938  0.00  0.00     0.212 HD
ENDBRANCH  31  50
ENDBRANCH  29  31
ENDBRANCH   1  29
TORSDOF 26
ENDMDL
MODEL 6
REMARK VINA RESULT:      -6.1      4.802      9.126
REMARK  26 active torsions:
REMARK  status: ('A' for Active; 'I' for Inactive)
REMARK    1  A    between atoms: C_6  and  C_5 
REMARK    2  A    between atoms: C_10  and  C_6 
REMARK    3  A    between atoms: C_15  and  C_10 
REMARK    4  A    between atoms: N_32  and  C_15 
REMARK    5  A    between atoms: C_20  and  C_17 
REMARK    6  A    between atoms: C_24  and  C_17 
REMARK    7  A    between atoms: C_21  and  C_18 
REMARK    8  A    between atoms: C_23  and  C_18 
REMARK    9  A    between atoms: C_26  and  C_19 
REMARK   10  A    between atoms: O_42  and  C_19 
REMARK   11  A    between atoms: C_29  and  C_22 
REMARK   12  A    between atoms: C_27  and  C_23 
REMARK   13  A    between atoms: C_23  and  N_33 
REMARK   14  A    between atoms: C_28  and  C_24 
REMARK   15  A    between atoms: C_24  and  N_34 
REMARK   16  A    between atoms: O_42  and  C_25 
REMARK   17  A    between atoms: O_36  and  C_26 
REMARK   18  A    between atoms: N_32  and  C_27 
REMARK   19  A    between atoms: C_27  and  O_37 
REMARK   20  A    between atoms: N_33  and  C_28 
REMARK   21  A    between atoms: C_28  and  O_38 
REMARK   22  A    between atoms: O_40  and  C_29 
REMARK   23  A    between atoms: N_34  and  C_30 
REMARK   24  A    between atoms: C_30  and  O_41 
REMARK   25  A    between atoms: O_43  and  C_30 
REMARK   26  A    between atoms: O_43  and  C_31 
ROOT
HETATM    1  C   UNK N   1      26.009  15.731   6.711  0.00  0.00     0.131 C 
ENDROOT
BRANCH   1   2
HETATM    2  C   UNK N   1      26.283  15.984   5.200  0.00  0.00     0.067 C 
BRANCH   2   3
HETATM    3  C   UNK N   1      25.203  16.771   4.528  0.00  0.00    -0.055 A 
HETATM    4  C   UNK N   1      23.876  16.457   4.792  0.00  0.00     0.010 A 
HETATM    5  C   UNK N   1      22.871  17.349   4.433  0.00  0.00     0.038 A 
HETATM    6  C   UNK N   1      23.162  18.605   3.880  0.00  0.00     0.086 A 
HETATM    7  C   UNK N   1      24.547  18.935   3.613  0.00  0.00     0.071 A 
HETATM    8  C   UNK N   1      25.521  17.977   3.907  0.00  0.00     0.028 A 
BRANCH   6   9
HETATM    9  O   UNK N   1      22.080  19.401   3.648  0.00  0.00    -0.340 OA
BRANCH   9  10
HETATM   10  C   UNK N   1      21.211  19.393   2.582  0.00  0.00     0.285 C 
BRANCH  10  11
HETATM   11  C   UNK N   1      21.278  20.665   1.796  0.00  0.00     0.164 C 
HETATM   12  O   UNK N   1      21.056  20.640   0.597  0.00  0.00    -0.648 OA
BRANCH  11  13
HETATM   13  O   UNK N   1      21.542  21.838   2.402  0.00  0.00    -0.775 OA
HETATM   14  H   UNK N   1      21.636  22.723   2.110  0.00  0.00     0.167 HD
ENDBRANCH  11  13
ENDBRANCH  10  11
ENDBRANCH   9  10
ENDBRANCH   6   9
BRANCH   7  15
HETATM   15  C   UNK N   1      25.102  20.252   3.174  0.00  0.00     0.178 C 
HETATM   16  O   UNK N   1      26.190  20.648   3.535  0.00  0.00    -0.646 OA
BRANCH  15  17
HETATM   17  O   UNK N   1      24.454  20.948   2.214  0.00  0.00    -0.773 OA
HETATM   18  H   UNK N   1      23.973  21.740   2.073  0.00  0.00     0.167 HD
ENDBRANCH  15  17
ENDBRANCH   7  15
ENDBRANCH   2   3
ENDBRANCH   1   2
BRANCH   1  19
HETATM   19  C   UNK N   1      25.815  14.202   7.106  0.00  0.00     0.236 C 
BRANCH  19  20
HETATM   20  N   UNK N   1      24.505  13.958   7.717  0.00  0.00    -0.395 N 
HETATM   21  H   UNK N   1      23.612  14.276   7.340  0.00  0.00     0.155 HD
BRANCH  20  22
HETATM   22  C   UNK N   1      24.674  13.187   8.950  0.00  0.00     0.116 C 
BRANCH  22  23
HETATM   23  C   UNK N   1      23.449  12.343   9.205  0.00  0.00     0.019 C 
BRANCH  23  24
HETATM   24  C   UNK N   1      22.601  13.011  10.271  0.00  0.00     0.001 C 
BRANCH  24  25
HETATM   25  C   UNK N   1      22.137  11.978  11.282  0.00  0.00    -0.004 C 
HETATM   26  C   UNK N   1      23.096  11.916  12.457  0.00  0.00     0.005 C 
ENDBRANCH  24  25
ENDBRANCH  23  24
ENDBRANCH  22  23
ENDBRANCH  20  22
ENDBRANCH  19  20
BRANCH  19  27
HETATM   27  O   UNK N   1      25.944  13.293   6.060  0.00  0.00    -0.375 OA
HETATM   28  H   UNK N   1      25.874  13.530   5.122  0.00  0.00     0.212 HD
ENDBRANCH  19  27
ENDBRANCH   1  19
BRANCH   1  29
HETATM   29  N   UNK N   1      27.130  16.390   7.433  0.00  0.00    -0.387 N 
HETATM   30  H   UNK N   1      27.395  16.068   8.365  0.00  0.00     0.156 HD
BRANCH  29  31
HETATM   31  C   UNK N   1      27.859  17.510   6.802  0.00  0.00     0.236 C 
BRANCH  31  32
HETATM   32  C   UNK N   1      29.406  17.323   6.889  0.00  0.00     0.133 C 
BRANCH  32  33
HETATM   33  C   UNK N   1      29.924  17.157   8.335  0.00  0.00     0.067 C 
BRANCH  33  34
HETATM   34  C   UNK N   1      31.409  17.003   8.465  0.00  0.00    -0.056 A 
HETATM   35  C   UNK N   1      31.975  15.789   8.876  0.00  0.00     0.007 A 
HETATM   36  C   UNK N   1      33.363  15.661   8.982  0.00  0.00     0.001 A 
HETATM   37  C   UNK N   1      34.190  16.750   8.690  0.00  0.00     0.000 A 
HETATM   38  C   UNK N   1      33.627  17.967   8.293  0.00  0.00     0.001 A 
HETATM   39  C   UNK N   1      32.238  18.093   8.180  0.00  0.00     0.007 A 
ENDBRANCH  33  34
ENDBRANCH  32  33
BRANCH  32  40
HETATM   40  N   UNK N   1      29.864  16.250   5.992  0.00  0.00    -0.367 N 
HETATM   41  H   UNK N   1      29.737  15.267   6.232  0.00  0.00     0.158 HD
BRANCH  40  42
HETATM   42  C   UNK N   1      30.506  16.651   4.744  0.00  0.00     0.364 C 
BRANCH  42  43
HETATM   43  O   UNK N   1      29.535  16.701   3.737  0.00  0.00    -0.355 OA
HETATM   44  H   UNK N   1      28.565  16.694   3.734  0.00  0.00     0.214 HD
ENDBRANCH  42  43
BRANCH  42  45
HETATM   45  O   UNK N   1      31.484  15.665   4.448  0.00  0.00    -0.334 OA
BRANCH  45  46
HETATM   46  C   UNK N   1      32.806  16.161   4.278  0.00  0.00     0.055 C 
HETATM   47  C   UNK N   1      33.345  15.846   2.891  0.00  0.00     0.045 C 
HETATM   48  C   UNK N   1      32.946  17.650   4.578  0.00  0.00     0.045 C 
HETATM   49  C   UNK N   1      33.689  15.432   5.267  0.00  0.00     0.045 C 
ENDBRANCH  45  46
ENDBRANCH  42  45
ENDBRANCH  40  42
ENDBRANCH  32  40
ENDBRANCH  31  32
BRANCH  31  50
HETATM   50  O   UNK N   1      27.443  18.733   7.334  0.00  0.00    -0.375 OA
HETATM   51  H   UNK N   1      27.974  19.537   7.226  0.00  0.00     0.212 HD
ENDBRANCH  31  50
ENDBRANCH  29  31
ENDBRANCH   1  29
TORSDOF 26
ENDMDL
MODEL 7
REMARK VINA RESULT:      -6.1      2.972      6.170
REMARK  26 active torsions:
REMARK  status: ('A' for Active; 'I' for Inactive)
REMARK    1  A    between atoms: C_6  and  C_5 
REMARK    2  A    between atoms: C_10  and  C_6 
REMARK    3  A    between atoms: C_15  and  C_10 
REMARK    4  A    between atoms: N_32  and  C_15 
REMARK    5  A    between atoms: C_20  and  C_17 
REMARK    6  A    between atoms: C_24  and  C_17 
REMARK    7  A    between atoms: C_21  and  C_18 
REMARK    8  A    between atoms: C_23  and  C_18 
REMARK    9  A    between atoms: C_26  and  C_19 
REMARK   10  A    between atoms: O_42  and  C_19 
REMARK   11  A    between atoms: C_29  and  C_22 
REMARK   12  A    between atoms: C_27  and  C_23 
REMARK   13  A    between atoms: C_23  and  N_33 
REMARK   14  A    between atoms: C_28  and  C_24 
REMARK   15  A    between atoms: C_24  and  N_34 
REMARK   16  A    between atoms: O_42  and  C_25 
REMARK   17  A    between atoms: O_36  and  C_26 
REMARK   18  A    between atoms: N_32  and  C_27 
REMARK   19  A    between atoms: C_27  and  O_37 
REMARK   20  A    between atoms: N_33  and  C_28 
REMARK   21  A    between atoms: C_28  and  O_38 
REMARK   22  A    between atoms: O_40  and  C_29 
REMARK   23  A    between atoms: N_34  and  C_30 
REMARK   24  A    between atoms: C_30  and  O_41 
REMARK   25  A    between atoms: O_43  and  C_30 
REMARK   26  A    between atoms: O_43  and  C_31 
ROOT
HETATM    1  C   UNK N   1      36.441  14.572  10.845  0.00  0.00     0.131 C 
ENDROOT
BRANCH   1   2
HETATM    2  C   UNK N   1      35.994  16.063  10.893  0.00  0.00     0.067 C 
BRANCH   2   3
HETATM    3  C   UNK N   1      34.860  16.368   9.968  0.00  0.00    -0.055 A 
HETATM    4  C   UNK N   1      34.850  17.578   9.288  0.00  0.00     0.010 A 
HETATM    5  C   UNK N   1      33.990  17.759   8.210  0.00  0.00     0.038 A 
HETATM    6  C   UNK N   1      33.178  16.719   7.732  0.00  0.00     0.086 A 
HETATM    7  C   UNK N   1      33.195  15.454   8.437  0.00  0.00     0.071 A 
HETATM    8  C   UNK N   1      34.008  15.340   9.568  0.00  0.00     0.028 A 
BRANCH   6   9
HETATM    9  O   UNK N   1      32.443  17.019   6.624  0.00  0.00    -0.340 OA
BRANCH   9  10
HETATM   10  C   UNK N   1      32.872  17.306   5.350  0.00  0.00     0.285 C 
BRANCH  10  11
HETATM   11  C   UNK N   1      31.885  16.867   4.314  0.00  0.00     0.164 C 
HETATM   12  O   UNK N   1      31.127  15.945   4.562  0.00  0.00    -0.648 OA
BRANCH  11  13
HETATM   13  O   UNK N   1      31.800  17.503   3.130  0.00  0.00    -0.775 OA
HETATM   14  H   UNK N   1      32.276  17.459   2.324  0.00  0.00     0.167 HD
ENDBRANCH  11  13
ENDBRANCH  10  11
ENDBRANCH   9  10
ENDBRANCH   6   9
BRANCH   7  15
HETATM   15  C   UNK N   1      32.538  14.174   8.028  0.00  0.00     0.178 C 
HETATM   16  O   UNK N   1      32.524  13.197   8.748  0.00  0.00    -0.646 OA
BRANCH  15  17
HETATM   17  O   UNK N   1      31.793  14.151   6.902  0.00  0.00    -0.773 OA
HETATM   18  H   UNK N   1      31.792  14.440   6.010  0.00  0.00     0.167 HD
ENDBRANCH  15  17
ENDBRANCH   7  15
ENDBRANCH   2   3
ENDBRANCH   1   2
BRANCH   1  19
HETATM   19  C   UNK N   1      37.627  14.265   9.830  0.00  0.00     0.236 C 
BRANCH  19  20
HETATM   20  N   UNK N   1      38.490  13.182  10.310  0.00  0.00    -0.395 N 
HETATM   21  H   UNK N   1      38.565  12.875  11.280  0.00  0.00     0.155 HD
BRANCH  20  22
HETATM   22  C   UNK N   1      39.228  12.607   9.184  0.00  0.00     0.116 C 
BRANCH  22  23
HETATM   23  C   UNK N   1      39.248  11.101   9.292  0.00  0.00     0.019 C 
BRANCH  23  24
HETATM   24  C   UNK N   1      40.541  10.579   8.695  0.00  0.00     0.001 C 
BRANCH  24  25
HETATM   25  C   UNK N   1      41.336  11.730   8.104  0.00  0.00    -0.004 C 
HETATM   26  C   UNK N   1      42.820  11.534   8.355  0.00  0.00     0.005 C 
ENDBRANCH  24  25
ENDBRANCH  23  24
ENDBRANCH  22  23
ENDBRANCH  20  22
ENDBRANCH  19  20
BRANCH  19  27
HETATM   27  O   UNK N   1      37.236  13.923   8.539  0.00  0.00    -0.375 OA
HETATM   28  H   UNK N   1      37.798  13.445   7.909  0.00  0.00     0.212 HD
ENDBRANCH  19  27
ENDBRANCH   1  19
BRANCH   1  29
HETATM   29  N   UNK N   1      36.758  14.208  12.251  0.00  0.00    -0.387 N 
HETATM   30  H   UNK N   1      37.724  14.027  12.526  0.00  0.00     0.156 HD
BRANCH  29  31
HETATM   31  C   UNK N   1      35.675  14.107  13.252  0.00  0.00     0.236 C 
BRANCH  31  32
HETATM   32  C   UNK N   1      36.160  13.438  14.575  0.00  0.00     0.133 C 
BRANCH  32  33
HETATM   33  C   UNK N   1      35.086  12.553  15.246  0.00  0.00     0.067 C 
BRANCH  33  34
HETATM   34  C   UNK N   1      35.195  12.441  16.736  0.00  0.00    -0.056 A 
HETATM   35  C   UNK N   1      35.061  13.570  17.556  0.00  0.00     0.007 A 
HETATM   36  C   UNK N   1      35.156  13.445  18.945  0.00  0.00     0.001 A 
HETATM   37  C   UNK N   1      35.398  12.194  19.519  0.00  0.00     0.000 A 
HETATM   38  C   UNK N   1      35.547  11.068  18.703  0.00  0.00     0.001 A 
HETATM   39  C   UNK N   1      35.444  11.191  17.314  0.00  0.00     0.007 A 
ENDBRANCH  33  34
ENDBRANCH  32  33
BRANCH  32  40
HETATM   40  N   UNK N   1      37.438  12.734  14.378  0.00  0.00    -0.367 N 
HETATM   41  H   UNK N   1      38.331  13.208  14.508  0.00  0.00     0.158 HD
BRANCH  40  42
HETATM   42  C   UNK N   1      37.372  11.327  13.991  0.00  0.00     0.364 C 
BRANCH  42  43
HETATM   43  O   UNK N   1      38.487  10.666  14.518  0.00  0.00    -0.355 OA
HETATM   44  H   UNK N   1      39.326  10.961  14.904  0.00  0.00     0.214 HD
ENDBRANCH  42  43
BRANCH  42  45
HETATM   45  O   UNK N   1      37.393  11.290  12.571  0.00  0.00    -0.334 OA
BRANCH  45  46
HETATM   46  C   UNK N   1      36.557  10.301  11.984  0.00  0.00     0.055 C 
HETATM   47  C   UNK N   1      35.813  10.847  10.775  0.00  0.00     0.045 C 
HETATM   48  C   UNK N   1      37.291   9.014  11.621  0.00  0.00     0.045 C 
HETATM   49  C   UNK N   1      35.510   9.930  13.012  0.00  0.00     0.045 C 
ENDBRANCH  45  46
ENDBRANCH  42  45
ENDBRANCH  40  42
ENDBRANCH  32  40
ENDBRANCH  31  32
BRANCH  31  50
HETATM   50  O   UNK N   1      34.560  13.460  12.710  0.00  0.00    -0.375 OA
HETATM   51  H   UNK N   1      34.268  13.633  11.802  0.00  0.00     0.212 HD
ENDBRANCH  31  50
ENDBRANCH  29  31
ENDBRANCH   1  29
TORSDOF 26
ENDMDL
MODEL 8
REMARK VINA RESULT:      -6.1      2.753      6.125
REMARK  26 active torsions:
REMARK  status: ('A' for Active; 'I' for Inactive)
REMARK    1  A    between atoms: C_6  and  C_5 
REMARK    2  A    between atoms: C_10  and  C_6 
REMARK    3  A    between atoms: C_15  and  C_10 
REMARK    4  A    between atoms: N_32  and  C_15 
REMARK    5  A    between atoms: C_20  and  C_17 
REMARK    6  A    between atoms: C_24  and  C_17 
REMARK    7  A    between atoms: C_21  and  C_18 
REMARK    8  A    between atoms: C_23  and  C_18 
REMARK    9  A    between atoms: C_26  and  C_19 
REMARK   10  A    between atoms: O_42  and  C_19 
REMARK   11  A    between atoms: C_29  and  C_22 
REMARK   12  A    between atoms: C_27  and  C_23 
REMARK   13  A    between atoms: C_23  and  N_33 
REMARK   14  A    between atoms: C_28  and  C_24 
REMARK   15  A    between atoms: C_24  and  N_34 
REMARK   16  A    between atoms: O_42  and  C_25 
REMARK   17  A    between atoms: O_36  and  C_26 
REMARK   18  A    between atoms: N_32  and  C_27 
REMARK   19  A    between atoms: C_27  and  O_37 
REMARK   20  A    between atoms: N_33  and  C_28 
REMARK   21  A    between atoms: C_28  and  O_38 
REMARK   22  A    between atoms: O_40  and  C_29 
REMARK   23  A    between atoms: N_34  and  C_30 
REMARK   24  A    between atoms: C_30  and  O_41 
REMARK   25  A    between atoms: O_43  and  C_30 
REMARK   26  A    between atoms: O_43  and  C_31 
ROOT
HETATM    1  C   UNK N   1      36.490  14.293  11.333  0.00  0.00     0.131 C 
ENDROOT
BRANCH   1   2
HETATM    2  C   UNK N   1      36.280  15.739  10.796  0.00  0.00     0.067 C 
BRANCH   2   3
HETATM    3  C   UNK N   1      34.946  15.939  10.150  0.00  0.00    -0.055 A 
HETATM    4  C   UNK N   1      34.609  17.199   9.674  0.00  0.00     0.010 A 
HETATM    5  C   UNK N   1      33.528  17.346   8.811  0.00  0.00     0.038 A 
HETATM    6  C   UNK N   1      32.807  16.239   8.337  0.00  0.00     0.086 A 
HETATM    7  C   UNK N   1      33.165  14.924   8.827  0.00  0.00     0.071 A 
HETATM    8  C   UNK N   1      34.201  14.828   9.761  0.00  0.00     0.028 A 
BRANCH   6   9
HETATM    9  O   UNK N   1      31.822  16.529   7.440  0.00  0.00    -0.340 OA
BRANCH   9  10
HETATM   10  C   UNK N   1      31.927  17.083   6.187  0.00  0.00     0.285 C 
BRANCH  10  11
HETATM   11  C   UNK N   1      33.211  16.707   5.514  0.00  0.00     0.164 C 
HETATM   12  O   UNK N   1      34.079  17.551   5.367  0.00  0.00    -0.648 OA
BRANCH  11  13
HETATM   13  O   UNK N   1      33.431  15.443   5.106  0.00  0.00    -0.775 OA
HETATM   14  H   UNK N   1      33.089  14.605   5.348  0.00  0.00     0.167 HD
ENDBRANCH  11  13
ENDBRANCH  10  11
ENDBRANCH   9  10
ENDBRANCH   6   9
BRANCH   7  15
HETATM   15  C   UNK N   1      32.645  13.603   8.357  0.00  0.00     0.178 C 
HETATM   16  O   UNK N   1      32.599  13.309   7.181  0.00  0.00    -0.646 OA
BRANCH  15  17
HETATM   17  O   UNK N   1      32.379  12.642   9.268  0.00  0.00    -0.773 OA
HETATM   18  H   UNK N   1      31.692  12.082   9.572  0.00  0.00     0.167 HD
ENDBRANCH  15  17
ENDBRANCH   7  15
ENDBRANCH   2   3
ENDBRANCH   1   2
BRANCH   1  19
HETATM   19  C   UNK N   1      37.626  13.465  10.588  0.00  0.00     0.236 C 
BRANCH  19  20
HETATM   20  N   UNK N   1      38.498  14.329   9.789  0.00  0.00    -0.395 N 
HETATM   21  H   UNK N   1      38.950  15.180  10.124  0.00  0.00     0.155 HD
BRANCH  20  22
HETATM   22  C   UNK N   1      38.621  13.786   8.435  0.00  0.00     0.116 C 
BRANCH  22  23
HETATM   23  C   UNK N   1      37.258  13.673   7.795  0.00  0.00     0.019 C 
BRANCH  23  24
HETATM   24  C   UNK N   1      37.209  12.410   6.957  0.00  0.00     0.001 C 
BRANCH  24  25
HETATM   25  C   UNK N   1      36.777  11.237   7.820  0.00  0.00    -0.004 C 
HETATM   26  C   UNK N   1      35.275  11.033   7.724  0.00  0.00     0.005 C 
ENDBRANCH  24  25
ENDBRANCH  23  24
ENDBRANCH  22  23
ENDBRANCH  20  22
ENDBRANCH  19  20
BRANCH  19  27
HETATM   27  O   UNK N   1      38.457  12.713  11.415  0.00  0.00    -0.375 OA
HETATM   28  H   UNK N   1      39.326  12.373  11.148  0.00  0.00     0.212 HD
ENDBRANCH  19  27
ENDBRANCH   1  19
BRANCH   1  29
HETATM   29  N   UNK N   1      36.731  14.443  12.793  0.00  0.00    -0.387 N 
HETATM   30  H   UNK N   1      37.594  14.874  13.126  0.00  0.00     0.156 HD
BRANCH  29  31
HETATM   31  C   UNK N   1      35.721  13.969  13.762  0.00  0.00     0.236 C 
BRANCH  31  32
HETATM   32  C   UNK N   1      36.341  13.029  14.841  0.00  0.00     0.133 C 
BRANCH  32  33
HETATM   33  C   UNK N   1      35.310  12.087  15.501  0.00  0.00     0.067 C 
BRANCH  33  34
HETATM   34  C   UNK N   1      35.284  12.122  16.999  0.00  0.00    -0.056 A 
HETATM   35  C   UNK N   1      35.158  13.336  17.689  0.00  0.00     0.007 A 
HETATM   36  C   UNK N   1      35.125  13.349  19.087  0.00  0.00     0.001 A 
HETATM   37  C   UNK N   1      35.232  12.151  19.800  0.00  0.00     0.000 A 
HETATM   38  C   UNK N   1      35.373  10.941  19.115  0.00  0.00     0.001 A 
HETATM   39  C   UNK N   1      35.397  10.926  17.716  0.00  0.00     0.007 A 
ENDBRANCH  33  34
ENDBRANCH  32  33
BRANCH  32  40
HETATM   40  N   UNK N   1      37.513  12.311  14.312  0.00  0.00    -0.367 N 
HETATM   41  H   UNK N   1      38.373  12.803  14.071  0.00  0.00     0.158 HD
BRANCH  40  42
HETATM   42  C   UNK N   1      37.392  10.865  14.148  0.00  0.00     0.364 C 
BRANCH  42  43
HETATM   43  O   UNK N   1      38.506  10.254  14.734  0.00  0.00    -0.355 OA
HETATM   44  H   UNK N   1      38.727   9.980  15.638  0.00  0.00     0.214 HD
ENDBRANCH  42  43
BRANCH  42  45
HETATM   45  O   UNK N   1      37.358  10.610  12.752  0.00  0.00    -0.334 OA
BRANCH  45  46
HETATM   46  C   UNK N   1      36.321   9.734  12.325  0.00  0.00     0.055 C 
HETATM   47  C   UNK N   1      36.862   8.619  11.444  0.00  0.00     0.045 C 
HETATM   48  C   UNK N   1      35.496   9.156  13.470  0.00  0.00     0.045 C 
HETATM   49  C   UNK N   1      35.372  10.546  11.471  0.00  0.00     0.045 C 
ENDBRANCH  45  46
ENDBRANCH  42  45
ENDBRANCH  40  42
ENDBRANCH  32  40
ENDBRANCH  31  32
BRANCH  31  50
HETATM   50  O   UNK N   1      34.642  13.375  13.101  0.00  0.00    -0.375 OA
HETATM   51  H   UNK N   1      33.787  13.251  13.542  0.00  0.00     0.212 HD
ENDBRANCH  31  50
ENDBRANCH  29  31
ENDBRANCH   1  29
TORSDOF 26
ENDMDL
MODEL 9
REMARK VINA RESULT:      -6.0     14.278     19.489
REMARK  26 active torsions:
REMARK  status: ('A' for Active; 'I' for Inactive)
REMARK    1  A    between atoms: C_6  and  C_5 
REMARK    2  A    between atoms: C_10  and  C_6 
REMARK    3  A    between atoms: C_15  and  C_10 
REMARK    4  A    between atoms: N_32  and  C_15 
REMARK    5  A    between atoms: C_20  and  C_17 
REMARK    6  A    between atoms: C_24  and  C_17 
REMARK    7  A    between atoms: C_21  and  C_18 
REMARK    8  A    between atoms: C_23  and  C_18 
REMARK    9  A    between atoms: C_26  and  C_19 
REMARK   10  A    between atoms: O_42  and  C_19 
REMARK   11  A    between atoms: C_29  and  C_22 
REMARK   12  A    between atoms: C_27  and  C_23 
REMARK   13  A    between atoms: C_23  and  N_33 
REMARK   14  A    between atoms: C_28  and  C_24 
REMARK   15  A    between atoms: C_24  and  N_34 
REMARK   16  A    between atoms: O_42  and  C_25 
REMARK   17  A    between atoms: O_36  and  C_26 
REMARK   18  A    between atoms: N_32  and  C_27 
REMARK   19  A    between atoms: C_27  and  O_37 
REMARK   20  A    between atoms: N_33  and  C_28 
REMARK   21  A    between atoms: C_28  and  O_38 
REMARK   22  A    between atoms: O_40  and  C_29 
REMARK   23  A    between atoms: N_34  and  C_30 
REMARK   24  A    between atoms: C_30  and  O_41 
REMARK   25  A    between atoms: O_43  and  C_30 
REMARK   26  A    between atoms: O_43  and  C_31 
ROOT
HETATM    1  C   UNK N   1      26.578  26.403  -4.503  0.00  0.00     0.131 C 
ENDROOT
BRANCH   1   2
HETATM    2  C   UNK N   1      25.444  26.397  -5.570  0.00  0.00     0.067 C 
BRANCH   2   3
HETATM    3  C   UNK N   1      25.676  25.411  -6.671  0.00  0.00    -0.055 A 
HETATM    4  C   UNK N   1      25.603  24.054  -6.387  0.00  0.00     0.010 A 
HETATM    5  C   UNK N   1      25.509  23.134  -7.426  0.00  0.00     0.038 A 
HETATM    6  C   UNK N   1      25.404  23.542  -8.765  0.00  0.00     0.086 A 
HETATM    7  C   UNK N   1      25.473  24.958  -9.059  0.00  0.00     0.071 A 
HETATM    8  C   UNK N   1      25.655  25.846  -7.995  0.00  0.00     0.028 A 
BRANCH   6   9
HETATM    9  O   UNK N   1      25.245  22.533  -9.668  0.00  0.00    -0.340 OA
BRANCH   9  10
HETATM   10  C   UNK N   1      25.913  21.336  -9.756  0.00  0.00     0.285 C 
BRANCH  10  11
HETATM   11  C   UNK N   1      26.091  20.897 -11.176  0.00  0.00     0.164 C 
HETATM   12  O   UNK N   1      25.121  20.845 -11.913  0.00  0.00    -0.648 OA
BRANCH  11  13
HETATM   13  O   UNK N   1      27.313  20.597 -11.657  0.00  0.00    -0.775 OA
HETATM   14  H   UNK N   1      28.179  20.919 -11.501  0.00  0.00     0.167 HD
ENDBRANCH  11  13
ENDBRANCH  10  11
ENDBRANCH   9  10
ENDBRANCH   6   9
BRANCH   7  15
HETATM   15  C   UNK N   1      25.237  25.628 -10.376  0.00  0.00     0.178 C 
HETATM   16  O   UNK N   1      25.918  26.556 -10.760  0.00  0.00    -0.646 OA
BRANCH  15  17
HETATM   17  O   UNK N   1      24.354  25.082 -11.239  0.00  0.00    -0.773 OA
HETATM   18  H   UNK N   1      24.307  24.568 -12.022  0.00  0.00     0.167 HD
ENDBRANCH  15  17
ENDBRANCH   7  15
ENDBRANCH   2   3
ENDBRANCH   1   2
BRANCH   1  19
HETATM   19  C   UNK N   1      26.451  27.547  -3.404  0.00  0.00     0.236 C 
BRANCH  19  20
HETATM   20  N   UNK N   1      27.459  28.594  -3.586  0.00  0.00    -0.395 N 
HETATM   21  H   UNK N   1      28.402  28.578  -3.197  0.00  0.00     0.155 HD
BRANCH  20  22
HETATM   22  C   UNK N   1      26.908  29.669  -4.414  0.00  0.00     0.116 C 
BRANCH  22  23
HETATM   23  C   UNK N   1      27.912  30.083  -5.462  0.00  0.00     0.019 C 
BRANCH  23  24
HETATM   24  C   UNK N   1      28.686  28.860  -5.916  0.00  0.00     0.001 C 
BRANCH  24  25
HETATM   25  C   UNK N   1      28.162  28.389  -7.261  0.00  0.00    -0.004 C 
HETATM   26  C   UNK N   1      29.158  28.712  -8.360  0.00  0.00     0.005 C 
ENDBRANCH  24  25
ENDBRANCH  23  24
ENDBRANCH  22  23
ENDBRANCH  20  22
ENDBRANCH  19  20
BRANCH  19  27
HETATM   27  O   UNK N   1      25.216  28.186  -3.346  0.00  0.00    -0.375 OA
HETATM   28  H   UNK N   1      24.581  28.077  -2.621  0.00  0.00     0.212 HD
ENDBRANCH  19  27
ENDBRANCH   1  19
BRANCH   1  29
HETATM   29  N   UNK N   1      26.591  25.032  -3.930  0.00  0.00    -0.387 N 
HETATM   30  H   UNK N   1      25.820  24.391  -4.122  0.00  0.00     0.156 HD
BRANCH  29  31
HETATM   31  C   UNK N   1      27.719  24.596  -3.080  0.00  0.00     0.236 C 
BRANCH  31  32
HETATM   32  C   UNK N   1      28.949  24.145  -3.927  0.00  0.00     0.133 C 
BRANCH  32  33
HETATM   33  C   UNK N   1      29.133  24.962  -5.226  0.00  0.00     0.067 C 
BRANCH  33  34
HETATM   34  C   UNK N   1      29.130  24.156  -6.489  0.00  0.00    -0.056 A 
HETATM   35  C   UNK N   1      29.166  24.782  -7.743  0.00  0.00     0.007 A 
HETATM   36  C   UNK N   1      29.172  24.014  -8.912  0.00  0.00     0.001 A 
HETATM   37  C   UNK N   1      29.129  22.619  -8.831  0.00  0.00     0.000 A 
HETATM   38  C   UNK N   1      29.078  21.992  -7.582  0.00  0.00     0.001 A 
HETATM   39  C   UNK N   1      29.079  22.760  -6.413  0.00  0.00     0.007 A 
ENDBRANCH  33  34
ENDBRANCH  32  33
BRANCH  32  40
HETATM   40  N   UNK N   1      30.170  24.095  -3.107  0.00  0.00    -0.367 N 
HETATM   41  H   UNK N   1      30.774  24.910  -3.003  0.00  0.00     0.158 HD
BRANCH  40  42
HETATM   42  C   UNK N   1      30.481  22.830  -2.447  0.00  0.00     0.364 C 
BRANCH  42  43
HETATM   43  O   UNK N   1      30.143  22.937  -1.093  0.00  0.00    -0.355 OA
HETATM   44  H   UNK N   1      30.428  22.477  -0.289  0.00  0.00     0.214 HD
ENDBRANCH  42  43
BRANCH  42  45
HETATM   45  O   UNK N   1      31.876  22.617  -2.600  0.00  0.00    -0.334 OA
BRANCH  45  46
HETATM   46  C   UNK N   1      32.237  21.713  -3.637  0.00  0.00     0.055 C 
HETATM   47  C   UNK N   1      32.487  22.440  -4.949  0.00  0.00     0.045 C 
HETATM   48  C   UNK N   1      33.424  20.821  -3.288  0.00  0.00     0.045 C 
HETATM   49  C   UNK N   1      31.054  20.796  -3.863  0.00  0.00     0.045 C 
ENDBRANCH  45  46
ENDBRANCH  42  45
ENDBRANCH  40  42
ENDBRANCH  32  40
ENDBRANCH  31  32
BRANCH  31  50
HETATM   50  O   UNK N   1      27.308  23.611  -2.179  0.00  0.00    -0.375 OA
HETATM   51  H   UNK N   1      27.328  22.670  -2.415  0.00  0.00     0.212 HD
ENDBRANCH  31  50
ENDBRANCH  29  31
ENDBRANCH   1  29
TORSDOF 26
ENDMDL
