REMARK  12 active torsions:
REMARK  status: ('A' for Active; 'I' for Inactive)
REMARK    1  A    between atoms: N_1  and  C_2 
REMARK    2  A    between atoms: C_2  and  C_3 
REMARK    3  A    between atoms: C_3  and  O_4 
REMARK    4  A    between atoms: O_4  and  C_5 
REMARK    5  A    between atoms: C_5  and  C_6 
REMARK    6  A    between atoms: C_6  and  O_7 
REMARK    7  A    between atoms: O_7  and  C_8 
REMARK    8  A    between atoms: C_8  and  C_9 
REMARK    9  A    between atoms: C_9  and  N_10 
REMARK       I    between atoms: N_10  and  C_11 
REMARK   10  A    between atoms: C_11  and  C_13 
REMARK   11  A    between atoms: C_16  and  S_19 
REMARK   12  A    between atoms: S_19  and  N_20 
ROOT
HETATM    1  N   UNK N   1       0.445  -5.151  -1.030  0.00  0.00    -0.355 N 
HETATM    2  C   UNK N   1       1.532  -4.604  -0.442  0.00  0.00     0.251 C 
HETATM    3  O   UNK N   1       1.635  -3.383  -0.351  0.00  0.00    -0.268 OA
HETATM    4  H   UNK N   1       0.365  -6.132  -1.069  0.00  0.00     0.162 HD
ENDROOT
BRANCH   2   5
HETATM    5  C   UNK N   1       2.658  -5.463  -0.035  0.00  0.00     0.032 A 
HETATM    6  C   UNK N   1       3.900  -4.892   0.267  0.00  0.00     0.018 A 
HETATM    7  C   UNK N   1       5.022  -5.702   0.441  0.00  0.00     0.026 A 
HETATM    8  C   UNK N   1       4.902  -7.091   0.344  0.00  0.00     0.079 A 
HETATM    9  C   UNK N   1       3.653  -7.671   0.099  0.00  0.00     0.026 A 
HETATM   10  C   UNK N   1       2.534  -6.861  -0.092  0.00  0.00     0.018 A 
BRANCH   8  11
HETATM   11  S   UNK N   1       6.373  -8.089   0.217  0.00  0.00     0.256 S 
HETATM   12  O   UNK N   1       6.219  -8.147  -1.306  0.00  0.00    -0.201 OA
HETATM   13  O   UNK N   1       7.757  -7.432   0.104  0.00  0.00    -0.201 OA
BRANCH  11  14
HETATM   14  N   UNK N   1       6.512  -9.844   0.327  0.00  0.00    -0.324 N 
HETATM   15  H   UNK N   1       5.673 -10.421   0.390  0.00  0.00     0.169 HD
HETATM   16  H   UNK N   1       7.433 -10.283   0.327  0.00  0.00     0.169 HD
ENDBRANCH  11  14
ENDBRANCH   8  11
ENDBRANCH   2   5
BRANCH   1  17
HETATM   17  C   UNK N   1      -0.601  -4.341  -1.602  0.00  0.00     0.149 C 
BRANCH  17  18
HETATM   18  C   UNK N   1      -1.946  -4.752  -1.048  0.00  0.00     0.187 C 
BRANCH  18  19
HETATM   19  O   UNK N   1      -2.021  -4.435   0.310  0.00  0.00    -0.387 OA
BRANCH  19  20
HETATM   20  C   UNK N   1      -1.996  -5.664   0.977  0.00  0.00     0.193 C 
BRANCH  20  21
HETATM   21  C   UNK N   1      -3.405  -6.020   1.425  0.00  0.00     0.193 C 
BRANCH  21  22
HETATM   22  O   UNK N   1      -3.883  -7.149   0.744  0.00  0.00    -0.387 OA
BRANCH  22  23
HETATM   23  C   UNK N   1      -4.381  -6.703  -0.491  0.00  0.00     0.186 C 
BRANCH  23  24
HETATM   24  C   UNK N   1      -5.829  -6.256  -0.379  0.00  0.00     0.137 C 
BRANCH  24  25
HETATM   25  N   UNK N   1      -5.881  -4.861   0.021  0.00  0.00    -0.428 N 
HETATM   26  H   UNK N   1      -5.051  -4.339   0.302  0.00  0.00     0.149 HD
HETATM   27  H   UNK N   1      -6.783  -4.383   0.021  0.00  0.00     0.149 HD
ENDBRANCH  24  25
ENDBRANCH  23  24
ENDBRANCH  22  23
ENDBRANCH  21  22
ENDBRANCH  20  21
ENDBRANCH  19  20
ENDBRANCH  18  19
ENDBRANCH  17  18
ENDBRANCH   1  17
TORSDOF 12
