MODEL 1
REMARK VINA RESULT:      -4.9      0.000      0.000
REMARK  4 active torsions:
REMARK  status: ('A' for Active; 'I' for Inactive)
REMARK    1  A    between atoms: N_1  and  C_2 
REMARK    2  A    between atoms: C_2  and  C_5 
REMARK    3  A    between atoms: C_8  and  C_9 
REMARK    4  A    between atoms: C_9  and  O_10 
ROOT
HETATM    1  C   UNK N   1      35.157  12.134  18.263  0.00  0.00     0.007 A 
HETATM    2  C   UNK N   1      35.185  10.845  17.712  0.00  0.00     0.016 A 
HETATM    3  C   UNK N   1      34.978  10.659  16.348  0.00  0.00     0.010 A 
HETATM    4  C   UNK N   1      34.740  11.759  15.512  0.00  0.00    -0.035 A 
HETATM    5  C   UNK N   1      34.711  13.048  16.057  0.00  0.00     0.010 A 
HETATM    6  C   UNK N   1      34.919  13.235  17.428  0.00  0.00     0.016 A 
ENDROOT
BRANCH   1   7
HETATM    7  C   UNK N   1      35.378  12.323  19.711  0.00  0.00     0.102 C 
HETATM    8  N   UNK N   1      36.079  11.480  20.376  0.00  0.00    -0.385 N 
HETATM    9  H   UNK N   1      36.473  10.701  19.921  0.00  0.00     0.157 HD
ATOM     10  HN  UNK N   1      36.227  11.616  21.375  1.00  0.00     0.157 HD
BRANCH   7  11
HETATM   11  N   UNK N   1      34.817  13.437  20.377  0.00  0.00    -0.385 N 
HETATM   12  H   UNK N   1      35.355  13.945  21.026  0.00  0.00     0.157 HD
HETATM   13  H   UNK N   1      33.888  13.705  20.191  0.00  0.00     0.157 HD
ENDBRANCH   7  11
ENDBRANCH   1   7
BRANCH   4  14
HETATM   14  C   UNK N   1      34.515  11.575  14.046  0.00  0.00     0.202 C 
BRANCH  14  15
HETATM   15  O   UNK N   1      34.383  12.803  13.392  0.00  0.00    -0.396 OA
HETATM   16  H   UNK N   1      33.926  12.852  12.537  0.00  0.00     0.209 HD
ENDBRANCH  14  15
ENDBRANCH   4  14
TORSDOF 4
ENDMDL
MODEL 2
REMARK VINA RESULT:      -4.8     11.572     12.336
REMARK  4 active torsions:
REMARK  status: ('A' for Active; 'I' for Inactive)
REMARK    1  A    between atoms: N_1  and  C_2 
REMARK    2  A    between atoms: C_2  and  C_5 
REMARK    3  A    between atoms: C_8  and  C_9 
REMARK    4  A    between atoms: C_9  and  O_10 
ROOT
HETATM    1  C   UNK N   1      29.682  17.562   7.780  0.00  0.00     0.007 A 
HETATM    2  C   UNK N   1      30.662  17.937   8.708  0.00  0.00     0.016 A 
HETATM    3  C   UNK N   1      32.013  17.867   8.372  0.00  0.00     0.010 A 
HETATM    4  C   UNK N   1      32.402  17.421   7.102  0.00  0.00    -0.035 A 
HETATM    5  C   UNK N   1      31.428  17.046   6.171  0.00  0.00     0.010 A 
HETATM    6  C   UNK N   1      30.072  17.116   6.508  0.00  0.00     0.016 A 
ENDROOT
BRANCH   1   7
HETATM    7  C   UNK N   1      28.252  17.639   8.143  0.00  0.00     0.102 C 
HETATM    8  N   UNK N   1      27.400  16.859   7.589  0.00  0.00    -0.385 N 
HETATM    9  H   UNK N   1      27.696  16.203   6.917  0.00  0.00     0.157 HD
ATOM     10  HN  UNK N   1      26.414  16.917   7.845  1.00  0.00     0.157 HD
BRANCH   7  11
HETATM   11  N   UNK N   1      27.813  18.576   9.107  0.00  0.00    -0.385 N 
HETATM   12  H   UNK N   1      26.998  19.104   8.944  0.00  0.00     0.157 HD
HETATM   13  H   UNK N   1      28.322  18.701   9.940  0.00  0.00     0.157 HD
ENDBRANCH   7  11
ENDBRANCH   1   7
BRANCH   4  14
HETATM   14  C   UNK N   1      33.847  17.340   6.727  0.00  0.00     0.202 C 
BRANCH  14  15
HETATM   15  O   UNK N   1      34.590  18.353   7.338  0.00  0.00    -0.396 OA
HETATM   16  H   UNK N   1      34.658  19.226   6.919  0.00  0.00     0.209 HD
ENDBRANCH  14  15
ENDBRANCH   4  14
TORSDOF 4
ENDMDL
MODEL 3
REMARK VINA RESULT:      -4.7      1.266      1.615
REMARK  4 active torsions:
REMARK  status: ('A' for Active; 'I' for Inactive)
REMARK    1  A    between atoms: N_1  and  C_2 
REMARK    2  A    between atoms: C_2  and  C_5 
REMARK    3  A    between atoms: C_8  and  C_9 
REMARK    4  A    between atoms: C_9  and  O_10 
ROOT
HETATM    1  C   UNK N   1      35.042  12.584  17.571  0.00  0.00     0.007 A 
HETATM    2  C   UNK N   1      35.212  11.196  17.663  0.00  0.00     0.016 A 
HETATM    3  C   UNK N   1      35.003  10.387  16.548  0.00  0.00     0.010 A 
HETATM    4  C   UNK N   1      34.621  10.955  15.325  0.00  0.00    -0.035 A 
HETATM    5  C   UNK N   1      34.451  12.340  15.228  0.00  0.00     0.010 A 
HETATM    6  C   UNK N   1      34.661  13.152  16.347  0.00  0.00     0.016 A 
ENDROOT
BRANCH   1   7
HETATM    7  C   UNK N   1      35.266  13.435  18.758  0.00  0.00     0.102 C 
HETATM    8  N   UNK N   1      35.465  14.694  18.624  0.00  0.00    -0.385 N 
HETATM    9  H   UNK N   1      35.470  15.099  17.727  0.00  0.00     0.157 HD
ATOM     10  HN  UNK N   1      35.618  15.276  19.447  1.00  0.00     0.157 HD
BRANCH   7  11
HETATM   11  N   UNK N   1      35.262  12.866  20.052  0.00  0.00    -0.385 N 
HETATM   12  H   UNK N   1      34.411  12.603  20.471  0.00  0.00     0.157 HD
HETATM   13  H   UNK N   1      36.109  12.734  20.535  0.00  0.00     0.157 HD
ENDBRANCH   7  11
ENDBRANCH   1   7
BRANCH   4  14
HETATM   14  C   UNK N   1      34.393  10.099  14.119  0.00  0.00     0.202 C 
BRANCH  14  15
HETATM   15  O   UNK N   1      33.377  10.616  13.312  0.00  0.00    -0.396 OA
HETATM   16  H   UNK N   1      33.444  11.520  12.965  0.00  0.00     0.209 HD
ENDBRANCH  14  15
ENDBRANCH   4  14
TORSDOF 4
ENDMDL
MODEL 4
REMARK VINA RESULT:      -4.6     10.877     12.392
REMARK  4 active torsions:
REMARK  status: ('A' for Active; 'I' for Inactive)
REMARK    1  A    between atoms: N_1  and  C_2 
REMARK    2  A    between atoms: C_2  and  C_5 
REMARK    3  A    between atoms: C_8  and  C_9 
REMARK    4  A    between atoms: C_9  and  O_10 
ROOT
HETATM    1  C   UNK N   1      33.180  17.584   7.301  0.00  0.00     0.007 A 
HETATM    2  C   UNK N   1      33.736  17.598   6.015  0.00  0.00     0.016 A 
HETATM    3  C   UNK N   1      32.937  17.354   4.900  0.00  0.00     0.010 A 
HETATM    4  C   UNK N   1      31.569  17.093   5.055  0.00  0.00    -0.035 A 
HETATM    5  C   UNK N   1      31.008  17.078   6.337  0.00  0.00     0.010 A 
HETATM    6  C   UNK N   1      31.811  17.323   7.456  0.00  0.00     0.016 A 
ENDROOT
BRANCH   1   7
HETATM    7  C   UNK N   1      34.034  17.844   8.478  0.00  0.00     0.102 C 
HETATM    8  N   UNK N   1      34.904  18.784   8.452  0.00  0.00    -0.385 N 
HETATM    9  H   UNK N   1      35.007  19.338   7.645  0.00  0.00     0.157 HD
ATOM     10  HN  UNK N   1      35.491  18.959   9.268  1.00  0.00     0.157 HD
BRANCH   7  11
HETATM   11  N   UNK N   1      33.897  17.056   9.644  0.00  0.00    -0.385 N 
HETATM   12  H   UNK N   1      34.086  16.090   9.610  0.00  0.00     0.157 HD
HETATM   13  H   UNK N   1      33.613  17.472  10.489  0.00  0.00     0.157 HD
ENDBRANCH   7  11
ENDBRANCH   1   7
BRANCH   4  14
HETATM   14  C   UNK N   1      30.698  16.829   3.868  0.00  0.00     0.202 C 
BRANCH  14  15
HETATM   15  O   UNK N   1      31.366  17.111   2.674  0.00  0.00    -0.396 OA
HETATM   16  H   UNK N   1      31.756  17.988   2.530  0.00  0.00     0.209 HD
ENDBRANCH  14  15
ENDBRANCH   4  14
TORSDOF 4
ENDMDL
MODEL 5
REMARK VINA RESULT:      -4.5      3.811      4.920
REMARK  4 active torsions:
REMARK  status: ('A' for Active; 'I' for Inactive)
REMARK    1  A    between atoms: N_1  and  C_2 
REMARK    2  A    between atoms: C_2  and  C_5 
REMARK    3  A    between atoms: C_8  and  C_9 
REMARK    4  A    between atoms: C_9  and  O_10 
ROOT
HETATM    1  C   UNK N   1      35.655  13.090  15.802  0.00  0.00     0.007 A 
HETATM    2  C   UNK N   1      35.519  14.114  16.749  0.00  0.00     0.016 A 
HETATM    3  C   UNK N   1      35.340  13.808  18.096  0.00  0.00     0.010 A 
HETATM    4  C   UNK N   1      35.295  12.472  18.517  0.00  0.00    -0.035 A 
HETATM    5  C   UNK N   1      35.430  11.445  17.576  0.00  0.00     0.010 A 
HETATM    6  C   UNK N   1      35.609  11.753  16.223  0.00  0.00     0.016 A 
ENDROOT
BRANCH   1   7
HETATM    7  C   UNK N   1      35.843  13.423  14.375  0.00  0.00     0.102 C 
HETATM    8  N   UNK N   1      35.168  12.813  13.473  0.00  0.00    -0.385 N 
HETATM    9  H   UNK N   1      34.520  12.118  13.728  0.00  0.00     0.157 HD
ATOM     10  HN  UNK N   1      35.303  13.048  12.489  1.00  0.00     0.157 HD
BRANCH   7  11
HETATM   11  N   UNK N   1      36.772  14.419  13.994  0.00  0.00    -0.385 N 
HETATM   12  H   UNK N   1      36.635  14.926  13.162  0.00  0.00     0.157 HD
HETATM   13  H   UNK N   1      37.554  14.606  14.561  0.00  0.00     0.157 HD
ENDBRANCH   7  11
ENDBRANCH   1   7
BRANCH   4  14
HETATM   14  C   UNK N   1      35.104  12.127  19.959  0.00  0.00     0.202 C 
BRANCH  14  15
HETATM   15  O   UNK N   1      34.654  13.228  20.691  0.00  0.00    -0.396 OA
HETATM   16  H   UNK N   1      33.773  13.598  20.521  0.00  0.00     0.209 HD
ENDBRANCH  14  15
ENDBRANCH   4  14
TORSDOF 4
ENDMDL
MODEL 6
REMARK VINA RESULT:      -4.5     14.005     15.264
REMARK  4 active torsions:
REMARK  status: ('A' for Active; 'I' for Inactive)
REMARK    1  A    between atoms: N_1  and  C_2 
REMARK    2  A    between atoms: C_2  and  C_5 
REMARK    3  A    between atoms: C_8  and  C_9 
REMARK    4  A    between atoms: C_9  and  O_10 
ROOT
HETATM    1  C   UNK N   1      22.677  12.385  10.112  0.00  0.00     0.007 A 
HETATM    2  C   UNK N   1      21.683  13.373  10.106  0.00  0.00     0.016 A 
HETATM    3  C   UNK N   1      21.012  13.688   8.927  0.00  0.00     0.010 A 
HETATM    4  C   UNK N   1      21.326  13.020   7.735  0.00  0.00    -0.035 A 
HETATM    5  C   UNK N   1      22.318  12.033   7.736  0.00  0.00     0.010 A 
HETATM    6  C   UNK N   1      22.991  11.717   8.920  0.00  0.00     0.016 A 
ENDROOT
BRANCH   1   7
HETATM    7  C   UNK N   1      23.384  12.057  11.367  0.00  0.00     0.102 C 
HETATM    8  N   UNK N   1      22.733  11.629  12.385  0.00  0.00    -0.385 N 
HETATM    9  H   UNK N   1      21.756  11.519  12.334  0.00  0.00     0.157 HD
ATOM     10  HN  UNK N   1      23.227  11.404  13.249  1.00  0.00     0.157 HD
BRANCH   7  11
HETATM   11  N   UNK N   1      24.787  12.211  11.455  0.00  0.00    -0.385 N 
HETATM   12  H   UNK N   1      25.229  12.201  12.334  0.00  0.00     0.157 HD
HETATM   13  H   UNK N   1      25.322  12.328  10.637  0.00  0.00     0.157 HD
ENDBRANCH   7  11
ENDBRANCH   1   7
BRANCH   4  14
HETATM   14  C   UNK N   1      20.614  13.347   6.462  0.00  0.00     0.202 C 
BRANCH  14  15
HETATM   15  O   UNK N   1      19.827  14.493   6.597  0.00  0.00    -0.396 OA
HETATM   16  H   UNK N   1      19.059  14.626   6.020  0.00  0.00     0.209 HD
ENDBRANCH  14  15
ENDBRANCH   4  14
TORSDOF 4
ENDMDL
MODEL 7
REMARK VINA RESULT:      -4.5     12.025     13.408
REMARK  4 active torsions:
REMARK  status: ('A' for Active; 'I' for Inactive)
REMARK    1  A    between atoms: N_1  and  C_2 
REMARK    2  A    between atoms: C_2  and  C_5 
REMARK    3  A    between atoms: C_8  and  C_9 
REMARK    4  A    between atoms: C_9  and  O_10 
ROOT
HETATM    1  C   UNK N   1      31.485  17.196   5.381  0.00  0.00     0.007 A 
HETATM    2  C   UNK N   1      32.831  17.361   5.027  0.00  0.00     0.016 A 
HETATM    3  C   UNK N   1      33.795  17.576   6.008  0.00  0.00     0.010 A 
HETATM    4  C   UNK N   1      33.429  17.627   7.360  0.00  0.00    -0.035 A 
HETATM    5  C   UNK N   1      32.087  17.463   7.720  0.00  0.00     0.010 A 
HETATM    6  C   UNK N   1      31.118  17.247   6.734  0.00  0.00     0.016 A 
ENDROOT
BRANCH   1   7
HETATM    7  C   UNK N   1      30.468  16.969   4.334  0.00  0.00     0.102 C 
HETATM    8  N   UNK N   1      30.573  15.973   3.533  0.00  0.00    -0.385 N 
HETATM    9  H   UNK N   1      31.334  15.355   3.614  0.00  0.00     0.157 HD
ATOM     10  HN  UNK N   1      29.867  15.822   2.813  1.00  0.00     0.157 HD
BRANCH   7  11
HETATM   11  N   UNK N   1      29.369  17.850   4.207  0.00  0.00    -0.385 N 
HETATM   12  H   UNK N   1      29.170  18.495   4.923  0.00  0.00     0.157 HD
HETATM   13  H   UNK N   1      28.803  17.818   3.402  0.00  0.00     0.157 HD
ENDBRANCH   7  11
ENDBRANCH   1   7
BRANCH   4  14
HETATM   14  C   UNK N   1      34.453  17.856   8.425  0.00  0.00     0.202 C 
BRANCH  14  15
HETATM   15  O   UNK N   1      34.996  19.141   8.343  0.00  0.00    -0.396 OA
HETATM   16  H   UNK N   1      34.495  19.853   7.914  0.00  0.00     0.209 HD
ENDBRANCH  14  15
ENDBRANCH   4  14
TORSDOF 4
ENDMDL
MODEL 8
REMARK VINA RESULT:      -4.4     11.423     12.219
REMARK  4 active torsions:
REMARK  status: ('A' for Active; 'I' for Inactive)
REMARK    1  A    between atoms: N_1  and  C_2 
REMARK    2  A    between atoms: C_2  and  C_5 
REMARK    3  A    between atoms: C_8  and  C_9 
REMARK    4  A    between atoms: C_9  and  O_10 
ROOT
HETATM    1  C   UNK N   1      32.079  17.568   7.424  0.00  0.00     0.007 A 
HETATM    2  C   UNK N   1      31.605  18.052   8.650  0.00  0.00     0.016 A 
HETATM    3  C   UNK N   1      30.251  17.969   8.963  0.00  0.00     0.010 A 
HETATM    4  C   UNK N   1      29.349  17.398   8.054  0.00  0.00    -0.035 A 
HETATM    5  C   UNK N   1      29.817  16.913   6.828  0.00  0.00     0.010 A 
HETATM    6  C   UNK N   1      31.178  16.997   6.513  0.00  0.00     0.016 A 
ENDROOT
BRANCH   1   7
HETATM    7  C   UNK N   1      33.517  17.660   7.099  0.00  0.00     0.102 C 
HETATM    8  N   UNK N   1      34.324  18.261   7.894  0.00  0.00    -0.385 N 
HETATM    9  H   UNK N   1      33.986  18.664   8.727  0.00  0.00     0.157 HD
ATOM     10  HN  UNK N   1      35.316  18.321   7.664  1.00  0.00     0.157 HD
BRANCH   7  11
HETATM   11  N   UNK N   1      34.016  17.087   5.907  0.00  0.00    -0.385 N 
HETATM   12  H   UNK N   1      34.974  17.155   5.691  0.00  0.00     0.157 HD
HETATM   13  H   UNK N   1      33.405  16.620   5.292  0.00  0.00     0.157 HD
ENDBRANCH   7  11
ENDBRANCH   1   7
BRANCH   4  14
HETATM   14  C   UNK N   1      27.892  17.301   8.376  0.00  0.00     0.202 C 
BRANCH  14  15
HETATM   15  O   UNK N   1      27.523  18.228   9.354  0.00  0.00    -0.396 OA
HETATM   16  H   UNK N   1      26.615  18.567   9.385  0.00  0.00     0.209 HD
ENDBRANCH  14  15
ENDBRANCH   4  14
TORSDOF 4
ENDMDL
MODEL 9
REMARK VINA RESULT:      -4.4     17.837     18.668
REMARK  4 active torsions:
REMARK  status: ('A' for Active; 'I' for Inactive)
REMARK    1  A    between atoms: N_1  and  C_2 
REMARK    2  A    between atoms: C_2  and  C_5 
REMARK    3  A    between atoms: C_8  and  C_9 
REMARK    4  A    between atoms: C_9  and  O_10 
ROOT
HETATM    1  C   UNK N   1      43.196  21.905   3.638  0.00  0.00     0.007 A 
HETATM    2  C   UNK N   1      42.636  20.621   3.669  0.00  0.00     0.016 A 
HETATM    3  C   UNK N   1      41.574  20.296   2.829  0.00  0.00     0.010 A 
HETATM    4  C   UNK N   1      41.056  21.251   1.943  0.00  0.00    -0.035 A 
HETATM    5  C   UNK N   1      41.612  22.535   1.907  0.00  0.00     0.010 A 
HETATM    6  C   UNK N   1      42.679  22.861   2.752  0.00  0.00     0.016 A 
ENDROOT
BRANCH   1   7
HETATM    7  C   UNK N   1      44.323  22.241   4.532  0.00  0.00     0.102 C 
HETATM    8  N   UNK N   1      44.102  22.638   5.731  0.00  0.00    -0.385 N 
HETATM    9  H   UNK N   1      43.178  22.719   6.061  0.00  0.00     0.157 HD
ATOM     10  HN  UNK N   1      44.884  22.869   6.344  1.00  0.00     0.157 HD
BRANCH   7  11
HETATM   11  N   UNK N   1      45.655  22.129   4.072  0.00  0.00    -0.385 N 
HETATM   12  H   UNK N   1      46.117  22.917   3.707  0.00  0.00     0.157 HD
HETATM   13  H   UNK N   1      46.120  21.263   4.117  0.00  0.00     0.157 HD
ENDBRANCH   7  11
ENDBRANCH   1   7
BRANCH   4  14
HETATM   14  C   UNK N   1      39.916  20.918   1.035  0.00  0.00     0.202 C 
BRANCH  14  15
HETATM   15  O   UNK N   1      38.763  20.602   1.758  0.00  0.00    -0.396 OA
HETATM   16  H   UNK N   1      38.830  20.084   2.576  0.00  0.00     0.209 HD
ENDBRANCH  14  15
ENDBRANCH   4  14
TORSDOF 4
ENDMDL
