REMARK  8 active torsions:
REMARK  status: ('A' for Active; 'I' for Inactive)
REMARK       I    between atoms: N_1  and  C_2 
REMARK    1  A    between atoms: C_2  and  C_4 
REMARK    2  A    between atoms: C_4  and  N_5 
REMARK    3  A    between atoms: N_5  and  C_6 
REMARK    4  A    between atoms: N_5  and  C_10 
REMARK    5  A    between atoms: C_6  and  C_7 
REMARK    6  A    between atoms: C_7  and  O_8 
REMARK    7  A    between atoms: C_10  and  C_11 
REMARK    8  A    between atoms: C_11  and  O_12 
ROOT
HETATM    1  N   UNK N   1       0.563  -2.885  -0.019  0.00  0.00     0.117 N 
ENDROOT
BRANCH   1   2
HETATM    2  C   UNK N   1       0.837  -4.304  -0.245  0.00  0.00     0.375 C 
BRANCH   2   3
HETATM    3  C   UNK N   1       2.182  -4.765   0.248  0.00  0.00     0.243 C 
HETATM    4  N   UNK N   1       2.544  -6.049   0.070  0.00  0.00    -0.369 N 
HETATM    5  H   UNK N   1       1.863  -6.748  -0.060  0.00  0.00     0.159 HD
HETATM    6  H   UNK N   1       3.498  -6.292   0.070  0.00  0.00     0.159 HD
HETATM    7  O   UNK N   1       2.950  -3.993   0.800  0.00  0.00    -0.272 OA
ENDBRANCH   2   3
ENDBRANCH   1   2
BRANCH   1   8
HETATM    8  C   UNK N   1      -0.841  -2.730  -0.392  0.00  0.00     0.382 C 
BRANCH   8   9
HETATM    9  C   UNK N   1      -1.482  -1.483   0.149  0.00  0.00     0.169 C 
HETATM   10  O   UNK N   1      -0.855  -0.702   0.845  0.00  0.00    -0.649 OA
BRANCH   9  11
HETATM   11  O   UNK N   1      -2.773  -1.231  -0.135  0.00  0.00    -0.775 OA
HETATM   12  H   UNK N   1      -3.070  -0.365  -0.334  0.00  0.00     0.167 HD
ENDBRANCH   9  11
ENDBRANCH   8   9
ENDBRANCH   1   8
BRANCH   1  13
HETATM   13  C   UNK N   1       1.353  -2.130  -0.992  0.00  0.00     0.382 C 
BRANCH  13  14
HETATM   14  C   UNK N   1       2.255  -1.151  -0.306  0.00  0.00     0.169 C 
HETATM   15  O   UNK N   1       3.463  -1.312  -0.341  0.00  0.00    -0.649 OA
BRANCH  14  16
HETATM   16  O   UNK N   1       1.744  -0.074   0.318  0.00  0.00    -0.775 OA
HETATM   17  H   UNK N   1       2.215   0.609   0.753  0.00  0.00     0.167 HD
ENDBRANCH  14  16
ENDBRANCH  13  14
ENDBRANCH   1  13
TORSDOF 8
