MODEL 1
REMARK VINA RESULT:      -8.4      0.000      0.000
REMARK  15 active torsions:
REMARK  status: ('A' for Active; 'I' for Inactive)
REMARK       I    between atoms: C_3  and  N_38 
REMARK    1  A    between atoms: C_12  and  N_8 
REMARK    2  A    between atoms: C_13  and  O_39 
REMARK    3  A    between atoms: C_14  and  O_40 
REMARK    4  A    between atoms: C_15  and  C_17 
REMARK    5  A    between atoms: C_17  and  O_18 
REMARK    6  A    between atoms: O_18  and  P_19 
REMARK    7  A    between atoms: P_19  and  O_20 
REMARK    8  A    between atoms: P_19  and  O_25 
REMARK    9  A    between atoms: O_20  and  P_21 
REMARK   10  A    between atoms: P_21  and  O_22 
REMARK   11  A    between atoms: P_21  and  O_23 
REMARK   12  A    between atoms: C_24  and  O_23 
REMARK   13  A    between atoms: C_28  and  O_36 
REMARK   14  A    between atoms: C_29  and  O_35 
REMARK   15  A    between atoms: C_30  and  O_33 
ROOT
HETATM    1  C   UNK N   1      32.010  16.097   6.696  0.00  0.00     0.262 C 
HETATM    2  C   UNK N   1      31.664  14.686   7.115  0.00  0.00     0.198 C 
HETATM    3  C   UNK N   1      32.659  14.511   8.203  0.00  0.00     0.182 C 
HETATM    4  C   UNK N   1      32.606  15.869   8.858  0.00  0.00     0.180 C 
HETATM    5  O   UNK N   1      32.258  16.820   7.876  0.00  0.00    -0.353 OA
ENDROOT
BRANCH   4   6
HETATM    6  C   UNK N   1      33.975  16.182   9.434  0.00  0.00     0.215 C 
BRANCH   6   7
HETATM    7  O   UNK N   1      34.259  15.305  10.482  0.00  0.00    -0.294 OA
BRANCH   7   8
HETATM    8  P   UNK N   1      35.954  14.948  10.313  0.00  0.00     0.401 P 
HETATM    9  O   UNK N   1      35.771  16.133   9.327  0.00  0.00    -0.631 OA
BRANCH   8  10
HETATM   10  O   UNK N   1      35.548  15.453  11.926  0.00  0.00    -0.195 OA
BRANCH  10  11
HETATM   11  P   UNK N   1      36.049  14.183  13.011  0.00  0.00     0.404 P 
HETATM   12  O   UNK N   1      36.625  14.980  14.212  0.00  0.00    -0.631 OA
BRANCH  11  13
HETATM   13  O   UNK N   1      37.384  13.243  12.409  0.00  0.00    -0.307 OA
HETATM   14  H   UNK N   1      38.132  12.648  12.248  0.00  0.00     0.222 HD
ENDBRANCH  11  13
BRANCH  11  15
HETATM   15  O   UNK N   1      34.725  13.199  13.621  0.00  0.00    -0.263 OA
BRANCH  15  16
HETATM   16  C   UNK N   1      35.201  12.591  14.797  0.00  0.00     0.303 C 
HETATM   17  C   UNK N   1      34.936  11.077  14.840  0.00  0.00     0.205 C 
HETATM   18  C   UNK N   1      35.525  10.530  16.157  0.00  0.00     0.183 C 
HETATM   19  C   UNK N   1      35.148  11.396  17.370  0.00  0.00     0.178 C 
HETATM   20  C   UNK N   1      35.383  12.858  16.997  0.00  0.00     0.152 C 
HETATM   21  O   UNK N   1      34.554  13.146  15.911  0.00  0.00    -0.350 OA
HETATM   22  C   UNK N   1      35.057  13.804  18.135  0.00  0.00     0.042 C 
BRANCH  17  23
HETATM   23  O   UNK N   1      35.539  10.435  13.756  0.00  0.00    -0.388 OA
HETATM   24  H   UNK N   1      36.010  10.816  12.999  0.00  0.00     0.210 HD
ENDBRANCH  17  23
BRANCH  18  25
HETATM   25  O   UNK N   1      35.114   9.213  16.367  0.00  0.00    -0.390 OA
HETATM   26  H   UNK N   1      35.230   8.529  15.688  0.00  0.00     0.210 HD
ENDBRANCH  18  25
BRANCH  19  27
HETATM   27  O   UNK N   1      35.938  11.044  18.465  0.00  0.00    -0.390 OA
HETATM   28  H   UNK N   1      36.408  10.216  18.654  0.00  0.00     0.210 HD
ENDBRANCH  19  27
ENDBRANCH  15  16
ENDBRANCH  11  15
ENDBRANCH  10  11
ENDBRANCH   8  10
BRANCH   8  29
HETATM   29  O   UNK N   1      37.143  16.100  10.848  0.00  0.00    -0.307 OA
HETATM   30  H   UNK N   1      36.973  16.646  11.632  0.00  0.00     0.222 HD
ENDBRANCH   8  29
ENDBRANCH   7   8
ENDBRANCH   6   7
ENDBRANCH   4   6
BRANCH   3  31
HETATM   31  O   UNK N   1      32.278  13.506   9.091  0.00  0.00    -0.390 OA
HETATM   32  H   UNK N   1      31.397  13.334   9.460  0.00  0.00     0.210 HD
ENDBRANCH   3  31
BRANCH   2  33
HETATM   33  O   UNK N   1      31.895  13.778   6.082  0.00  0.00    -0.388 OA
HETATM   34  H   UNK N   1      32.241  12.910   5.824  0.00  0.00     0.210 HD
ENDBRANCH   2  33
BRANCH   1  35
HETATM   35  N   UNK N   1      30.966  16.768   5.916  0.00  0.00    -0.297 N 
HETATM   36  C   UNK N   1      29.846  17.396   6.309  0.00  0.00     0.159 A 
HETATM   37  N   UNK N   1      29.371  17.557   7.567  0.00  0.00    -0.174 N 
HETATM   38  C   UNK N   1      29.200  17.869   5.225  0.00  0.00     0.147 A 
HETATM   39  C   UNK N   1      28.190  18.228   7.734  0.00  0.00     0.680 A 
HETATM   40  H   UNK N   1      29.864  17.202   8.341  0.00  0.00     0.186 HD
HETATM   41  N   UNK N   1      27.514  18.726   6.646  0.00  0.00    -0.154 N 
HETATM   42  N   UNK N   1      27.661  18.401   9.027  0.00  0.00    -0.234 N 
HETATM   43  C   UNK N   1      28.008  18.557   5.372  0.00  0.00     0.290 A 
ATOM     44  HN  UNK N   1      26.636  19.226   6.785  1.00  0.00     0.187 HD
HETATM   45  O   UNK N   1      27.409  18.999   4.408  0.00  0.00    -0.265 OA
HETATM   46  H   UNK N   1      26.776  18.816   9.150  0.00  0.00     0.174 HD
HETATM   47  H   UNK N   1      28.178  18.107   9.812  0.00  0.00     0.174 HD
HETATM   48  N   UNK N   1      29.884  17.560   4.110  0.00  0.00    -0.345 N 
HETATM   49  C   UNK N   1      30.972  16.875   4.562  0.00  0.00     0.188 A 
ATOM     50  HN  UNK N   1      29.644  17.787   3.145  1.00  0.00     0.167 HD
ENDBRANCH   1  35
TORSDOF 15
ENDMDL
MODEL 2
REMARK VINA RESULT:      -8.3      6.091     13.391
REMARK  15 active torsions:
REMARK  status: ('A' for Active; 'I' for Inactive)
REMARK       I    between atoms: C_3  and  N_38 
REMARK    1  A    between atoms: C_12  and  N_8 
REMARK    2  A    between atoms: C_13  and  O_39 
REMARK    3  A    between atoms: C_14  and  O_40 
REMARK    4  A    between atoms: C_15  and  C_17 
REMARK    5  A    between atoms: C_17  and  O_18 
REMARK    6  A    between atoms: O_18  and  P_19 
REMARK    7  A    between atoms: P_19  and  O_20 
REMARK    8  A    between atoms: P_19  and  O_25 
REMARK    9  A    between atoms: O_20  and  P_21 
REMARK   10  A    between atoms: P_21  and  O_22 
REMARK   11  A    between atoms: P_21  and  O_23 
REMARK   12  A    between atoms: C_24  and  O_23 
REMARK   13  A    between atoms: C_28  and  O_36 
REMARK   14  A    between atoms: C_29  and  O_35 
REMARK   15  A    between atoms: C_30  and  O_33 
ROOT
HETATM    1  C   UNK N   1      30.358  17.571   7.621  0.00  0.00     0.262 C 
HETATM    2  C   UNK N   1      29.578  17.508   8.915  0.00  0.00     0.198 C 
HETATM    3  C   UNK N   1      28.471  18.435   8.569  0.00  0.00     0.182 C 
HETATM    4  C   UNK N   1      28.207  18.043   7.137  0.00  0.00     0.180 C 
HETATM    5  O   UNK N   1      29.414  17.571   6.580  0.00  0.00    -0.353 OA
ENDROOT
BRANCH   4   6
HETATM    6  C   UNK N   1      27.720  19.267   6.382  0.00  0.00     0.215 C 
BRANCH   6   7
HETATM    7  O   UNK N   1      27.696  18.999   5.012  0.00  0.00    -0.294 OA
BRANCH   7   8
HETATM    8  P   UNK N   1      26.202  19.696   4.452  0.00  0.00     0.401 P 
HETATM    9  O   UNK N   1      27.220  20.223   3.405  0.00  0.00    -0.631 OA
BRANCH   8  10
HETATM   10  O   UNK N   1      26.169  17.958   4.421  0.00  0.00    -0.195 OA
BRANCH  10  11
HETATM   11  P   UNK N   1      24.496  17.469   4.470  0.00  0.00     0.404 P 
HETATM   12  O   UNK N   1      24.444  16.587   5.746  0.00  0.00    -0.631 OA
BRANCH  11  13
HETATM   13  O   UNK N   1      24.046  16.407   3.168  0.00  0.00    -0.307 OA
HETATM   14  H   UNK N   1      23.979  15.777   2.433  0.00  0.00     0.222 HD
ENDBRANCH  11  13
BRANCH  11  15
HETATM   15  O   UNK N   1      23.368  18.797   4.706  0.00  0.00    -0.263 OA
BRANCH  15  16
HETATM   16  C   UNK N   1      22.315  18.582   3.798  0.00  0.00     0.303 C 
HETATM   17  C   UNK N   1      21.864  19.866   3.084  0.00  0.00     0.205 C 
HETATM   18  C   UNK N   1      20.732  19.492   2.105  0.00  0.00     0.183 C 
HETATM   19  C   UNK N   1      19.678  18.579   2.751  0.00  0.00     0.178 C 
HETATM   20  C   UNK N   1      20.412  17.471   3.504  0.00  0.00     0.152 C 
HETATM   21  O   UNK N   1      21.195  18.085   4.482  0.00  0.00    -0.350 OA
HETATM   22  C   UNK N   1      19.460  16.497   4.170  0.00  0.00     0.042 C 
BRANCH  17  23
HETATM   23  O   UNK N   1      22.922  20.442   2.378  0.00  0.00    -0.388 OA
HETATM   24  H   UNK N   1      23.116  20.414   1.428  0.00  0.00     0.210 HD
ENDBRANCH  17  23
BRANCH  18  25
HETATM   25  O   UNK N   1      20.121  20.641   1.601  0.00  0.00    -0.390 OA
HETATM   26  H   UNK N   1      20.113  20.839   0.651  0.00  0.00     0.210 HD
ENDBRANCH  18  25
BRANCH  19  27
HETATM   27  O   UNK N   1      18.858  18.031   1.764  0.00  0.00    -0.390 OA
HETATM   28  H   UNK N   1      18.817  17.125   1.420  0.00  0.00     0.210 HD
ENDBRANCH  19  27
ENDBRANCH  15  16
ENDBRANCH  11  15
ENDBRANCH  10  11
ENDBRANCH   8  10
BRANCH   8  29
HETATM   29  O   UNK N   1      25.518  19.183   2.938  0.00  0.00    -0.307 OA
HETATM   30  H   UNK N   1      25.921  18.451   2.444  0.00  0.00     0.222 HD
ENDBRANCH   8  29
ENDBRANCH   7   8
ENDBRANCH   6   7
ENDBRANCH   4   6
BRANCH   3  31
HETATM   31  O   UNK N   1      27.349  18.216   9.368  0.00  0.00    -0.390 OA
HETATM   32  H   UNK N   1      27.255  18.359  10.323  0.00  0.00     0.210 HD
ENDBRANCH   3  31
BRANCH   2  33
HETATM   33  O   UNK N   1      30.324  18.005   9.983  0.00  0.00    -0.388 OA
HETATM   34  H   UNK N   1      30.866  18.729  10.330  0.00  0.00     0.210 HD
ENDBRANCH   2  33
BRANCH   1  35
HETATM   35  N   UNK N   1      31.303  16.468   7.432  0.00  0.00    -0.297 N 
HETATM   36  C   UNK N   1      32.463  16.193   8.051  0.00  0.00     0.159 A 
HETATM   37  N   UNK N   1      33.083  16.899   9.025  0.00  0.00    -0.174 N 
HETATM   38  C   UNK N   1      32.977  15.055   7.542  0.00  0.00     0.147 A 
HETATM   39  C   UNK N   1      34.277  16.434   9.506  0.00  0.00     0.680 A 
HETATM   40  H   UNK N   1      32.684  17.726   9.380  0.00  0.00     0.186 HD
HETATM   41  N   UNK N   1      34.821  15.273   9.008  0.00  0.00    -0.154 N 
HETATM   42  N   UNK N   1      34.956  17.151  10.509  0.00  0.00    -0.234 N 
HETATM   43  C   UNK N   1      34.180  14.562   8.019  0.00  0.00     0.290 A 
ATOM     44  HN  UNK N   1      35.709  14.935   9.377  1.00  0.00     0.187 HD
HETATM   45  O   UNK N   1      34.662  13.534   7.580  0.00  0.00    -0.265 OA
HETATM   46  H   UNK N   1      35.849  16.864  10.807  0.00  0.00     0.174 HD
HETATM   47  H   UNK N   1      34.534  17.944  10.915  0.00  0.00     0.174 HD
HETATM   48  N   UNK N   1      32.166  14.570   6.588  0.00  0.00    -0.345 N 
HETATM   49  C   UNK N   1      31.138  15.463   6.534  0.00  0.00     0.188 A 
ATOM     50  HN  UNK N   1      32.291  13.726   6.029  1.00  0.00     0.167 HD
ENDBRANCH   1  35
TORSDOF 15
ENDMDL
MODEL 3
REMARK VINA RESULT:      -8.2      4.547     10.402
REMARK  15 active torsions:
REMARK  status: ('A' for Active; 'I' for Inactive)
REMARK       I    between atoms: C_3  and  N_38 
REMARK    1  A    between atoms: C_12  and  N_8 
REMARK    2  A    between atoms: C_13  and  O_39 
REMARK    3  A    between atoms: C_14  and  O_40 
REMARK    4  A    between atoms: C_15  and  C_17 
REMARK    5  A    between atoms: C_17  and  O_18 
REMARK    6  A    between atoms: O_18  and  P_19 
REMARK    7  A    between atoms: P_19  and  O_20 
REMARK    8  A    between atoms: P_19  and  O_25 
REMARK    9  A    between atoms: O_20  and  P_21 
REMARK   10  A    between atoms: P_21  and  O_22 
REMARK   11  A    between atoms: P_21  and  O_23 
REMARK   12  A    between atoms: C_24  and  O_23 
REMARK   13  A    between atoms: C_28  and  O_36 
REMARK   14  A    between atoms: C_29  and  O_35 
REMARK   15  A    between atoms: C_30  and  O_33 
ROOT
HETATM    1  C   UNK N   1      35.742  12.757  11.275  0.00  0.00     0.262 C 
HETATM    2  C   UNK N   1      36.921  13.700  11.363  0.00  0.00     0.198 C 
HETATM    3  C   UNK N   1      36.342  14.870  10.656  0.00  0.00     0.182 C 
HETATM    4  C   UNK N   1      34.933  14.860  11.194  0.00  0.00     0.180 C 
HETATM    5  O   UNK N   1      34.590  13.528  11.508  0.00  0.00    -0.353 OA
ENDROOT
BRANCH   4   6
HETATM    6  C   UNK N   1      34.003  15.408  10.127  0.00  0.00     0.215 C 
BRANCH   6   7
HETATM    7  O   UNK N   1      34.751  15.928   9.069  0.00  0.00    -0.294 OA
BRANCH   7   8
HETATM    8  P   UNK N   1      33.965  17.428   8.668  0.00  0.00     0.401 P 
HETATM    9  O   UNK N   1      35.332  17.915   9.220  0.00  0.00    -0.631 OA
BRANCH   8  10
HETATM   10  O   UNK N   1      34.215  16.424   7.271  0.00  0.00    -0.195 OA
BRANCH  10  11
HETATM   11  P   UNK N   1      32.678  16.266   6.462  0.00  0.00     0.404 P 
HETATM   12  O   UNK N   1      32.908  15.030   5.551  0.00  0.00    -0.631 OA
BRANCH  11  13
HETATM   13  O   UNK N   1      32.331  17.574   5.371  0.00  0.00    -0.307 OA
HETATM   14  H   UNK N   1      32.308  18.269   4.693  0.00  0.00     0.222 HD
ENDBRANCH  11  13
BRANCH  11  15
HETATM   15  O   UNK N   1      31.340  15.881   7.537  0.00  0.00    -0.263 OA
BRANCH  15  16
HETATM   16  C   UNK N   1      30.397  16.912   7.369  0.00  0.00     0.303 C 
HETATM   17  C   UNK N   1      29.509  17.121   8.607  0.00  0.00     0.205 C 
HETATM   18  C   UNK N   1      28.543  18.286   8.305  0.00  0.00     0.183 C 
HETATM   19  C   UNK N   1      27.889  18.160   6.920  0.00  0.00     0.178 C 
HETATM   20  C   UNK N   1      28.983  17.817   5.912  0.00  0.00     0.152 C 
HETATM   21  O   UNK N   1      29.539  16.598   6.304  0.00  0.00    -0.350 OA
HETATM   22  C   UNK N   1      28.446  17.685   4.501  0.00  0.00     0.042 C 
BRANCH  17  23
HETATM   23  O   UNK N   1      30.281  17.431   9.728  0.00  0.00    -0.388 OA
HETATM   24  H   UNK N   1      30.907  16.875  10.217  0.00  0.00     0.210 HD
ENDBRANCH  17  23
BRANCH  18  25
HETATM   25  O   UNK N   1      27.559  18.373   9.291  0.00  0.00    -0.390 OA
HETATM   26  H   UNK N   1      27.784  18.422  10.233  0.00  0.00     0.210 HD
ENDBRANCH  18  25
BRANCH  19  27
HETATM   27  O   UNK N   1      27.276  19.366   6.577  0.00  0.00    -0.390 OA
HETATM   28  H   UNK N   1      27.504  20.006   5.884  0.00  0.00     0.210 HD
ENDBRANCH  19  27
ENDBRANCH  15  16
ENDBRANCH  11  15
ENDBRANCH  10  11
ENDBRANCH   8  10
BRANCH   8  29
HETATM   29  O   UNK N   1      34.586  18.417   7.380  0.00  0.00    -0.307 OA
HETATM   30  H   UNK N   1      34.321  18.245   6.462  0.00  0.00     0.222 HD
ENDBRANCH   8  29
ENDBRANCH   7   8
ENDBRANCH   6   7
ENDBRANCH   4   6
BRANCH   3  31
HETATM   31  O   UNK N   1      37.003  16.051  10.990  0.00  0.00    -0.390 OA
HETATM   32  H   UNK N   1      37.917  16.160  11.299  0.00  0.00     0.210 HD
ENDBRANCH   3  31
BRANCH   2  33
HETATM   33  O   UNK N   1      38.024  13.200  10.672  0.00  0.00    -0.388 OA
HETATM   34  H   UNK N   1      38.921  12.835  10.725  0.00  0.00     0.210 HD
ENDBRANCH   2  33
BRANCH   1  35
HETATM   35  N   UNK N   1      35.790  11.641  12.223  0.00  0.00    -0.297 N 
HETATM   36  C   UNK N   1      35.494  11.591  13.533  0.00  0.00     0.159 A 
HETATM   37  N   UNK N   1      35.079  12.597  14.339  0.00  0.00    -0.174 N 
HETATM   38  C   UNK N   1      35.681  10.334  13.981  0.00  0.00     0.147 A 
HETATM   39  C   UNK N   1      34.845  12.317  15.658  0.00  0.00     0.680 A 
HETATM   40  H   UNK N   1      34.948  13.506  13.985  0.00  0.00     0.186 HD
HETATM   41  N   UNK N   1      35.024  11.042  16.140  0.00  0.00    -0.154 N 
HETATM   42  N   UNK N   1      34.427  13.343  16.527  0.00  0.00    -0.234 N 
HETATM   43  C   UNK N   1      35.443  10.027  15.310  0.00  0.00     0.290 A 
ATOM     44  HN  UNK N   1      34.842  10.847  17.124  1.00  0.00     0.187 HD
HETATM   45  O   UNK N   1      35.600   8.898  15.738  0.00  0.00    -0.265 OA
HETATM   46  H   UNK N   1      34.329  13.167  17.491  0.00  0.00     0.174 HD
HETATM   47  H   UNK N   1      34.232  14.239  16.169  0.00  0.00     0.174 HD
HETATM   48  N   UNK N   1      36.102   9.545  12.977  0.00  0.00    -0.345 N 
HETATM   49  C   UNK N   1      36.166  10.377  11.900  0.00  0.00     0.188 A 
ATOM     50  HN  UNK N   1      36.323   8.550  13.014  1.00  0.00     0.167 HD
ENDBRANCH   1  35
TORSDOF 15
ENDMDL
MODEL 4
REMARK VINA RESULT:      -8.1      9.142     13.296
REMARK  15 active torsions:
REMARK  status: ('A' for Active; 'I' for Inactive)
REMARK       I    between atoms: C_3  and  N_38 
REMARK    1  A    between atoms: C_12  and  N_8 
REMARK    2  A    between atoms: C_13  and  O_39 
REMARK    3  A    between atoms: C_14  and  O_40 
REMARK    4  A    between atoms: C_15  and  C_17 
REMARK    5  A    between atoms: C_17  and  O_18 
REMARK    6  A    between atoms: O_18  and  P_19 
REMARK    7  A    between atoms: P_19  and  O_20 
REMARK    8  A    between atoms: P_19  and  O_25 
REMARK    9  A    between atoms: O_20  and  P_21 
REMARK   10  A    between atoms: P_21  and  O_22 
REMARK   11  A    between atoms: P_21  and  O_23 
REMARK   12  A    between atoms: C_24  and  O_23 
REMARK   13  A    between atoms: C_28  and  O_36 
REMARK   14  A    between atoms: C_29  and  O_35 
REMARK   15  A    between atoms: C_30  and  O_33 
ROOT
HETATM    1  C   UNK N   1      24.370  19.104   3.552  0.00  0.00     0.262 C 
HETATM    2  C   UNK N   1      24.003  20.499   3.098  0.00  0.00     0.198 C 
HETATM    3  C   UNK N   1      22.580  20.265   2.743  0.00  0.00     0.182 C 
HETATM    4  C   UNK N   1      22.152  19.354   3.866  0.00  0.00     0.180 C 
HETATM    5  O   UNK N   1      23.278  18.618   4.292  0.00  0.00    -0.353 OA
ENDROOT
BRANCH   4   6
HETATM    6  C   UNK N   1      21.075  18.418   3.346  0.00  0.00     0.215 C 
BRANCH   6   7
HETATM    7  O   UNK N   1      21.665  17.296   2.762  0.00  0.00    -0.294 OA
BRANCH   7   8
HETATM    8  P   UNK N   1      20.567  15.990   3.106  0.00  0.00     0.401 P 
HETATM    9  O   UNK N   1      20.060  16.486   1.726  0.00  0.00    -0.631 OA
BRANCH   8  10
HETATM   10  O   UNK N   1      22.212  15.446   2.971  0.00  0.00    -0.195 OA
BRANCH  10  11
HETATM   11  P   UNK N   1      22.638  14.692   4.485  0.00  0.00     0.404 P 
HETATM   12  O   UNK N   1      24.086  14.203   4.217  0.00  0.00    -0.631 OA
BRANCH  11  13
HETATM   13  O   UNK N   1      21.727  13.250   4.822  0.00  0.00    -0.307 OA
HETATM   14  H   UNK N   1      21.218  12.509   5.187  0.00  0.00     0.222 HD
ENDBRANCH  11  13
BRANCH  11  15
HETATM   15  O   UNK N   1      22.706  15.806   5.844  0.00  0.00    -0.263 OA
BRANCH  15  16
HETATM   16  C   UNK N   1      21.706  15.389   6.741  0.00  0.00     0.303 C 
HETATM   17  C   UNK N   1      21.021  16.559   7.465  0.00  0.00     0.205 C 
HETATM   18  C   UNK N   1      19.937  15.973   8.393  0.00  0.00     0.183 C 
HETATM   19  C   UNK N   1      20.450  14.777   9.211  0.00  0.00     0.178 C 
HETATM   20  C   UNK N   1      21.205  13.848   8.264  0.00  0.00     0.152 C 
HETATM   21  O   UNK N   1      22.273  14.575   7.734  0.00  0.00    -0.350 OA
HETATM   22  C   UNK N   1      21.744  12.619   8.968  0.00  0.00     0.042 C 
BRANCH  17  23
HETATM   23  O   UNK N   1      20.432  17.435   6.551  0.00  0.00    -0.388 OA
HETATM   24  H   UNK N   1      20.794  18.238   6.146  0.00  0.00     0.210 HD
ENDBRANCH  17  23
BRANCH  18  25
HETATM   25  O   UNK N   1      19.440  16.957   9.249  0.00  0.00    -0.390 OA
HETATM   26  H   UNK N   1      19.520  17.901   9.040  0.00  0.00     0.210 HD
ENDBRANCH  18  25
BRANCH  19  27
HETATM   27  O   UNK N   1      19.374  14.105   9.791  0.00  0.00    -0.390 OA
HETATM   28  H   UNK N   1      18.469  14.409   9.964  0.00  0.00     0.210 HD
ENDBRANCH  19  27
ENDBRANCH  15  16
ENDBRANCH  11  15
ENDBRANCH  10  11
ENDBRANCH   8  10
BRANCH   8  29
HETATM   29  O   UNK N   1      20.595  14.551   2.130  0.00  0.00    -0.307 OA
HETATM   30  H   UNK N   1      20.230  14.565   1.231  0.00  0.00     0.222 HD
ENDBRANCH   8  29
ENDBRANCH   7   8
ENDBRANCH   6   7
ENDBRANCH   4   6
BRANCH   3  31
HETATM   31  O   UNK N   1      21.848  21.452   2.748  0.00  0.00    -0.390 OA
HETATM   32  H   UNK N   1      21.767  22.104   3.462  0.00  0.00     0.210 HD
ENDBRANCH   3  31
BRANCH   2  33
HETATM   33  O   UNK N   1      24.737  20.879   1.976  0.00  0.00    -0.388 OA
HETATM   34  H   UNK N   1      25.489  21.381   1.627  0.00  0.00     0.210 HD
ENDBRANCH   2  33
BRANCH   1  35
HETATM   35  N   UNK N   1      25.587  19.035   4.364  0.00  0.00    -0.297 N 
HETATM   36  C   UNK N   1      26.015  18.094   5.223  0.00  0.00     0.159 A 
HETATM   37  N   UNK N   1      25.400  16.942   5.580  0.00  0.00    -0.174 N 
HETATM   38  C   UNK N   1      27.207  18.466   5.729  0.00  0.00     0.147 A 
HETATM   39  C   UNK N   1      26.021  16.131   6.492  0.00  0.00     0.680 A 
HETATM   40  H   UNK N   1      24.530  16.694   5.194  0.00  0.00     0.186 HD
HETATM   41  N   UNK N   1      27.240  16.484   7.019  0.00  0.00    -0.154 N 
HETATM   42  N   UNK N   1      25.403  14.932   6.896  0.00  0.00    -0.234 N 
HETATM   43  C   UNK N   1      27.856  17.657   6.646  0.00  0.00     0.290 A 
ATOM     44  HN  UNK N   1      27.693  15.869   7.694  1.00  0.00     0.187 HD
HETATM   45  O   UNK N   1      28.937  17.968   7.113  0.00  0.00    -0.265 OA
HETATM   46  H   UNK N   1      25.806  14.381   7.605  0.00  0.00     0.174 HD
HETATM   47  H   UNK N   1      24.564  14.644   6.468  0.00  0.00     0.174 HD
HETATM   48  N   UNK N   1      27.577  19.650   5.212  0.00  0.00    -0.345 N 
HETATM   49  C   UNK N   1      26.558  19.985   4.374  0.00  0.00     0.188 A 
ATOM     50  HN  UNK N   1      28.428  20.179   5.405  1.00  0.00     0.167 HD
ENDBRANCH   1  35
TORSDOF 15
ENDMDL
MODEL 5
REMARK VINA RESULT:      -8.1      9.061     12.689
REMARK  15 active torsions:
REMARK  status: ('A' for Active; 'I' for Inactive)
REMARK       I    between atoms: C_3  and  N_38 
REMARK    1  A    between atoms: C_12  and  N_8 
REMARK    2  A    between atoms: C_13  and  O_39 
REMARK    3  A    between atoms: C_14  and  O_40 
REMARK    4  A    between atoms: C_15  and  C_17 
REMARK    5  A    between atoms: C_17  and  O_18 
REMARK    6  A    between atoms: O_18  and  P_19 
REMARK    7  A    between atoms: P_19  and  O_20 
REMARK    8  A    between atoms: P_19  and  O_25 
REMARK    9  A    between atoms: O_20  and  P_21 
REMARK   10  A    between atoms: P_21  and  O_22 
REMARK   11  A    between atoms: P_21  and  O_23 
REMARK   12  A    between atoms: C_24  and  O_23 
REMARK   13  A    between atoms: C_28  and  O_36 
REMARK   14  A    between atoms: C_29  and  O_35 
REMARK   15  A    between atoms: C_30  and  O_33 
ROOT
HETATM    1  C   UNK N   1      24.763  19.059   3.501  0.00  0.00     0.262 C 
HETATM    2  C   UNK N   1      24.340  20.459   3.115  0.00  0.00     0.198 C 
HETATM    3  C   UNK N   1      22.904  20.204   2.838  0.00  0.00     0.182 C 
HETATM    4  C   UNK N   1      22.563  19.250   3.954  0.00  0.00     0.180 C 
HETATM    5  O   UNK N   1      23.727  18.527   4.289  0.00  0.00    -0.353 OA
ENDROOT
BRANCH   4   6
HETATM    6  C   UNK N   1      21.476  18.306   3.470  0.00  0.00     0.215 C 
BRANCH   6   7
HETATM    7  O   UNK N   1      21.197  17.360   4.457  0.00  0.00    -0.294 OA
BRANCH   7   8
HETATM    8  P   UNK N   1      19.633  16.725   4.030  0.00  0.00     0.401 P 
HETATM    9  O   UNK N   1      20.195  17.161   2.650  0.00  0.00    -0.631 OA
BRANCH   8  10
HETATM   10  O   UNK N   1      20.663  15.514   4.733  0.00  0.00    -0.195 OA
BRANCH  10  11
HETATM   11  P   UNK N   1      20.216  15.359   6.411  0.00  0.00     0.404 P 
HETATM   12  O   UNK N   1      18.752  15.875   6.414  0.00  0.00    -0.631 OA
BRANCH  11  13
HETATM   13  O   UNK N   1      21.080  16.443   7.462  0.00  0.00    -0.307 OA
HETATM   14  H   UNK N   1      21.710  16.939   8.008  0.00  0.00     0.222 HD
ENDBRANCH  11  13
BRANCH  11  15
HETATM   15  O   UNK N   1      20.187  13.700   6.994  0.00  0.00    -0.263 OA
BRANCH  15  16
HETATM   16  C   UNK N   1      21.134  13.635   8.032  0.00  0.00     0.303 C 
HETATM   17  C   UNK N   1      22.538  13.245   7.543  0.00  0.00     0.205 C 
HETATM   18  C   UNK N   1      23.480  13.235   8.765  0.00  0.00     0.183 C 
HETATM   19  C   UNK N   1      22.869  12.497   9.968  0.00  0.00     0.178 C 
HETATM   20  C   UNK N   1      21.431  12.982  10.137  0.00  0.00     0.152 C 
HETATM   21  O   UNK N   1      20.746  12.660   8.964  0.00  0.00    -0.350 OA
HETATM   22  C   UNK N   1      20.736  12.327  11.313  0.00  0.00     0.042 C 
BRANCH  17  23
HETATM   23  O   UNK N   1      23.008  14.160   6.598  0.00  0.00    -0.388 OA
HETATM   24  H   UNK N   1      23.262  15.089   6.713  0.00  0.00     0.210 HD
ENDBRANCH  17  23
BRANCH  18  25
HETATM   25  O   UNK N   1      24.709  12.664   8.431  0.00  0.00    -0.390 OA
HETATM   26  H   UNK N   1      25.412  12.546   9.089  0.00  0.00     0.210 HD
ENDBRANCH  18  25
BRANCH  19  27
HETATM   27  O   UNK N   1      23.611  12.774  11.117  0.00  0.00    -0.390 OA
HETATM   28  H   UNK N   1      24.556  12.970  11.217  0.00  0.00     0.210 HD
ENDBRANCH  19  27
ENDBRANCH  15  16
ENDBRANCH  11  15
ENDBRANCH  10  11
ENDBRANCH   8  10
BRANCH   8  29
HETATM   29  O   UNK N   1      19.514  15.276   3.076  0.00  0.00    -0.307 OA
HETATM   30  H   UNK N   1      19.062  15.294   2.217  0.00  0.00     0.222 HD
ENDBRANCH   8  29
ENDBRANCH   7   8
ENDBRANCH   6   7
ENDBRANCH   4   6
BRANCH   3  31
HETATM   31  O   UNK N   1      22.149  21.374   2.924  0.00  0.00    -0.390 OA
HETATM   32  H   UNK N   1      22.451  22.291   2.830  0.00  0.00     0.210 HD
ENDBRANCH   3  31
BRANCH   2  33
HETATM   33  O   UNK N   1      24.998  20.889   1.963  0.00  0.00    -0.388 OA
HETATM   34  H   UNK N   1      25.823  20.906   1.456  0.00  0.00     0.210 HD
ENDBRANCH   2  33
BRANCH   1  35
HETATM   35  N   UNK N   1      26.028  18.993   4.237  0.00  0.00    -0.297 N 
HETATM   36  C   UNK N   1      26.485  18.082   5.113  0.00  0.00     0.159 A 
HETATM   37  N   UNK N   1      25.864  16.967   5.565  0.00  0.00    -0.174 N 
HETATM   38  C   UNK N   1      27.717  18.442   5.523  0.00  0.00     0.147 A 
HETATM   39  C   UNK N   1      26.521  16.182   6.473  0.00  0.00     0.680 A 
HETATM   40  H   UNK N   1      24.965  16.726   5.247  0.00  0.00     0.186 HD
HETATM   41  N   UNK N   1      27.781  16.523   6.904  0.00  0.00    -0.154 N 
HETATM   42  N   UNK N   1      25.899  15.023   6.975  0.00  0.00    -0.234 N 
HETATM   43  C   UNK N   1      28.403  17.658   6.435  0.00  0.00     0.290 A 
ATOM     44  HN  UNK N   1      28.260  15.928   7.579  1.00  0.00     0.187 HD
HETATM   45  O   UNK N   1      29.519  17.959   6.817  0.00  0.00    -0.265 OA
HETATM   46  H   UNK N   1      26.333  14.494   7.683  0.00  0.00     0.174 HD
HETATM   47  H   UNK N   1      25.027  14.740   6.615  0.00  0.00     0.174 HD
HETATM   48  N   UNK N   1      28.084  19.589   4.926  0.00  0.00    -0.345 N 
HETATM   49  C   UNK N   1      27.022  19.913   4.138  0.00  0.00     0.188 A 
ATOM     50  HN  UNK N   1      28.960  20.100   5.037  1.00  0.00     0.167 HD
ENDBRANCH   1  35
TORSDOF 15
ENDMDL
MODEL 6
REMARK VINA RESULT:      -7.9      4.527     10.149
REMARK  15 active torsions:
REMARK  status: ('A' for Active; 'I' for Inactive)
REMARK       I    between atoms: C_3  and  N_38 
REMARK    1  A    between atoms: C_12  and  N_8 
REMARK    2  A    between atoms: C_13  and  O_39 
REMARK    3  A    between atoms: C_14  and  O_40 
REMARK    4  A    between atoms: C_15  and  C_17 
REMARK    5  A    between atoms: C_17  and  O_18 
REMARK    6  A    between atoms: O_18  and  P_19 
REMARK    7  A    between atoms: P_19  and  O_20 
REMARK    8  A    between atoms: P_19  and  O_25 
REMARK    9  A    between atoms: O_20  and  P_21 
REMARK   10  A    between atoms: P_21  and  O_22 
REMARK   11  A    between atoms: P_21  and  O_23 
REMARK   12  A    between atoms: C_24  and  O_23 
REMARK   13  A    between atoms: C_28  and  O_36 
REMARK   14  A    between atoms: C_29  and  O_35 
REMARK   15  A    between atoms: C_30  and  O_33 
ROOT
HETATM    1  C   UNK N   1      35.376  14.151  10.734  0.00  0.00     0.262 C 
HETATM    2  C   UNK N   1      36.080  15.480  10.886  0.00  0.00     0.198 C 
HETATM    3  C   UNK N   1      35.370  16.246   9.831  0.00  0.00     0.182 C 
HETATM    4  C   UNK N   1      33.958  15.752  10.021  0.00  0.00     0.180 C 
HETATM    5  O   UNK N   1      34.015  14.435  10.526  0.00  0.00    -0.353 OA
ENDROOT
BRANCH   4   6
HETATM    6  C   UNK N   1      33.252  15.773   8.677  0.00  0.00     0.215 C 
BRANCH   6   7
HETATM    7  O   UNK N   1      34.130  16.223   7.689  0.00  0.00    -0.294 OA
BRANCH   7   8
HETATM    8  P   UNK N   1      33.256  17.482   6.863  0.00  0.00     0.401 P 
HETATM    9  O   UNK N   1      34.667  18.110   7.013  0.00  0.00    -0.631 OA
BRANCH   8  10
HETATM   10  O   UNK N   1      33.355  16.024   5.921  0.00  0.00    -0.195 OA
BRANCH  10  11
HETATM   11  P   UNK N   1      31.824  15.823   5.110  0.00  0.00     0.404 P 
HETATM   12  O   UNK N   1      31.161  14.683   5.928  0.00  0.00    -0.631 OA
BRANCH  11  13
HETATM   13  O   UNK N   1      31.973  15.194   3.495  0.00  0.00    -0.307 OA
HETATM   14  H   UNK N   1      32.010  15.018   2.542  0.00  0.00     0.222 HD
ENDBRANCH  11  13
BRANCH  11  15
HETATM   15  O   UNK N   1      30.769  17.226   5.216  0.00  0.00    -0.263 OA
BRANCH  15  16
HETATM   16  C   UNK N   1      29.878  16.965   6.272  0.00  0.00     0.303 C 
HETATM   17  C   UNK N   1      28.425  16.786   5.804  0.00  0.00     0.205 C 
HETATM   18  C   UNK N   1      27.561  16.482   7.045  0.00  0.00     0.183 C 
HETATM   19  C   UNK N   1      27.863  17.431   8.216  0.00  0.00     0.178 C 
HETATM   20  C   UNK N   1      29.380  17.525   8.366  0.00  0.00     0.152 C 
HETATM   21  O   UNK N   1      29.883  18.043   7.171  0.00  0.00    -0.350 OA
HETATM   22  C   UNK N   1      29.792  18.429   9.510  0.00  0.00     0.042 C 
BRANCH  17  23
HETATM   23  O   UNK N   1      28.321  15.733   4.892  0.00  0.00    -0.388 OA
HETATM   24  H   UNK N   1      28.555  15.708   3.951  0.00  0.00     0.210 HD
ENDBRANCH  17  23
BRANCH  18  25
HETATM   25  O   UNK N   1      26.204  16.541   6.723  0.00  0.00    -0.390 OA
HETATM   26  H   UNK N   1      25.516  16.509   7.407  0.00  0.00     0.210 HD
ENDBRANCH  18  25
BRANCH  19  27
HETATM   27  O   UNK N   1      27.292  16.933   9.387  0.00  0.00    -0.390 OA
HETATM   28  H   UNK N   1      27.057  17.391  10.210  0.00  0.00     0.210 HD
ENDBRANCH  19  27
ENDBRANCH  15  16
ENDBRANCH  11  15
ENDBRANCH  10  11
ENDBRANCH   8  10
BRANCH   8  29
HETATM   29  O   UNK N   1      33.679  17.906   5.231  0.00  0.00    -0.307 OA
HETATM   30  H   UNK N   1      34.408  18.524   5.061  0.00  0.00     0.222 HD
ENDBRANCH   8  29
ENDBRANCH   7   8
ENDBRANCH   6   7
ENDBRANCH   4   6
BRANCH   3  31
HETATM   31  O   UNK N   1      35.458  17.621  10.048  0.00  0.00    -0.390 OA
HETATM   32  H   UNK N   1      34.879  18.321   9.704  0.00  0.00     0.210 HD
ENDBRANCH   3  31
BRANCH   2  33
HETATM   33  O   UNK N   1      37.438  15.373  10.590  0.00  0.00    -0.388 OA
HETATM   34  H   UNK N   1      38.329  15.737  10.710  0.00  0.00     0.210 HD
ENDBRANCH   2  33
BRANCH   1  35
HETATM   35  N   UNK N   1      35.523  13.255  11.884  0.00  0.00    -0.297 N 
HETATM   36  C   UNK N   1      36.013  13.482  13.114  0.00  0.00     0.159 A 
HETATM   37  N   UNK N   1      36.529  14.630  13.613  0.00  0.00    -0.174 N 
HETATM   38  C   UNK N   1      35.933  12.349  13.838  0.00  0.00     0.147 A 
HETATM   39  C   UNK N   1      36.986  14.629  14.903  0.00  0.00     0.680 A 
HETATM   40  H   UNK N   1      36.574  15.444  13.062  0.00  0.00     0.186 HD
HETATM   41  N   UNK N   1      36.911  13.488  15.666  0.00  0.00    -0.154 N 
HETATM   42  N   UNK N   1      37.542  15.802  15.449  0.00  0.00    -0.234 N 
HETATM   43  C   UNK N   1      36.382  12.328  15.148  0.00  0.00     0.290 A 
ATOM     44  HN  UNK N   1      37.251  13.502  16.627  1.00  0.00     0.187 HD
HETATM   45  O   UNK N   1      36.315  11.318  15.825  0.00  0.00    -0.265 OA
HETATM   46  H   UNK N   1      37.940  15.789  16.350  0.00  0.00     0.174 HD
HETATM   47  H   UNK N   1      37.532  16.637  14.928  0.00  0.00     0.174 HD
HETATM   48  N   UNK N   1      35.392  11.366  13.098  0.00  0.00    -0.345 N 
HETATM   49  C   UNK N   1      35.150  11.949  11.891  0.00  0.00     0.188 A 
ATOM     50  HN  UNK N   1      35.206  10.403  13.376  1.00  0.00     0.167 HD
ENDBRANCH   1  35
TORSDOF 15
ENDMDL
MODEL 7
REMARK VINA RESULT:      -7.9      9.452     12.758
REMARK  15 active torsions:
REMARK  status: ('A' for Active; 'I' for Inactive)
REMARK       I    between atoms: C_3  and  N_38 
REMARK    1  A    between atoms: C_12  and  N_8 
REMARK    2  A    between atoms: C_13  and  O_39 
REMARK    3  A    between atoms: C_14  and  O_40 
REMARK    4  A    between atoms: C_15  and  C_17 
REMARK    5  A    between atoms: C_17  and  O_18 
REMARK    6  A    between atoms: O_18  and  P_19 
REMARK    7  A    between atoms: P_19  and  O_20 
REMARK    8  A    between atoms: P_19  and  O_25 
REMARK    9  A    between atoms: O_20  and  P_21 
REMARK   10  A    between atoms: P_21  and  O_22 
REMARK   11  A    between atoms: P_21  and  O_23 
REMARK   12  A    between atoms: C_24  and  O_23 
REMARK   13  A    between atoms: C_28  and  O_36 
REMARK   14  A    between atoms: C_29  and  O_35 
REMARK   15  A    between atoms: C_30  and  O_33 
ROOT
HETATM    1  C   UNK N   1      21.253  17.191   5.273  0.00  0.00     0.262 C 
HETATM    2  C   UNK N   1      19.911  16.683   4.797  0.00  0.00     0.198 C 
HETATM    3  C   UNK N   1      19.434  16.060   6.057  0.00  0.00     0.182 C 
HETATM    4  C   UNK N   1      19.899  17.076   7.071  0.00  0.00     0.180 C 
HETATM    5  O   UNK N   1      21.056  17.706   6.566  0.00  0.00    -0.353 OA
ENDROOT
BRANCH   4   6
HETATM    6  C   UNK N   1      20.213  16.354   8.369  0.00  0.00     0.215 C 
BRANCH   6   7
HETATM    7  O   UNK N   1      19.890  15.002   8.250  0.00  0.00    -0.294 OA
BRANCH   7   8
HETATM    8  P   UNK N   1      20.889  14.202   9.429  0.00  0.00     0.401 P 
HETATM    9  O   UNK N   1      19.460  13.886   9.946  0.00  0.00    -0.631 OA
BRANCH   8  10
HETATM   10  O   UNK N   1      21.101  13.543   7.835  0.00  0.00    -0.195 OA
BRANCH  10  11
HETATM   11  P   UNK N   1      22.804  13.604   7.468  0.00  0.00     0.404 P 
HETATM   12  O   UNK N   1      22.933  12.573   6.314  0.00  0.00    -0.631 OA
BRANCH  11  13
HETATM   13  O   UNK N   1      23.811  12.985   8.743  0.00  0.00    -0.307 OA
HETATM   14  H   UNK N   1      24.509  12.740   9.371  0.00  0.00     0.222 HD
ENDBRANCH  11  13
BRANCH  11  15
HETATM   15  O   UNK N   1      23.347  15.157   6.844  0.00  0.00    -0.263 OA
BRANCH  15  16
HETATM   16  C   UNK N   1      24.470  14.884   6.042  0.00  0.00     0.303 C 
HETATM   17  C   UNK N   1      25.771  15.473   6.611  0.00  0.00     0.205 C 
HETATM   18  C   UNK N   1      26.922  15.084   5.659  0.00  0.00     0.183 C 
HETATM   19  C   UNK N   1      26.568  15.325   4.183  0.00  0.00     0.178 C 
HETATM   20  C   UNK N   1      25.171  14.760   3.936  0.00  0.00     0.152 C 
HETATM   21  O   UNK N   1      24.291  15.451   4.771  0.00  0.00    -0.350 OA
HETATM   22  C   UNK N   1      24.726  14.931   2.497  0.00  0.00     0.042 C 
BRANCH  17  23
HETATM   23  O   UNK N   1      26.030  14.970   7.888  0.00  0.00    -0.388 OA
HETATM   24  H   UNK N   1      25.988  15.418   8.746  0.00  0.00     0.210 HD
ENDBRANCH  17  23
BRANCH  18  25
HETATM   25  O   UNK N   1      28.086  15.781   5.989  0.00  0.00    -0.390 OA
HETATM   26  H   UNK N   1      28.834  15.344   6.427  0.00  0.00     0.210 HD
ENDBRANCH  18  25
BRANCH  19  27
HETATM   27  O   UNK N   1      27.499  14.687   3.364  0.00  0.00    -0.390 OA
HETATM   28  H   UNK N   1      28.184  15.063   2.788  0.00  0.00     0.210 HD
ENDBRANCH  19  27
ENDBRANCH  15  16
ENDBRANCH  11  15
ENDBRANCH  10  11
ENDBRANCH   8  10
BRANCH   8  29
HETATM   29  O   UNK N   1      20.881  12.467   9.543  0.00  0.00    -0.307 OA
HETATM   30  H   UNK N   1      21.666  11.958   9.286  0.00  0.00     0.222 HD
ENDBRANCH   8  29
ENDBRANCH   7   8
ENDBRANCH   6   7
ENDBRANCH   4   6
BRANCH   3  31
HETATM   31  O   UNK N   1      18.045  15.931   6.072  0.00  0.00    -0.390 OA
HETATM   32  H   UNK N   1      17.436  15.915   5.316  0.00  0.00     0.210 HD
ENDBRANCH   3  31
BRANCH   2  33
HETATM   33  O   UNK N   1      20.057  15.724   3.795  0.00  0.00    -0.388 OA
HETATM   34  H   UNK N   1      19.890  15.479   2.873  0.00  0.00     0.210 HD
ENDBRANCH   2  33
BRANCH   1  35
HETATM   35  N   UNK N   1      21.846  18.222   4.417  0.00  0.00    -0.297 N 
HETATM   36  C   UNK N   1      23.098  18.707   4.369  0.00  0.00     0.159 A 
HETATM   37  N   UNK N   1      24.160  18.368   5.137  0.00  0.00    -0.174 N 
HETATM   38  C   UNK N   1      23.173  19.645   3.403  0.00  0.00     0.147 A 
HETATM   39  C   UNK N   1      25.351  19.007   4.918  0.00  0.00     0.680 A 
HETATM   40  H   UNK N   1      24.079  17.678   5.834  0.00  0.00     0.186 HD
HETATM   41  N   UNK N   1      25.455  19.963   3.937  0.00  0.00    -0.154 N 
HETATM   42  N   UNK N   1      26.471  18.689   5.709  0.00  0.00    -0.234 N 
HETATM   43  C   UNK N   1      24.369  20.298   3.160  0.00  0.00     0.290 A 
ATOM     44  HN  UNK N   1      26.349  20.429   3.781  1.00  0.00     0.187 HD
HETATM   45  O   UNK N   1      24.463  21.144   2.290  0.00  0.00    -0.265 OA
HETATM   46  H   UNK N   1      27.309  19.195   5.608  0.00  0.00     0.174 HD
HETATM   47  H   UNK N   1      26.416  17.956   6.364  0.00  0.00     0.174 HD
HETATM   48  N   UNK N   1      21.977  19.788   2.808  0.00  0.00    -0.345 N 
HETATM   49  C   UNK N   1      21.170  18.900   3.454  0.00  0.00     0.188 A 
ATOM     50  HN  UNK N   1      21.729  20.418   2.045  1.00  0.00     0.167 HD
ENDBRANCH   1  35
TORSDOF 15
ENDMDL
MODEL 8
REMARK VINA RESULT:      -7.9      1.300      2.276
REMARK  15 active torsions:
REMARK  status: ('A' for Active; 'I' for Inactive)
REMARK       I    between atoms: C_3  and  N_38 
REMARK    1  A    between atoms: C_12  and  N_8 
REMARK    2  A    between atoms: C_13  and  O_39 
REMARK    3  A    between atoms: C_14  and  O_40 
REMARK    4  A    between atoms: C_15  and  C_17 
REMARK    5  A    between atoms: C_17  and  O_18 
REMARK    6  A    between atoms: O_18  and  P_19 
REMARK    7  A    between atoms: P_19  and  O_20 
REMARK    8  A    between atoms: P_19  and  O_25 
REMARK    9  A    between atoms: O_20  and  P_21 
REMARK   10  A    between atoms: P_21  and  O_22 
REMARK   11  A    between atoms: P_21  and  O_23 
REMARK   12  A    between atoms: C_24  and  O_23 
REMARK   13  A    between atoms: C_28  and  O_36 
REMARK   14  A    between atoms: C_29  and  O_35 
REMARK   15  A    between atoms: C_30  and  O_33 
ROOT
HETATM    1  C   UNK N   1      31.632  16.469   6.190  0.00  0.00     0.262 C 
HETATM    2  C   UNK N   1      31.481  15.054   6.701  0.00  0.00     0.198 C 
HETATM    3  C   UNK N   1      32.507  15.079   7.774  0.00  0.00     0.182 C 
HETATM    4  C   UNK N   1      32.287  16.457   8.347  0.00  0.00     0.180 C 
HETATM    5  O   UNK N   1      31.801  17.291   7.317  0.00  0.00    -0.353 OA
ENDROOT
BRANCH   4   6
HETATM    6  C   UNK N   1      33.612  16.981   8.871  0.00  0.00     0.215 C 
BRANCH   6   7
HETATM    7  O   UNK N   1      33.984  16.270  10.012  0.00  0.00    -0.294 OA
BRANCH   7   8
HETATM    8  P   UNK N   1      35.672  15.913   9.780  0.00  0.00     0.401 P 
HETATM    9  O   UNK N   1      35.709  17.410  10.188  0.00  0.00    -0.631 OA
BRANCH   8  10
HETATM   10  O   UNK N   1      34.972  14.968  11.060  0.00  0.00    -0.195 OA
BRANCH  10  11
HETATM   11  P   UNK N   1      35.435  13.308  10.795  0.00  0.00     0.404 P 
HETATM   12  O   UNK N   1      36.091  13.366   9.389  0.00  0.00    -0.631 OA
BRANCH  11  13
HETATM   13  O   UNK N   1      34.081  12.230  10.619  0.00  0.00    -0.307 OA
HETATM   14  H   UNK N   1      33.320  11.695  10.345  0.00  0.00     0.222 HD
ENDBRANCH  11  13
BRANCH  11  15
HETATM   15  O   UNK N   1      36.654  12.717  11.917  0.00  0.00    -0.263 OA
BRANCH  15  16
HETATM   16  C   UNK N   1      36.043  12.701  13.184  0.00  0.00     0.303 C 
HETATM   17  C   UNK N   1      36.668  13.705  14.166  0.00  0.00     0.205 C 
HETATM   18  C   UNK N   1      35.898  13.606  15.499  0.00  0.00     0.183 C 
HETATM   19  C   UNK N   1      35.682  12.150  15.944  0.00  0.00     0.178 C 
HETATM   20  C   UNK N   1      35.190  11.357  14.736  0.00  0.00     0.152 C 
HETATM   21  O   UNK N   1      36.185  11.429  13.760  0.00  0.00    -0.350 OA
HETATM   22  C   UNK N   1      34.928   9.902  15.069  0.00  0.00     0.042 C 
BRANCH  17  23
HETATM   23  O   UNK N   1      36.582  15.007  13.670  0.00  0.00    -0.388 OA
HETATM   24  H   UNK N   1      35.918  15.399  13.082  0.00  0.00     0.210 HD
ENDBRANCH  17  23
BRANCH  18  25
HETATM   25  O   UNK N   1      36.560  14.317  16.501  0.00  0.00    -0.390 OA
HETATM   26  H   UNK N   1      37.518  14.471  16.468  0.00  0.00     0.210 HD
ENDBRANCH  18  25
BRANCH  19  27
HETATM   27  O   UNK N   1      34.737  12.106  16.969  0.00  0.00    -0.390 OA
HETATM   28  H   UNK N   1      34.856  12.174  17.930  0.00  0.00     0.210 HD
ENDBRANCH  19  27
ENDBRANCH  15  16
ENDBRANCH  11  15
ENDBRANCH  10  11
ENDBRANCH   8  10
BRANCH   8  29
HETATM   29  O   UNK N   1      36.759  15.929  11.137  0.00  0.00    -0.307 OA
HETATM   30  H   UNK N   1      37.431  15.236  11.232  0.00  0.00     0.222 HD
ENDBRANCH   8  29
ENDBRANCH   7   8
ENDBRANCH   6   7
ENDBRANCH   4   6
BRANCH   3  31
HETATM   31  O   UNK N   1      32.275  14.091   8.730  0.00  0.00    -0.390 OA
HETATM   32  H   UNK N   1      32.865  13.796   9.442  0.00  0.00     0.210 HD
ENDBRANCH   3  31
BRANCH   2  33
HETATM   33  O   UNK N   1      31.814  14.121   5.720  0.00  0.00    -0.388 OA
HETATM   34  H   UNK N   1      31.498  13.521   5.028  0.00  0.00     0.210 HD
ENDBRANCH   2  33
BRANCH   1  35
HETATM   35  N   UNK N   1      30.498  16.948   5.395  0.00  0.00    -0.297 N 
HETATM   36  C   UNK N   1      29.401  17.633   5.759  0.00  0.00     0.159 A 
HETATM   37  N   UNK N   1      29.046  18.055   6.995  0.00  0.00    -0.174 N 
HETATM   38  C   UNK N   1      28.640  17.859   4.670  0.00  0.00     0.147 A 
HETATM   39  C   UNK N   1      27.866  18.734   7.136  0.00  0.00     0.680 A 
HETATM   40  H   UNK N   1      29.622  17.878   7.773  0.00  0.00     0.186 HD
HETATM   41  N   UNK N   1      27.073  18.981   6.041  0.00  0.00    -0.154 N 
HETATM   42  N   UNK N   1      27.459  19.173   8.410  0.00  0.00    -0.234 N 
HETATM   43  C   UNK N   1      27.446  18.550   4.788  0.00  0.00     0.290 A 
ATOM     44  HN  UNK N   1      26.198  19.492   6.159  1.00  0.00     0.187 HD
HETATM   45  O   UNK N   1      26.743  18.771   3.819  0.00  0.00    -0.265 OA
HETATM   46  H   UNK N   1      26.579  19.596   8.531  0.00  0.00     0.174 HD
HETATM   47  H   UNK N   1      28.059  19.058   9.183  0.00  0.00     0.174 HD
HETATM   48  N   UNK N   1      29.222  17.326   3.582  0.00  0.00    -0.345 N 
HETATM   49  C   UNK N   1      30.369  16.764   4.056  0.00  0.00     0.188 A 
ATOM     50  HN  UNK N   1      28.883  17.340   2.620  1.00  0.00     0.167 HD
ENDBRANCH   1  35
TORSDOF 15
ENDMDL
MODEL 9
REMARK VINA RESULT:      -7.8      5.658     13.242
REMARK  15 active torsions:
REMARK  status: ('A' for Active; 'I' for Inactive)
REMARK       I    between atoms: C_3  and  N_38 
REMARK    1  A    between atoms: C_12  and  N_8 
REMARK    2  A    between atoms: C_13  and  O_39 
REMARK    3  A    between atoms: C_14  and  O_40 
REMARK    4  A    between atoms: C_15  and  C_17 
REMARK    5  A    between atoms: C_17  and  O_18 
REMARK    6  A    between atoms: O_18  and  P_19 
REMARK    7  A    between atoms: P_19  and  O_20 
REMARK    8  A    between atoms: P_19  and  O_25 
REMARK    9  A    between atoms: O_20  and  P_21 
REMARK   10  A    between atoms: P_21  and  O_22 
REMARK   11  A    between atoms: P_21  and  O_23 
REMARK   12  A    between atoms: C_24  and  O_23 
REMARK   13  A    between atoms: C_28  and  O_36 
REMARK   14  A    between atoms: C_29  and  O_35 
REMARK   15  A    between atoms: C_30  and  O_33 
ROOT
HETATM    1  C   UNK N   1      30.799  17.898   7.944  0.00  0.00     0.262 C 
HETATM    2  C   UNK N   1      29.801  17.783   9.075  0.00  0.00     0.198 C 
HETATM    3  C   UNK N   1      28.548  17.728   8.281  0.00  0.00     0.182 C 
HETATM    4  C   UNK N   1      28.977  16.846   7.134  0.00  0.00     0.180 C 
HETATM    5  O   UNK N   1      30.361  17.030   6.929  0.00  0.00    -0.353 OA
ENDROOT
BRANCH   4   6
HETATM    6  C   UNK N   1      28.201  17.254   5.894  0.00  0.00     0.215 C 
BRANCH   6   7
HETATM    7  O   UNK N   1      27.226  18.193   6.234  0.00  0.00    -0.294 OA
BRANCH   7   8
HETATM    8  P   UNK N   1      26.412  18.546   4.736  0.00  0.00     0.401 P 
HETATM    9  O   UNK N   1      27.894  18.453   4.286  0.00  0.00    -0.631 OA
BRANCH   8  10
HETATM   10  O   UNK N   1      25.904  17.029   5.418  0.00  0.00    -0.195 OA
BRANCH  10  11
HETATM   11  P   UNK N   1      24.233  16.795   4.981  0.00  0.00     0.404 P 
HETATM   12  O   UNK N   1      23.697  15.939   6.160  0.00  0.00    -0.631 OA
BRANCH  11  13
HETATM   13  O   UNK N   1      24.019  15.803   3.568  0.00  0.00    -0.307 OA
HETATM   14  H   UNK N   1      23.956  15.403   2.686  0.00  0.00     0.222 HD
ENDBRANCH  11  13
BRANCH  11  15
HETATM   15  O   UNK N   1      23.288  18.278   4.940  0.00  0.00    -0.263 OA
BRANCH  15  16
HETATM   16  C   UNK N   1      22.392  18.140   3.865  0.00  0.00     0.303 C 
HETATM   17  C   UNK N   1      21.727  19.466   3.462  0.00  0.00     0.205 C 
HETATM   18  C   UNK N   1      20.794  19.184   2.266  0.00  0.00     0.183 C 
HETATM   19  C   UNK N   1      19.919  17.940   2.486  0.00  0.00     0.178 C 
HETATM   20  C   UNK N   1      20.816  16.822   3.014  0.00  0.00     0.152 C 
HETATM   21  O   UNK N   1      21.357  17.262   4.223  0.00  0.00    -0.350 OA
HETATM   22  C   UNK N   1      20.052  15.535   3.252  0.00  0.00     0.042 C 
BRANCH  17  23
HETATM   23  O   UNK N   1      22.686  20.412   3.094  0.00  0.00    -0.388 OA
HETATM   24  H   UNK N   1      23.354  20.856   3.640  0.00  0.00     0.210 HD
ENDBRANCH  17  23
BRANCH  18  25
HETATM   25  O   UNK N   1      19.988  20.293   2.003  0.00  0.00    -0.390 OA
HETATM   26  H   UNK N   1      19.020  20.225   1.983  0.00  0.00     0.210 HD
ENDBRANCH  18  25
BRANCH  19  27
HETATM   27  O   UNK N   1      19.330  17.558   1.281  0.00  0.00    -0.390 OA
HETATM   28  H   UNK N   1      18.404  17.350   1.078  0.00  0.00     0.210 HD
ENDBRANCH  19  27
ENDBRANCH  15  16
ENDBRANCH  11  15
ENDBRANCH  10  11
ENDBRANCH   8  10
BRANCH   8  29
HETATM   29  O   UNK N   1      26.370  17.356   3.469  0.00  0.00    -0.307 OA
HETATM   30  H   UNK N   1      26.863  17.502   2.646  0.00  0.00     0.222 HD
ENDBRANCH   8  29
ENDBRANCH   7   8
ENDBRANCH   6   7
ENDBRANCH   4   6
BRANCH   3  31
HETATM   31  O   UNK N   1      27.507  17.146   9.004  0.00  0.00    -0.390 OA
HETATM   32  H   UNK N   1      27.110  16.269   8.883  0.00  0.00     0.210 HD
ENDBRANCH   3  31
BRANCH   2  33
HETATM   33  O   UNK N   1      29.822  18.916   9.888  0.00  0.00    -0.388 OA
HETATM   34  H   UNK N   1      30.321  19.687  10.196  0.00  0.00     0.210 HD
ENDBRANCH   2  33
BRANCH   1  35
HETATM   35  N   UNK N   1      32.176  17.565   8.319  0.00  0.00    -0.297 N 
HETATM   36  C   UNK N   1      32.736  16.386   8.640  0.00  0.00     0.159 A 
HETATM   37  N   UNK N   1      32.145  15.171   8.719  0.00  0.00    -0.174 N 
HETATM   38  C   UNK N   1      34.044  16.575   8.902  0.00  0.00     0.147 A 
HETATM   39  C   UNK N   1      32.915  14.098   9.081  0.00  0.00     0.680 A 
HETATM   40  H   UNK N   1      31.188  15.061   8.521  0.00  0.00     0.186 HD
HETATM   41  N   UNK N   1      34.253  14.261   9.348  0.00  0.00    -0.154 N 
HETATM   42  N   UNK N   1      32.330  12.822   9.187  0.00  0.00    -0.234 N 
HETATM   43  C   UNK N   1      34.842  15.502   9.261  0.00  0.00     0.290 A 
ATOM     44  HN  UNK N   1      34.816  13.453   9.613  1.00  0.00     0.187 HD
HETATM   45  O   UNK N   1      36.028  15.646   9.498  0.00  0.00    -0.265 OA
HETATM   46  H   UNK N   1      32.858  12.060   9.518  0.00  0.00     0.174 HD
HETATM   47  H   UNK N   1      31.389  12.691   8.928  0.00  0.00     0.174 HD
HETATM   48  N   UNK N   1      34.360  17.873   8.757  0.00  0.00    -0.345 N 
HETATM   49  C   UNK N   1      33.188  18.467   8.400  0.00  0.00     0.188 A 
ATOM     50  HN  UNK N   1      35.271  18.314   8.886  1.00  0.00     0.167 HD
ENDBRANCH   1  35
TORSDOF 15
ENDMDL
