MODEL 1
REMARK VINA RESULT:      -5.0      0.000      0.000
REMARK  4 active torsions:
REMARK  status: ('A' for Active; 'I' for Inactive)
REMARK    1  A    between atoms: C_2  and  C_3 
REMARK    2  A    between atoms: C_3  and  N_4 
REMARK    3  A    between atoms: C_3  and  C_5 
REMARK    4  A    between atoms: C_5  and  C_6 
ROOT
HETATM    1  C   UNK N   1      35.282  13.076  15.718  0.00  0.00     0.063 C 
ENDROOT
BRANCH   1   2
HETATM    2  C   UNK N   1      36.580  13.558  15.048  0.00  0.00     0.077 C 
BRANCH   2   3
HETATM    3  C   UNK N   1      36.877  15.049  14.930  0.00  0.00     0.020 C 
HETATM    4  C   UNK N   1      37.424  15.638  16.222  0.00  0.00     0.007 C 
ENDBRANCH   2   3
BRANCH   2   5
HETATM    5  N   UNK N   1      37.549  12.610  14.515  0.00  0.00    -0.426 N 
HETATM    6  H   UNK N   1      37.486  12.309  13.542  0.00  0.00     0.150 HD
HETATM    7  H   UNK N   1      38.290  12.247  15.113  0.00  0.00     0.150 HD
ENDBRANCH   2   5
ENDBRANCH   1   2
BRANCH   1   8
HETATM    8  C   UNK N   1      35.326  12.482  17.105  0.00  0.00    -0.056 A 
HETATM    9  C   UNK N   1      35.156  13.339  18.198  0.00  0.00     0.007 A 
HETATM   10  C   UNK N   1      35.188  12.840  19.505  0.00  0.00     0.001 A 
HETATM   11  C   UNK N   1      35.391  11.475  19.727  0.00  0.00     0.000 A 
HETATM   12  C   UNK N   1      35.562  10.611  18.644  0.00  0.00     0.001 A 
HETATM   13  C   UNK N   1      35.529  11.112  17.341  0.00  0.00     0.007 A 
ENDBRANCH   1   8
TORSDOF 4
ENDMDL
MODEL 2
REMARK VINA RESULT:      -4.8     25.927     28.148
REMARK  4 active torsions:
REMARK  status: ('A' for Active; 'I' for Inactive)
REMARK    1  A    between atoms: C_2  and  C_3 
REMARK    2  A    between atoms: C_3  and  N_4 
REMARK    3  A    between atoms: C_3  and  C_5 
REMARK    4  A    between atoms: C_5  and  C_6 
ROOT
HETATM    1  C   UNK N   1      25.061  26.332  -5.674  0.00  0.00     0.063 C 
ENDROOT
BRANCH   1   2
HETATM    2  C   UNK N   1      25.603  24.932  -5.337  0.00  0.00     0.077 C 
BRANCH   2   3
HETATM    3  C   UNK N   1      26.379  24.697  -4.046  0.00  0.00     0.020 C 
HETATM    4  C   UNK N   1      27.882  24.628  -4.274  0.00  0.00     0.007 C 
ENDBRANCH   2   3
BRANCH   2   5
HETATM    5  N   UNK N   1      25.391  23.805  -6.236  0.00  0.00    -0.426 N 
HETATM    6  H   UNK N   1      24.601  23.176  -6.088  0.00  0.00     0.150 HD
HETATM    7  H   UNK N   1      26.030  23.645  -7.014  0.00  0.00     0.150 HD
ENDBRANCH   2   5
ENDBRANCH   1   2
BRANCH   1   8
HETATM    8  C   UNK N   1      25.890  27.554  -5.364  0.00  0.00    -0.056 A 
HETATM    9  C   UNK N   1      25.601  28.271  -4.197  0.00  0.00     0.007 A 
HETATM   10  C   UNK N   1      26.338  29.412  -3.862  0.00  0.00     0.001 A 
HETATM   11  C   UNK N   1      27.373  29.845  -4.696  0.00  0.00     0.000 A 
HETATM   12  C   UNK N   1      27.669  29.138  -5.862  0.00  0.00     0.001 A 
HETATM   13  C   UNK N   1      26.932  28.000  -6.194  0.00  0.00     0.007 A 
ENDBRANCH   1   8
TORSDOF 4
ENDMDL
MODEL 3
REMARK VINA RESULT:      -4.7      1.175      2.302
REMARK  4 active torsions:
REMARK  status: ('A' for Active; 'I' for Inactive)
REMARK    1  A    between atoms: C_2  and  C_3 
REMARK    2  A    between atoms: C_3  and  N_4 
REMARK    3  A    between atoms: C_3  and  C_5 
REMARK    4  A    between atoms: C_5  and  C_6 
ROOT
HETATM    1  C   UNK N   1      35.179  13.043  15.727  0.00  0.00     0.063 C 
ENDROOT
BRANCH   1   2
HETATM    2  C   UNK N   1      36.478  13.378  14.975  0.00  0.00     0.077 C 
BRANCH   2   3
HETATM    3  C   UNK N   1      36.994  12.452  13.879  0.00  0.00     0.020 C 
HETATM    4  C   UNK N   1      37.764  11.264  14.436  0.00  0.00     0.007 C 
ENDBRANCH   2   3
BRANCH   2   5
HETATM    5  N   UNK N   1      37.241  14.579  15.288  0.00  0.00    -0.426 N 
HETATM    6  H   UNK N   1      36.828  15.500  15.137  0.00  0.00     0.150 HD
HETATM    7  H   UNK N   1      38.188  14.500  15.658  0.00  0.00     0.150 HD
ENDBRANCH   2   5
ENDBRANCH   1   2
BRANCH   1   8
HETATM    8  C   UNK N   1      35.241  12.531  17.145  0.00  0.00    -0.056 A 
HETATM    9  C   UNK N   1      35.391  11.154  17.346  0.00  0.00     0.007 A 
HETATM   10  C   UNK N   1      35.455  10.627  18.641  0.00  0.00     0.001 A 
HETATM   11  C   UNK N   1      35.368  11.477  19.747  0.00  0.00     0.000 A 
HETATM   12  C   UNK N   1      35.218  12.851  19.558  0.00  0.00     0.001 A 
HETATM   13  C   UNK N   1      35.155  13.375  18.265  0.00  0.00     0.007 A 
ENDBRANCH   1   8
TORSDOF 4
ENDMDL
MODEL 4
REMARK VINA RESULT:      -4.5     23.759     26.131
REMARK  4 active torsions:
REMARK  status: ('A' for Active; 'I' for Inactive)
REMARK    1  A    between atoms: C_2  and  C_3 
REMARK    2  A    between atoms: C_3  and  N_4 
REMARK    3  A    between atoms: C_3  and  C_5 
REMARK    4  A    between atoms: C_5  and  C_6 
ROOT
HETATM    1  C   UNK N   1      27.006  24.157  -3.243  0.00  0.00     0.063 C 
ENDROOT
BRANCH   1   2
HETATM    2  C   UNK N   1      28.522  23.937  -3.382  0.00  0.00     0.077 C 
BRANCH   2   3
HETATM    3  C   UNK N   1      29.269  23.070  -2.374  0.00  0.00     0.020 C 
HETATM    4  C   UNK N   1      30.766  23.027  -2.640  0.00  0.00     0.007 C 
ENDBRANCH   2   3
BRANCH   2   5
HETATM    5  N   UNK N   1      29.275  24.546  -4.470  0.00  0.00    -0.426 N 
HETATM    6  H   UNK N   1      29.058  25.496  -4.771  0.00  0.00     0.150 HD
HETATM    7  H   UNK N   1      30.019  24.023  -4.931  0.00  0.00     0.150 HD
ENDBRANCH   2   5
ENDBRANCH   1   2
BRANCH   1   8
HETATM    8  C   UNK N   1      26.347  25.319  -3.945  0.00  0.00    -0.056 A 
HETATM    9  C   UNK N   1      26.356  26.567  -3.311  0.00  0.00     0.007 A 
HETATM   10  C   UNK N   1      25.760  27.678  -3.918  0.00  0.00     0.001 A 
HETATM   11  C   UNK N   1      25.147  27.547  -5.168  0.00  0.00     0.000 A 
HETATM   12  C   UNK N   1      25.132  26.308  -5.808  0.00  0.00     0.001 A 
HETATM   13  C   UNK N   1      25.728  25.200  -5.201  0.00  0.00     0.007 A 
ENDBRANCH   1   8
TORSDOF 4
ENDMDL
MODEL 5
REMARK VINA RESULT:      -4.5     11.169     13.024
REMARK  4 active torsions:
REMARK  status: ('A' for Active; 'I' for Inactive)
REMARK    1  A    between atoms: C_2  and  C_3 
REMARK    2  A    between atoms: C_3  and  N_4 
REMARK    3  A    between atoms: C_3  and  C_5 
REMARK    4  A    between atoms: C_5  and  C_6 
ROOT
HETATM    1  C   UNK N   1      29.129  17.213   7.237  0.00  0.00     0.063 C 
ENDROOT
BRANCH   1   2
HETATM    2  C   UNK N   1      28.239  18.353   7.762  0.00  0.00     0.077 C 
BRANCH   2   3
HETATM    3  C   UNK N   1      27.881  19.528   6.858  0.00  0.00     0.020 C 
HETATM    4  C   UNK N   1      27.976  19.177   5.381  0.00  0.00     0.007 C 
ENDBRANCH   2   3
BRANCH   2   5
HETATM    5  N   UNK N   1      27.720  18.337   9.123  0.00  0.00    -0.426 N 
HETATM    6  H   UNK N   1      26.767  18.020   9.301  0.00  0.00     0.150 HD
HETATM    7  H   UNK N   1      28.309  18.643   9.897  0.00  0.00     0.150 HD
ENDBRANCH   2   5
ENDBRANCH   1   2
BRANCH   1   8
HETATM    8  C   UNK N   1      30.628  17.384   7.201  0.00  0.00    -0.056 A 
HETATM    9  C   UNK N   1      31.295  17.132   5.997  0.00  0.00     0.007 A 
HETATM   10  C   UNK N   1      32.684  17.275   5.909  0.00  0.00     0.001 A 
HETATM   11  C   UNK N   1      33.418  17.674   7.030  0.00  0.00     0.000 A 
HETATM   12  C   UNK N   1      32.763  17.928   8.236  0.00  0.00     0.001 A 
HETATM   13  C   UNK N   1      31.377  17.784   8.321  0.00  0.00     0.007 A 
ENDBRANCH   1   8
TORSDOF 4
ENDMDL
MODEL 6
REMARK VINA RESULT:      -4.4      2.066      3.117
REMARK  4 active torsions:
REMARK  status: ('A' for Active; 'I' for Inactive)
REMARK    1  A    between atoms: C_2  and  C_3 
REMARK    2  A    between atoms: C_3  and  N_4 
REMARK    3  A    between atoms: C_3  and  C_5 
REMARK    4  A    between atoms: C_5  and  C_6 
ROOT
HETATM    1  C   UNK N   1      36.057  12.134  14.861  0.00  0.00     0.063 C 
ENDROOT
BRANCH   1   2
HETATM    2  C   UNK N   1      34.915  11.895  13.859  0.00  0.00     0.077 C 
BRANCH   2   3
HETATM    3  C   UNK N   1      34.064  10.633  13.948  0.00  0.00     0.020 C 
HETATM    4  C   UNK N   1      34.904   9.365  13.968  0.00  0.00     0.007 C 
ENDBRANCH   2   3
BRANCH   2   5
HETATM    5  N   UNK N   1      34.621  12.860  12.808  0.00  0.00    -0.426 N 
HETATM    6  H   UNK N   1      34.851  13.845  12.941  0.00  0.00     0.150 HD
HETATM    7  H   UNK N   1      34.185  12.552  11.939  0.00  0.00     0.150 HD
ENDBRANCH   2   5
ENDBRANCH   1   2
BRANCH   1   8
HETATM    8  C   UNK N   1      35.755  12.227  16.337  0.00  0.00    -0.056 A 
HETATM    9  C   UNK N   1      35.455  13.485  16.873  0.00  0.00     0.007 A 
HETATM   10  C   UNK N   1      35.168  13.628  18.235  0.00  0.00     0.001 A 
HETATM   11  C   UNK N   1      35.180  12.509  19.073  0.00  0.00     0.000 A 
HETATM   12  C   UNK N   1      35.478  11.250  18.549  0.00  0.00     0.001 A 
HETATM   13  C   UNK N   1      35.764  11.110  17.189  0.00  0.00     0.007 A 
ENDBRANCH   1   8
TORSDOF 4
ENDMDL
MODEL 7
REMARK VINA RESULT:      -4.4      1.930      4.102
REMARK  4 active torsions:
REMARK  status: ('A' for Active; 'I' for Inactive)
REMARK    1  A    between atoms: C_2  and  C_3 
REMARK    2  A    between atoms: C_3  and  N_4 
REMARK    3  A    between atoms: C_3  and  C_5 
REMARK    4  A    between atoms: C_5  and  C_6 
ROOT
HETATM    1  C   UNK N   1      34.792  12.301  16.771  0.00  0.00     0.063 C 
ENDROOT
BRANCH   1   2
HETATM    2  C   UNK N   1      35.348  10.926  16.363  0.00  0.00     0.077 C 
BRANCH   2   3
HETATM    3  C   UNK N   1      34.926  10.286  15.045  0.00  0.00     0.020 C 
HETATM    4  C   UNK N   1      33.539  10.725  14.602  0.00  0.00     0.007 C 
ENDBRANCH   2   3
BRANCH   2   5
HETATM    5  N   UNK N   1      36.283  10.208  17.219  0.00  0.00    -0.426 N 
HETATM    6  H   UNK N   1      36.271  10.359  18.228  0.00  0.00     0.150 HD
HETATM    7  H   UNK N   1      36.950   9.554  16.810  0.00  0.00     0.150 HD
ENDBRANCH   2   5
ENDBRANCH   1   2
BRANCH   1   8
HETATM    8  C   UNK N   1      35.672  13.524  16.689  0.00  0.00    -0.056 A 
HETATM    9  C   UNK N   1      35.681  14.408  17.774  0.00  0.00     0.007 A 
HETATM   10  C   UNK N   1      36.479  15.557  17.750  0.00  0.00     0.001 A 
HETATM   11  C   UNK N   1      37.277  15.830  16.636  0.00  0.00     0.000 A 
HETATM   12  C   UNK N   1      37.276  14.956  15.548  0.00  0.00     0.001 A 
HETATM   13  C   UNK N   1      36.479  13.810  15.575  0.00  0.00     0.007 A 
ENDBRANCH   1   8
TORSDOF 4
ENDMDL
MODEL 8
REMARK VINA RESULT:      -4.3     10.192     11.691
REMARK  4 active torsions:
REMARK  status: ('A' for Active; 'I' for Inactive)
REMARK    1  A    between atoms: C_2  and  C_3 
REMARK    2  A    between atoms: C_3  and  N_4 
REMARK    3  A    between atoms: C_3  and  C_5 
REMARK    4  A    between atoms: C_5  and  C_6 
ROOT
HETATM    1  C   UNK N   1      31.976  16.431   8.088  0.00  0.00     0.063 C 
ENDROOT
BRANCH   1   2
HETATM    2  C   UNK N   1      33.316  17.133   8.366  0.00  0.00     0.077 C 
BRANCH   2   3
HETATM    3  C   UNK N   1      34.036  17.886   7.252  0.00  0.00     0.020 C 
HETATM    4  C   UNK N   1      33.599  17.433   5.867  0.00  0.00     0.007 C 
ENDBRANCH   2   3
BRANCH   2   5
HETATM    5  N   UNK N   1      33.924  17.098   9.689  0.00  0.00    -0.426 N 
HETATM    6  H   UNK N   1      34.681  17.742   9.920  0.00  0.00     0.150 HD
HETATM    7  H   UNK N   1      33.594  16.429  10.385  0.00  0.00     0.150 HD
ENDBRANCH   2   5
ENDBRANCH   1   2
BRANCH   1   8
HETATM    8  C   UNK N   1      30.693  17.225   8.099  0.00  0.00    -0.056 A 
HETATM    9  C   UNK N   1      29.955  17.308   6.913  0.00  0.00     0.007 A 
HETATM   10  C   UNK N   1      28.758  18.031   6.868  0.00  0.00     0.001 A 
HETATM   11  C   UNK N   1      28.290  18.679   8.014  0.00  0.00     0.000 A 
HETATM   12  C   UNK N   1      29.017  18.603   9.203  0.00  0.00     0.001 A 
HETATM   13  C   UNK N   1      30.211  17.880   9.245  0.00  0.00     0.007 A 
ENDBRANCH   1   8
TORSDOF 4
ENDMDL
MODEL 9
REMARK VINA RESULT:      -4.3      3.082      5.702
REMARK  4 active torsions:
REMARK  status: ('A' for Active; 'I' for Inactive)
REMARK    1  A    between atoms: C_2  and  C_3 
REMARK    2  A    between atoms: C_3  and  N_4 
REMARK    3  A    between atoms: C_3  and  C_5 
REMARK    4  A    between atoms: C_5  and  C_6 
ROOT
HETATM    1  C   UNK N   1      35.566   9.988  19.733  0.00  0.00     0.063 C 
ENDROOT
BRANCH   1   2
HETATM    2  C   UNK N   1      34.925   9.947  21.130  0.00  0.00     0.077 C 
BRANCH   2   3
HETATM    3  C   UNK N   1      33.411   9.833  21.280  0.00  0.00     0.020 C 
HETATM    4  C   UNK N   1      32.869  10.714  22.396  0.00  0.00     0.007 C 
ENDBRANCH   2   3
BRANCH   2   5
HETATM    5  N   UNK N   1      35.740  10.016  22.335  0.00  0.00    -0.426 N 
HETATM    6  H   UNK N   1      36.558  10.625  22.364  0.00  0.00     0.150 HD
HETATM    7  H   UNK N   1      35.495   9.455  23.151  0.00  0.00     0.150 HD
ENDBRANCH   2   5
ENDBRANCH   1   2
BRANCH   1   8
HETATM    8  C   UNK N   1      35.378  11.200  18.854  0.00  0.00    -0.056 A 
HETATM    9  C   UNK N   1      35.268  11.005  17.472  0.00  0.00     0.007 A 
HETATM   10  C   UNK N   1      35.093  12.095  16.611  0.00  0.00     0.001 A 
HETATM   11  C   UNK N   1      35.027  13.391  17.130  0.00  0.00     0.000 A 
HETATM   12  C   UNK N   1      35.136  13.597  18.506  0.00  0.00     0.001 A 
HETATM   13  C   UNK N   1      35.311  12.508  19.362  0.00  0.00     0.007 A 
ENDBRANCH   1   8
TORSDOF 4
ENDMDL
