REMARK  4 active torsions:
REMARK  status: ('A' for Active; 'I' for Inactive)
REMARK    1  A    between atoms: C_2  and  C_13 
REMARK    2  A    between atoms: C_3  and  C_4 
REMARK    3  A    between atoms: C_7  and  C_10 
REMARK    4  A    between atoms: C_10  and  O_11 
ROOT
HETATM    1  C   UNK N   1      -0.223  -0.627  -0.004  0.00  0.00    -0.030 A 
HETATM    2  C   UNK N   1      -0.242  -2.026   0.079  0.00  0.00     0.012 A 
HETATM    3  C   UNK N   1       0.959  -2.748   0.091  0.00  0.00     0.009 A 
HETATM    4  C   UNK N   1       2.202  -2.087   0.028  0.00  0.00    -0.043 A 
HETATM    5  C   UNK N   1       2.225  -0.670  -0.004  0.00  0.00    -0.042 A 
HETATM    6  C   UNK N   1       1.013   0.030  -0.040  0.00  0.00     0.020 A 
HETATM    7  C   UNK N   1       3.525   0.119   0.031  0.00  0.00    -0.020 C 
HETATM    8  C   UNK N   1       3.457   1.183   1.116  0.00  0.00     0.020 C 
HETATM    9  C   UNK N   1       3.753   0.810  -1.303  0.00  0.00     0.020 C 
HETATM   10  C   UNK N   1       4.725  -0.759   0.382  0.00  0.00     0.015 C 
HETATM   11  C   UNK N   1       4.700  -2.047  -0.410  0.00  0.00     0.015 C 
HETATM   12  C   UNK N   1       3.489  -2.902  -0.032  0.00  0.00    -0.020 C 
HETATM   13  C   UNK N   1       3.736  -3.591   1.300  0.00  0.00     0.020 C 
HETATM   14  C   UNK N   1       3.383  -3.966  -1.111  0.00  0.00     0.020 C 
ENDROOT
BRANCH   1  15
HETATM   15  C   UNK N   1      -1.471   0.186  -0.033  0.00  0.00    -0.051 C 
HETATM   16  C   UNK N   1      -1.325   1.680  -0.109  0.00  0.00     0.049 C 
HETATM   17  C   UNK N   1      -2.693  -0.401   0.007  0.00  0.00     0.019 C 
BRANCH  17  18
HETATM   18  C   UNK N   1      -4.015   0.294   0.000  0.00  0.00    -0.036 A 
HETATM   19  C   UNK N   1      -5.191  -0.470   0.007  0.00  0.00     0.012 A 
HETATM   20  C   UNK N   1      -6.446   0.159   0.006  0.00  0.00     0.019 A 
HETATM   21  C   UNK N   1      -6.536   1.561   0.002  0.00  0.00     0.037 A 
HETATM   22  C   UNK N   1      -5.365   2.320  -0.002  0.00  0.00     0.019 A 
HETATM   23  C   UNK N   1      -4.121   1.693  -0.003  0.00  0.00     0.012 A 
BRANCH  21  24
HETATM   24  C   UNK N   1      -7.847   2.241   0.002  0.00  0.00     0.176 C 
HETATM   25  O   UNK N   1      -8.881   1.594   0.003  0.00  0.00    -0.646 OA
BRANCH  24  26
HETATM   26  O   UNK N   1      -7.908   3.589  -0.001  0.00  0.00    -0.773 OA
HETATM   27  H   UNK N   1      -7.119   4.094  -0.002  0.00  0.00     0.167 HD
ENDBRANCH  24  26
ENDBRANCH  21  24
ENDBRANCH  17  18
ENDBRANCH   1  15
TORSDOF 4
