MODEL 1
REMARK VINA RESULT:      -4.3      0.000      0.000
REMARK  3 active torsions:
REMARK  status: ('A' for Active; 'I' for Inactive)
REMARK    1  A    between atoms: C_3  and  C_2 
REMARK    2  A    between atoms: C_4  and  C_3 
REMARK    3  A    between atoms: C_8  and  C_4 
ROOT
HETATM    1  C   UNK N   1      22.188  13.493   8.334  0.00  0.00     0.018 C 
HETATM    2  C   UNK N   1      21.901  14.764   7.564  0.00  0.00     0.109 C 
HETATM    3  C   UNK N   1      20.322  14.352   9.606  0.00  0.00     0.113 C 
HETATM    4  C   UNK N   1      21.705  13.747   9.745  0.00  0.00    -0.002 C 
HETATM    5  O   UNK N   1      20.827  16.589   8.783  0.00  0.00    -0.258 OA
HETATM    6  S   UNK N   1      20.254  15.343   8.075  0.00  0.00     0.015 S 
ENDROOT
BRANCH   4   7
HETATM    7  C   UNK N   1      21.601  12.462  10.555  0.00  0.00     0.005 C 
BRANCH   7   8
HETATM    8  C   UNK N   1      22.848  11.600  10.458  0.00  0.00     0.000 C 
BRANCH   8   9
HETATM    9  C   UNK N   1      23.795  11.989  11.574  0.00  0.00    -0.005 C 
HETATM   10  C   UNK N   1      23.099  11.855  12.911  0.00  0.00     0.005 C 
ENDBRANCH   8   9
ENDBRANCH   7   8
ENDBRANCH   4   7
TORSDOF 3
ENDMDL
MODEL 2
REMARK VINA RESULT:      -4.3     14.216     15.178
REMARK  3 active torsions:
REMARK  status: ('A' for Active; 'I' for Inactive)
REMARK    1  A    between atoms: C_3  and  C_2 
REMARK    2  A    between atoms: C_4  and  C_3 
REMARK    3  A    between atoms: C_8  and  C_4 
ROOT
HETATM    1  C   UNK N   1      36.476  13.903  15.597  0.00  0.00     0.018 C 
HETATM    2  C   UNK N   1      36.534  14.268  14.129  0.00  0.00     0.109 C 
HETATM    3  C   UNK N   1      35.018  12.210  14.677  0.00  0.00     0.113 C 
HETATM    4  C   UNK N   1      35.141  13.221  15.801  0.00  0.00    -0.002 C 
HETATM    5  O   UNK N   1      34.618  13.642  12.747  0.00  0.00    -0.258 OA
HETATM    6  S   UNK N   1      35.868  12.855  13.196  0.00  0.00     0.015 S 
ENDROOT
BRANCH   4   7
HETATM    7  C   UNK N   1      35.070  12.487  17.133  0.00  0.00     0.005 C 
BRANCH   7   8
HETATM    8  C   UNK N   1      35.176  13.419  18.327  0.00  0.00     0.000 C 
BRANCH   8   9
HETATM    9  C   UNK N   1      35.246  12.585  19.589  0.00  0.00    -0.005 C 
HETATM   10  C   UNK N   1      35.602  11.156  19.244  0.00  0.00     0.005 C 
ENDBRANCH   8   9
ENDBRANCH   7   8
ENDBRANCH   4   7
TORSDOF 3
ENDMDL
MODEL 3
REMARK VINA RESULT:      -4.2     19.412     20.614
REMARK  3 active torsions:
REMARK  status: ('A' for Active; 'I' for Inactive)
REMARK    1  A    between atoms: C_3  and  C_2 
REMARK    2  A    between atoms: C_4  and  C_3 
REMARK    3  A    between atoms: C_8  and  C_4 
ROOT
HETATM    1  C   UNK N   1      25.810  26.436  -7.097  0.00  0.00     0.018 C 
HETATM    2  C   UNK N   1      26.069  25.009  -7.531  0.00  0.00     0.109 C 
HETATM    3  C   UNK N   1      25.868  25.337  -4.946  0.00  0.00     0.113 C 
HETATM    4  C   UNK N   1      25.086  26.339  -5.773  0.00  0.00    -0.002 C 
HETATM    5  O   UNK N   1      25.309  23.232  -6.036  0.00  0.00    -0.258 OA
HETATM    6  S   UNK N   1      26.595  24.084  -6.055  0.00  0.00     0.015 S 
ENDROOT
BRANCH   4   7
HETATM    7  C   UNK N   1      25.059  27.672  -5.037  0.00  0.00     0.005 C 
BRANCH   7   8
HETATM    8  C   UNK N   1      25.721  27.606  -3.671  0.00  0.00     0.000 C 
BRANCH   8   9
HETATM    9  C   UNK N   1      26.507  28.881  -3.450  0.00  0.00    -0.005 C 
HETATM   10  C   UNK N   1      26.952  29.450  -4.780  0.00  0.00     0.005 C 
ENDBRANCH   8   9
ENDBRANCH   7   8
ENDBRANCH   4   7
TORSDOF 3
ENDMDL
MODEL 4
REMARK VINA RESULT:      -4.1      9.393     10.349
REMARK  3 active torsions:
REMARK  status: ('A' for Active; 'I' for Inactive)
REMARK    1  A    between atoms: C_3  and  C_2 
REMARK    2  A    between atoms: C_4  and  C_3 
REMARK    3  A    between atoms: C_8  and  C_4 
ROOT
HETATM    1  C   UNK N   1      30.946  18.243   8.773  0.00  0.00     0.018 C 
HETATM    2  C   UNK N   1      29.783  18.627   9.663  0.00  0.00     0.109 C 
HETATM    3  C   UNK N   1      29.112  17.297   7.516  0.00  0.00     0.113 C 
HETATM    4  C   UNK N   1      30.506  16.999   8.033  0.00  0.00    -0.002 C 
HETATM    5  O   UNK N   1      27.786  17.224   9.557  0.00  0.00    -0.258 OA
HETATM    6  S   UNK N   1      28.263  18.407   8.688  0.00  0.00     0.015 S 
ENDROOT
BRANCH   4   7
HETATM    7  C   UNK N   1      31.414  16.684   6.852  0.00  0.00     0.005 C 
BRANCH   7   8
HETATM    8  C   UNK N   1      30.842  17.154   5.526  0.00  0.00     0.000 C 
BRANCH   8   9
HETATM    9  C   UNK N   1      31.988  17.524   4.607  0.00  0.00    -0.005 C 
HETATM   10  C   UNK N   1      33.299  17.442   5.359  0.00  0.00     0.005 C 
ENDBRANCH   8   9
ENDBRANCH   7   8
ENDBRANCH   4   7
TORSDOF 3
ENDMDL
MODEL 5
REMARK VINA RESULT:      -3.8      8.939     10.104
REMARK  3 active torsions:
REMARK  status: ('A' for Active; 'I' for Inactive)
REMARK    1  A    between atoms: C_3  and  C_2 
REMARK    2  A    between atoms: C_4  and  C_3 
REMARK    3  A    between atoms: C_8  and  C_4 
ROOT
HETATM    1  C   UNK N   1      28.205  18.480   8.842  0.00  0.00     0.018 C 
HETATM    2  C   UNK N   1      29.418  18.189   9.699  0.00  0.00     0.109 C 
HETATM    3  C   UNK N   1      29.703  17.581   7.173  0.00  0.00     0.113 C 
HETATM    4  C   UNK N   1      28.734  18.715   7.444  0.00  0.00    -0.002 C 
HETATM    5  O   UNK N   1      31.594  18.179   8.587  0.00  0.00    -0.258 OA
HETATM    6  S   UNK N   1      30.506  17.093   8.737  0.00  0.00     0.015 S 
ENDROOT
BRANCH   4   7
HETATM    7  C   UNK N   1      27.627  18.678   6.400  0.00  0.00     0.005 C 
BRANCH   7   8
HETATM    8  C   UNK N   1      27.695  19.841   5.425  0.00  0.00     0.000 C 
BRANCH   8   9
HETATM    9  C   UNK N   1      27.720  21.134   6.213  0.00  0.00    -0.005 C 
HETATM   10  C   UNK N   1      26.352  21.405   6.802  0.00  0.00     0.005 C 
ENDBRANCH   8   9
ENDBRANCH   7   8
ENDBRANCH   4   7
TORSDOF 3
ENDMDL
MODEL 6
REMARK VINA RESULT:      -3.8      8.677      9.873
REMARK  3 active torsions:
REMARK  status: ('A' for Active; 'I' for Inactive)
REMARK    1  A    between atoms: C_3  and  C_2 
REMARK    2  A    between atoms: C_4  and  C_3 
REMARK    3  A    between atoms: C_8  and  C_4 
ROOT
HETATM    1  C   UNK N   1      29.650  17.615   6.714  0.00  0.00     0.018 C 
HETATM    2  C   UNK N   1      29.731  17.114   8.140  0.00  0.00     0.109 C 
HETATM    3  C   UNK N   1      28.051  19.082   7.774  0.00  0.00     0.113 C 
HETATM    4  C   UNK N   1      28.264  18.200   6.559  0.00  0.00    -0.002 C 
HETATM    5  O   UNK N   1      27.762  17.441   9.550  0.00  0.00    -0.258 OA
HETATM    6  S   UNK N   1      28.944  18.369   9.196  0.00  0.00     0.015 S 
ENDROOT
BRANCH   4   7
HETATM    7  C   UNK N   1      28.139  19.052   5.303  0.00  0.00     0.005 C 
BRANCH   7   8
HETATM    8  C   UNK N   1      27.635  20.456   5.589  0.00  0.00     0.000 C 
BRANCH   8   9
HETATM    9  C   UNK N   1      26.307  20.647   4.887  0.00  0.00    -0.005 C 
HETATM   10  C   UNK N   1      26.458  20.351   3.410  0.00  0.00     0.005 C 
ENDBRANCH   8   9
ENDBRANCH   7   8
ENDBRANCH   4   7
TORSDOF 3
ENDMDL
MODEL 7
REMARK VINA RESULT:      -3.8     11.934     13.048
REMARK  3 active torsions:
REMARK  status: ('A' for Active; 'I' for Inactive)
REMARK    1  A    between atoms: C_3  and  C_2 
REMARK    2  A    between atoms: C_4  and  C_3 
REMARK    3  A    between atoms: C_8  and  C_4 
ROOT
HETATM    1  C   UNK N   1      32.029  16.733   7.052  0.00  0.00     0.018 C 
HETATM    2  C   UNK N   1      32.226  16.492   8.534  0.00  0.00     0.109 C 
HETATM    3  C   UNK N   1      34.442  16.713   7.166  0.00  0.00     0.113 C 
HETATM    4  C   UNK N   1      33.264  17.471   6.586  0.00  0.00    -0.002 C 
HETATM    5  O   UNK N   1      34.309  17.295   9.527  0.00  0.00    -0.258 OA
HETATM    6  S   UNK N   1      33.960  15.995   8.772  0.00  0.00     0.015 S 
ENDROOT
BRANCH   4   7
HETATM    7  C   UNK N   1      33.385  17.484   5.069  0.00  0.00     0.005 C 
BRANCH   7   8
HETATM    8  C   UNK N   1      32.037  17.484   4.369  0.00  0.00     0.000 C 
BRANCH   8   9
HETATM    9  C   UNK N   1      32.230  17.009   2.943  0.00  0.00    -0.005 C 
HETATM   10  C   UNK N   1      33.326  15.967   2.891  0.00  0.00     0.005 C 
ENDBRANCH   8   9
ENDBRANCH   7   8
ENDBRANCH   4   7
TORSDOF 3
ENDMDL
MODEL 8
REMARK VINA RESULT:      -3.8      2.672      4.736
REMARK  3 active torsions:
REMARK  status: ('A' for Active; 'I' for Inactive)
REMARK    1  A    between atoms: C_3  and  C_2 
REMARK    2  A    between atoms: C_4  and  C_3 
REMARK    3  A    between atoms: C_8  and  C_4 
ROOT
HETATM    1  C   UNK N   1      21.109  12.720  10.502  0.00  0.00     0.018 C 
HETATM    2  C   UNK N   1      22.382  11.930  10.724  0.00  0.00     0.109 C 
HETATM    3  C   UNK N   1      22.468  13.583   8.700  0.00  0.00     0.113 C 
HETATM    4  C   UNK N   1      21.531  14.001   9.817  0.00  0.00    -0.002 C 
HETATM    5  O   UNK N   1      24.466  12.929   9.930  0.00  0.00    -0.258 OA
HETATM    6  S   UNK N   1      23.384  12.091   9.214  0.00  0.00     0.015 S 
ENDROOT
BRANCH   4   7
HETATM    7  C   UNK N   1      20.348  14.745   9.216  0.00  0.00     0.005 C 
BRANCH   7   8
HETATM    8  C   UNK N   1      20.768  15.905   8.330  0.00  0.00     0.000 C 
BRANCH   8   9
HETATM    9  C   UNK N   1      19.890  17.099   8.644  0.00  0.00    -0.005 C 
HETATM   10  C   UNK N   1      18.535  16.630   9.128  0.00  0.00     0.005 C 
ENDBRANCH   8   9
ENDBRANCH   7   8
ENDBRANCH   4   7
TORSDOF 3
ENDMDL
MODEL 9
REMARK VINA RESULT:      -3.8     13.603     14.569
REMARK  3 active torsions:
REMARK  status: ('A' for Active; 'I' for Inactive)
REMARK    1  A    between atoms: C_3  and  C_2 
REMARK    2  A    between atoms: C_4  and  C_3 
REMARK    3  A    between atoms: C_8  and  C_4 
ROOT
HETATM    1  C   UNK N   1      33.801  10.923  14.623  0.00  0.00     0.018 C 
HETATM    2  C   UNK N   1      34.264  10.262  13.342  0.00  0.00     0.109 C 
HETATM    3  C   UNK N   1      35.146  12.698  13.688  0.00  0.00     0.113 C 
HETATM    4  C   UNK N   1      34.864  11.941  14.971  0.00  0.00    -0.002 C 
HETATM    5  O   UNK N   1      36.368  11.046  12.380  0.00  0.00    -0.258 OA
HETATM    6  S   UNK N   1      34.922  11.574  12.268  0.00  0.00     0.015 S 
ENDROOT
BRANCH   4   7
HETATM    7  C   UNK N   1      34.389  12.925  16.030  0.00  0.00     0.005 C 
BRANCH   7   8
HETATM    8  C   UNK N   1      35.514  13.418  16.925  0.00  0.00     0.000 C 
BRANCH   8   9
HETATM    9  C   UNK N   1      35.118  13.192  18.370  0.00  0.00    -0.005 C 
HETATM   10  C   UNK N   1      35.377  11.752  18.756  0.00  0.00     0.005 C 
ENDBRANCH   8   9
ENDBRANCH   7   8
ENDBRANCH   4   7
TORSDOF 3
ENDMDL
