MODEL 1
REMARK VINA RESULT:      -5.7      0.000      0.000
REMARK  5 active torsions:
REMARK  status: ('A' for Active; 'I' for Inactive)
REMARK    1  A    between atoms: C_6  and  C_7 
REMARK    2  A    between atoms: C_7  and  C_8 
REMARK    3  A    between atoms: C_8  and  N_9 
REMARK    4  A    between atoms: C_8  and  C_10 
REMARK    5  A    between atoms: C_10  and  O_11 
ROOT
HETATM    1  C   UNK N   1      32.769  16.490   8.027  0.00  0.00     0.074 C 
ENDROOT
BRANCH   1   2
HETATM    2  C   UNK N   1      31.375  16.826   7.573  0.00  0.00    -0.055 A 
HETATM    3  C   UNK N   1      30.994  16.801   6.221  0.00  0.00     0.007 A 
HETATM    4  C   UNK N   1      29.695  17.161   5.849  0.00  0.00     0.001 A 
HETATM    5  C   UNK N   1      28.769  17.546   6.823  0.00  0.00     0.007 A 
HETATM    6  C   UNK N   1      29.142  17.565   8.169  0.00  0.00    -0.061 A 
HETATM    7  C   UNK N   1      28.158  17.969   9.207  0.00  0.00     0.048 C 
HETATM    8  C   UNK N   1      30.441  17.209   8.541  0.00  0.00     0.013 A 
ENDBRANCH   1   2
BRANCH   1   9
HETATM    9  C   UNK N   1      33.524  17.553   8.842  0.00  0.00     0.177 C 
BRANCH   9  10
HETATM   10  N   UNK N   1      34.272  16.934   9.925  0.00  0.00    -0.417 N 
HETATM   11  H   UNK N   1      34.072  16.338  10.727  0.00  0.00     0.150 HD
HETATM   12  H   UNK N   1      35.266  17.157   9.865  0.00  0.00     0.150 HD
ENDBRANCH   9  10
BRANCH   9  13
HETATM   13  C   UNK N   1      34.487  18.321   7.974  0.00  0.00     0.163 C 
HETATM   14  O   UNK N   1      34.550  18.117   6.770  0.00  0.00    -0.648 OA
BRANCH  13  15
HETATM   15  O   UNK N   1      35.305  19.231   8.535  0.00  0.00    -0.775 OA
HETATM   16  H   UNK N   1      34.962  20.037   8.868  0.00  0.00     0.167 HD
ENDBRANCH  13  15
ENDBRANCH   9  13
ENDBRANCH   1   9
TORSDOF 5
ENDMDL
MODEL 2
REMARK VINA RESULT:      -5.6      0.843      1.844
REMARK  5 active torsions:
REMARK  status: ('A' for Active; 'I' for Inactive)
REMARK    1  A    between atoms: C_6  and  C_7 
REMARK    2  A    between atoms: C_7  and  C_8 
REMARK    3  A    between atoms: C_8  and  N_9 
REMARK    4  A    between atoms: C_8  and  C_10 
REMARK    5  A    between atoms: C_10  and  O_11 
ROOT
HETATM    1  C   UNK N   1      32.235  17.033   7.843  0.00  0.00     0.074 C 
ENDROOT
BRANCH   1   2
HETATM    2  C   UNK N   1      30.810  17.444   8.098  0.00  0.00    -0.055 A 
HETATM    3  C   UNK N   1      30.440  18.249   9.188  0.00  0.00     0.007 A 
HETATM    4  C   UNK N   1      29.096  18.568   9.402  0.00  0.00     0.001 A 
HETATM    5  C   UNK N   1      28.115  18.090   8.529  0.00  0.00     0.007 A 
HETATM    6  C   UNK N   1      28.480  17.296   7.439  0.00  0.00    -0.061 A 
HETATM    7  C   UNK N   1      27.439  16.789   6.507  0.00  0.00     0.048 C 
HETATM    8  C   UNK N   1      29.822  16.972   7.228  0.00  0.00     0.013 A 
ENDBRANCH   1   2
BRANCH   1   9
HETATM    9  C   UNK N   1      33.321  17.649   8.738  0.00  0.00     0.177 C 
BRANCH   9  10
HETATM   10  N   UNK N   1      33.928  16.634   9.584  0.00  0.00    -0.417 N 
HETATM   11  H   UNK N   1      34.594  16.603  10.356  0.00  0.00     0.150 HD
HETATM   12  H   UNK N   1      33.598  15.700   9.340  0.00  0.00     0.150 HD
ENDBRANCH   9  10
BRANCH   9  13
HETATM   13  C   UNK N   1      34.406  18.293   7.912  0.00  0.00     0.163 C 
HETATM   14  O   UNK N   1      34.535  18.028   6.726  0.00  0.00    -0.648 OA
BRANCH  13  15
HETATM   15  O   UNK N   1      35.259  19.156   8.494  0.00  0.00    -0.775 OA
HETATM   16  H   UNK N   1      34.999  20.042   8.660  0.00  0.00     0.167 HD
ENDBRANCH  13  15
ENDBRANCH   9  13
ENDBRANCH   1   9
TORSDOF 5
ENDMDL
MODEL 3
REMARK VINA RESULT:      -5.3      3.600      5.021
REMARK  5 active torsions:
REMARK  status: ('A' for Active; 'I' for Inactive)
REMARK    1  A    between atoms: C_6  and  C_7 
REMARK    2  A    between atoms: C_7  and  C_8 
REMARK    3  A    between atoms: C_8  and  N_9 
REMARK    4  A    between atoms: C_8  and  C_10 
REMARK    5  A    between atoms: C_10  and  O_11 
ROOT
HETATM    1  C   UNK N   1      29.648  17.011   7.179  0.00  0.00     0.074 C 
ENDROOT
BRANCH   1   2
HETATM    2  C   UNK N   1      31.046  17.204   6.656  0.00  0.00    -0.055 A 
HETATM    3  C   UNK N   1      31.381  17.006   5.306  0.00  0.00     0.007 A 
HETATM    4  C   UNK N   1      32.704  17.159   4.880  0.00  0.00     0.001 A 
HETATM    5  C   UNK N   1      33.698  17.514   5.796  0.00  0.00     0.007 A 
HETATM    6  C   UNK N   1      33.367  17.719   7.138  0.00  0.00    -0.061 A 
HETATM    7  C   UNK N   1      34.421  18.101   8.114  0.00  0.00     0.048 C 
HETATM    8  C   UNK N   1      32.046  17.562   7.565  0.00  0.00     0.013 A 
ENDBRANCH   1   2
BRANCH   1   9
HETATM    9  C   UNK N   1      28.845  18.272   7.535  0.00  0.00     0.177 C 
BRANCH   9  10
HETATM   10  N   UNK N   1      27.561  18.274   6.851  0.00  0.00    -0.417 N 
HETATM   11  H   UNK N   1      27.196  17.985   5.945  0.00  0.00     0.150 HD
HETATM   12  H   UNK N   1      26.828  18.673   7.438  0.00  0.00     0.150 HD
ENDBRANCH   9  10
BRANCH   9  13
HETATM   13  C   UNK N   1      28.595  18.357   9.019  0.00  0.00     0.163 C 
HETATM   14  O   UNK N   1      29.482  18.702   9.788  0.00  0.00    -0.648 OA
BRANCH  13  15
HETATM   15  O   UNK N   1      27.386  18.028   9.510  0.00  0.00    -0.775 OA
HETATM   16  H   UNK N   1      27.167  18.217  10.401  0.00  0.00     0.167 HD
ENDBRANCH  13  15
ENDBRANCH   9  13
ENDBRANCH   1   9
TORSDOF 5
ENDMDL
MODEL 4
REMARK VINA RESULT:      -5.3      9.920     11.670
REMARK  5 active torsions:
REMARK  status: ('A' for Active; 'I' for Inactive)
REMARK    1  A    between atoms: C_6  and  C_7 
REMARK    2  A    between atoms: C_7  and  C_8 
REMARK    3  A    between atoms: C_8  and  N_9 
REMARK    4  A    between atoms: C_8  and  C_10 
REMARK    5  A    between atoms: C_10  and  O_11 
ROOT
HETATM    1  C   UNK N   1      21.375  19.593   3.491  0.00  0.00     0.074 C 
ENDROOT
BRANCH   1   2
HETATM    2  C   UNK N   1      22.794  19.107   3.614  0.00  0.00    -0.055 A 
HETATM    3  C   UNK N   1      23.113  17.809   4.046  0.00  0.00     0.007 A 
HETATM    4  C   UNK N   1      24.449  17.421   4.182  0.00  0.00     0.001 A 
HETATM    5  C   UNK N   1      25.474  18.325   3.887  0.00  0.00     0.007 A 
HETATM    6  C   UNK N   1      25.161  19.615   3.451  0.00  0.00    -0.061 A 
HETATM    7  C   UNK N   1      26.248  20.576   3.132  0.00  0.00     0.048 C 
HETATM    8  C   UNK N   1      23.826  20.004   3.319  0.00  0.00     0.013 A 
ENDBRANCH   1   2
BRANCH   1   9
HETATM    9  C   UNK N   1      20.690  19.438   2.124  0.00  0.00     0.177 C 
BRANCH   9  10
HETATM   10  N   UNK N   1      19.261  19.221   2.286  0.00  0.00    -0.417 N 
HETATM   11  H   UNK N   1      18.652  18.486   2.642  0.00  0.00     0.150 HD
HETATM   12  H   UNK N   1      18.723  20.022   1.954  0.00  0.00     0.150 HD
ENDBRANCH   9  10
BRANCH   9  13
HETATM   13  C   UNK N   1      20.893  20.665   1.272  0.00  0.00     0.163 C 
HETATM   14  O   UNK N   1      21.053  20.572   0.063  0.00  0.00    -0.648 OA
BRANCH  13  15
HETATM   15  O   UNK N   1      20.921  21.879   1.851  0.00  0.00    -0.775 OA
HETATM   16  H   UNK N   1      20.603  21.996   2.726  0.00  0.00     0.167 HD
ENDBRANCH  13  15
ENDBRANCH   9  13
ENDBRANCH   1   9
TORSDOF 5
ENDMDL
MODEL 5
REMARK VINA RESULT:      -5.3      3.747      5.274
REMARK  5 active torsions:
REMARK  status: ('A' for Active; 'I' for Inactive)
REMARK    1  A    between atoms: C_6  and  C_7 
REMARK    2  A    between atoms: C_7  and  C_8 
REMARK    3  A    between atoms: C_8  and  N_9 
REMARK    4  A    between atoms: C_8  and  C_10 
REMARK    5  A    between atoms: C_10  and  O_11 
ROOT
HETATM    1  C   UNK N   1      29.601  16.989   7.186  0.00  0.00     0.074 C 
ENDROOT
BRANCH   1   2
HETATM    2  C   UNK N   1      30.965  17.130   6.566  0.00  0.00    -0.055 A 
HETATM    3  C   UNK N   1      32.120  17.372   7.327  0.00  0.00     0.007 A 
HETATM    4  C   UNK N   1      33.357  17.536   6.697  0.00  0.00     0.001 A 
HETATM    5  C   UNK N   1      33.449  17.455   5.304  0.00  0.00     0.007 A 
HETATM    6  C   UNK N   1      32.304  17.206   4.543  0.00  0.00    -0.061 A 
HETATM    7  C   UNK N   1      32.400  17.115   3.063  0.00  0.00     0.048 C 
HETATM    8  C   UNK N   1      31.067  17.048   5.173  0.00  0.00     0.013 A 
ENDBRANCH   1   2
BRANCH   1   9
HETATM    9  C   UNK N   1      28.842  18.281   7.527  0.00  0.00     0.177 C 
BRANCH   9  10
HETATM   10  N   UNK N   1      27.559  18.319   6.843  0.00  0.00    -0.417 N 
HETATM   11  H   UNK N   1      27.076  18.938   6.192  0.00  0.00     0.150 HD
HETATM   12  H   UNK N   1      26.988  17.507   7.077  0.00  0.00     0.150 HD
ENDBRANCH   9  10
BRANCH   9  13
HETATM   13  C   UNK N   1      28.595  18.392   9.010  0.00  0.00     0.163 C 
HETATM   14  O   UNK N   1      29.490  18.728   9.773  0.00  0.00    -0.648 OA
BRANCH  13  15
HETATM   15  O   UNK N   1      27.379  18.097   9.505  0.00  0.00    -0.775 OA
HETATM   16  H   UNK N   1      27.087  18.482  10.308  0.00  0.00     0.167 HD
ENDBRANCH  13  15
ENDBRANCH   9  13
ENDBRANCH   1   9
TORSDOF 5
ENDMDL
MODEL 6
REMARK VINA RESULT:      -5.2      9.467     11.024
REMARK  5 active torsions:
REMARK  status: ('A' for Active; 'I' for Inactive)
REMARK    1  A    between atoms: C_6  and  C_7 
REMARK    2  A    between atoms: C_7  and  C_8 
REMARK    3  A    between atoms: C_8  and  N_9 
REMARK    4  A    between atoms: C_8  and  C_10 
REMARK    5  A    between atoms: C_10  and  O_11 
ROOT
HETATM    1  C   UNK N   1      35.441  12.302  15.131  0.00  0.00     0.074 C 
ENDROOT
BRANCH   1   2
HETATM    2  C   UNK N   1      35.354  12.422  16.628  0.00  0.00    -0.055 A 
HETATM    3  C   UNK N   1      35.198  13.656  17.280  0.00  0.00     0.007 A 
HETATM    4  C   UNK N   1      35.163  13.715  18.676  0.00  0.00     0.001 A 
HETATM    5  C   UNK N   1      35.281  12.544  19.429  0.00  0.00     0.007 A 
HETATM    6  C   UNK N   1      35.428  11.313  18.785  0.00  0.00    -0.061 A 
HETATM    7  C   UNK N   1      35.549  10.065  19.583  0.00  0.00     0.048 C 
HETATM    8  C   UNK N   1      35.468  11.254  17.390  0.00  0.00     0.013 A 
ENDBRANCH   1   2
BRANCH   1   9
HETATM    9  C   UNK N   1      36.346  13.301  14.392  0.00  0.00     0.177 C 
BRANCH   9  10
HETATM   10  N   UNK N   1      37.520  12.632  13.855  0.00  0.00    -0.417 N 
HETATM   11  H   UNK N   1      38.526  12.632  14.025  0.00  0.00     0.150 HD
HETATM   12  H   UNK N   1      37.270  11.986  13.105  0.00  0.00     0.150 HD
ENDBRANCH   9  10
BRANCH   9  13
HETATM   13  C   UNK N   1      35.612  13.963  13.254  0.00  0.00     0.163 C 
HETATM   14  O   UNK N   1      36.011  15.015  12.776  0.00  0.00    -0.648 OA
BRANCH  13  15
HETATM   15  O   UNK N   1      34.489  13.401  12.772  0.00  0.00    -0.775 OA
HETATM   16  H   UNK N   1      33.993  13.829  12.101  0.00  0.00     0.167 HD
ENDBRANCH  13  15
ENDBRANCH   9  13
ENDBRANCH   1   9
TORSDOF 5
ENDMDL
MODEL 7
REMARK VINA RESULT:      -5.2     10.361     12.052
REMARK  5 active torsions:
REMARK  status: ('A' for Active; 'I' for Inactive)
REMARK    1  A    between atoms: C_6  and  C_7 
REMARK    2  A    between atoms: C_7  and  C_8 
REMARK    3  A    between atoms: C_8  and  N_9 
REMARK    4  A    between atoms: C_8  and  C_10 
REMARK    5  A    between atoms: C_10  and  O_11 
ROOT
HETATM    1  C   UNK N   1      20.611  14.368   8.462  0.00  0.00     0.074 C 
ENDROOT
BRANCH   1   2
HETATM    2  C   UNK N   1      21.226  13.514   9.537  0.00  0.00    -0.055 A 
HETATM    3  C   UNK N   1      20.468  12.932  10.566  0.00  0.00     0.007 A 
HETATM    4  C   UNK N   1      21.096  12.180  11.564  0.00  0.00     0.001 A 
HETATM    5  C   UNK N   1      22.482  12.003  11.539  0.00  0.00     0.007 A 
HETATM    6  C   UNK N   1      23.239  12.574  10.513  0.00  0.00    -0.061 A 
HETATM    7  C   UNK N   1      24.713  12.383  10.481  0.00  0.00     0.048 C 
HETATM    8  C   UNK N   1      22.612  13.329   9.518  0.00  0.00     0.013 A 
ENDBRANCH   1   2
BRANCH   1   9
HETATM    9  C   UNK N   1      20.972  15.862   8.450  0.00  0.00     0.177 C 
BRANCH   9  10
HETATM   10  N   UNK N   1      21.436  16.269   7.133  0.00  0.00    -0.417 N 
HETATM   11  H   UNK N   1      22.192  16.021   6.497  0.00  0.00     0.150 HD
HETATM   12  H   UNK N   1      20.843  17.000   6.740  0.00  0.00     0.150 HD
ENDBRANCH   9  10
BRANCH   9  13
HETATM   13  C   UNK N   1      19.784  16.712   8.822  0.00  0.00     0.163 C 
HETATM   14  O   UNK N   1      19.897  17.920   8.969  0.00  0.00    -0.648 OA
BRANCH  13  15
HETATM   15  O   UNK N   1      18.586  16.131   9.016  0.00  0.00    -0.775 OA
HETATM   16  H   UNK N   1      18.519  15.329   9.497  0.00  0.00     0.167 HD
ENDBRANCH  13  15
ENDBRANCH   9  13
ENDBRANCH   1   9
TORSDOF 5
ENDMDL
MODEL 8
REMARK VINA RESULT:      -5.1     13.241     14.544
REMARK  5 active torsions:
REMARK  status: ('A' for Active; 'I' for Inactive)
REMARK    1  A    between atoms: C_6  and  C_7 
REMARK    2  A    between atoms: C_7  and  C_8 
REMARK    3  A    between atoms: C_8  and  N_9 
REMARK    4  A    between atoms: C_8  and  C_10 
REMARK    5  A    between atoms: C_10  and  O_11 
ROOT
HETATM    1  C   UNK N   1      27.869  23.946  -3.027  0.00  0.00     0.074 C 
ENDROOT
BRANCH   1   2
HETATM    2  C   UNK N   1      26.937  24.727  -3.913  0.00  0.00    -0.055 A 
HETATM    3  C   UNK N   1      26.337  24.172  -5.055  0.00  0.00     0.007 A 
HETATM    4  C   UNK N   1      25.511  24.954  -5.867  0.00  0.00     0.001 A 
HETATM    5  C   UNK N   1      25.277  26.293  -5.544  0.00  0.00     0.007 A 
HETATM    6  C   UNK N   1      25.865  26.848  -4.404  0.00  0.00    -0.061 A 
HETATM    7  C   UNK N   1      25.614  28.270  -4.055  0.00  0.00     0.048 C 
HETATM    8  C   UNK N   1      26.695  26.067  -3.595  0.00  0.00     0.013 A 
ENDBRANCH   1   2
BRANCH   1   9
HETATM    9  C   UNK N   1      29.299  23.710  -3.536  0.00  0.00     0.177 C 
BRANCH   9  10
HETATM   10  N   UNK N   1      30.064  24.947  -3.514  0.00  0.00    -0.417 N 
HETATM   11  H   UNK N   1      30.442  25.580  -2.811  0.00  0.00     0.150 HD
HETATM   12  H   UNK N   1      30.280  25.268  -4.458  0.00  0.00     0.150 HD
ENDBRANCH   9  10
BRANCH   9  13
HETATM   13  C   UNK N   1      30.017  22.690  -2.690  0.00  0.00     0.163 C 
HETATM   14  O   UNK N   1      30.256  21.571  -3.121  0.00  0.00    -0.648 OA
BRANCH  13  15
HETATM   15  O   UNK N   1      30.382  23.006  -1.434  0.00  0.00    -0.775 OA
HETATM   16  H   UNK N   1      30.132  22.459  -0.715  0.00  0.00     0.167 HD
ENDBRANCH  13  15
ENDBRANCH   9  13
ENDBRANCH   1   9
TORSDOF 5
ENDMDL
MODEL 9
REMARK VINA RESULT:      -5.0     12.512     13.955
REMARK  5 active torsions:
REMARK  status: ('A' for Active; 'I' for Inactive)
REMARK    1  A    between atoms: C_6  and  C_7 
REMARK    2  A    between atoms: C_7  and  C_8 
REMARK    3  A    between atoms: C_8  and  N_9 
REMARK    4  A    between atoms: C_8  and  C_10 
REMARK    5  A    between atoms: C_10  and  O_11 
ROOT
HETATM    1  C   UNK N   1      30.035  23.152  -4.568  0.00  0.00     0.074 C 
ENDROOT
BRANCH   1   2
HETATM    2  C   UNK N   1      28.599  23.588  -4.677  0.00  0.00    -0.055 A 
HETATM    3  C   UNK N   1      27.915  24.206  -3.617  0.00  0.00     0.007 A 
HETATM    4  C   UNK N   1      26.568  24.554  -3.757  0.00  0.00     0.001 A 
HETATM    5  C   UNK N   1      25.898  24.291  -4.955  0.00  0.00     0.007 A 
HETATM    6  C   UNK N   1      26.577  23.684  -6.015  0.00  0.00    -0.061 A 
HETATM    7  C   UNK N   1      25.869  23.407  -7.291  0.00  0.00     0.048 C 
HETATM    8  C   UNK N   1      27.922  23.331  -5.873  0.00  0.00     0.013 A 
ENDBRANCH   1   2
BRANCH   1   9
HETATM    9  C   UNK N   1      30.326  21.861  -3.787  0.00  0.00     0.177 C 
BRANCH   9  10
HETATM   10  N   UNK N   1      31.103  20.935  -4.596  0.00  0.00    -0.417 N 
HETATM   11  H   UNK N   1      30.928  20.102  -5.157  0.00  0.00     0.150 HD
HETATM   12  H   UNK N   1      32.092  21.187  -4.604  0.00  0.00     0.150 HD
ENDBRANCH   9  10
BRANCH   9  13
HETATM   13  C   UNK N   1      31.094  22.151  -2.523  0.00  0.00     0.163 C 
HETATM   14  O   UNK N   1      30.733  23.031  -1.755  0.00  0.00    -0.648 OA
BRANCH  13  15
HETATM   15  O   UNK N   1      32.206  21.445  -2.244  0.00  0.00    -0.775 OA
HETATM   16  H   UNK N   1      32.987  21.880  -1.963  0.00  0.00     0.167 HD
ENDBRANCH  13  15
ENDBRANCH   9  13
ENDBRANCH   1   9
TORSDOF 5
ENDMDL
