REMARK  5 active torsions:
REMARK  status: ('A' for Active; 'I' for Inactive)
REMARK    1  A    between atoms: C_2  and  N_1 
REMARK    2  A    between atoms: C_2  and  C_3 
REMARK    3  A    between atoms: C_2  and  C_13 
REMARK    4  A    between atoms: C_3  and  N_4 
REMARK    5  A    between atoms: C_13  and  O_14 
ROOT
HETATM    1  N   UNK N   1       1.354   0.762  -0.000  0.00  0.00    -0.306 N 
HETATM    2  C   UNK N   1       1.501  -0.589  -0.000  0.00  0.00     0.119 A 
HETATM    3  C   UNK N   1       0.412  -1.447   0.000  0.00  0.00     0.090 A 
HETATM    4  I   UNK N   1       0.761  -3.528  -0.000  0.00  0.00    -0.037 I 
HETATM    5  C   UNK N   1      -0.866  -0.902   0.000  0.00  0.00     0.267 A 
HETATM    6  O   UNK N   1      -1.847  -1.624   0.000  0.00  0.00    -0.267 OA
HETATM    7  N   UNK N   1      -1.019   0.457   0.000  0.00  0.00    -0.274 N 
HETATM    8  C   UNK N   1       0.069   1.295   0.000  0.00  0.00     0.329 A 
HETATM    9  O   UNK N   1      -0.123   2.491  -0.000  0.00  0.00    -0.246 OA
HETATM   10  H   UNK N   1      -1.925   0.841   0.000  0.00  0.00     0.173 HD
ENDROOT
BRANCH   1  11
HETATM   11  C   UNK N   1       2.647   1.471  -0.000  0.00  0.00     0.168 C 
BRANCH  11  12
HETATM   12  C   UNK N   1       2.889   2.991   0.000  0.00  0.00     0.192 C 
BRANCH  12  13
HETATM   13  N   UNK N   1       1.849   4.002  -0.000  0.00  0.00    -0.416 N 
HETATM   14  H   UNK N   1       2.099   4.991  -0.000  0.00  0.00     0.150 HD
HETATM   15  H   UNK N   1       0.868   3.724  -0.000  0.00  0.00     0.150 HD
ENDBRANCH  12  13
BRANCH  12  16
HETATM   16  C   UNK N   1       4.307   3.479   0.000  0.00  0.00     0.164 C 
HETATM   17  O   UNK N   1       5.229   2.678  -0.000  0.00  0.00    -0.648 OA
BRANCH  16  18
HETATM   18  O   UNK N   1       4.573   4.798  -0.000  0.00  0.00    -0.775 OA
HETATM   19  H   UNK N   1       5.461   5.097  -0.000  0.00  0.00     0.167 HD
ENDBRANCH  16  18
ENDBRANCH  12  16
ENDBRANCH  11  12
ENDBRANCH   1  11
TORSDOF 5
