MODEL 1
REMARK VINA RESULT:      -5.3      0.000      0.000
REMARK  9 active torsions:
REMARK  status: ('A' for Active; 'I' for Inactive)
REMARK    1  A    between atoms: C_2  and  C_1 
REMARK    2  A    between atoms: C_5  and  C_1 
REMARK    3  A    between atoms: O_15  and  C_2 
REMARK    4  A    between atoms: C_6  and  C_3 
REMARK    5  A    between atoms: O_11  and  C_3 
REMARK    6  A    between atoms: C_7  and  O_12 
REMARK    7  A    between atoms: C_8  and  O_13 
REMARK    8  A    between atoms: C_9  and  O_14 
REMARK    9  A    between atoms: C_10  and  O_15 
ROOT
HETATM    1  C   UNK N   1      33.928  16.992   8.895  0.00  0.00     0.179 C 
HETATM    2  C   UNK N   1      32.582  16.278   8.616  0.00  0.00     0.180 C 
HETATM    3  C   UNK N   1      32.532  14.942   9.375  0.00  0.00     0.183 C 
HETATM    4  C   UNK N   1      33.782  14.117   9.033  0.00  0.00     0.204 C 
HETATM    5  C   UNK N   1      35.050  14.988   9.294  0.00  0.00     0.291 C 
HETATM    6  O   UNK N   1      35.005  16.159   8.497  0.00  0.00    -0.348 OA
ENDROOT
BRANCH   5   7
HETATM    7  O   UNK N   1      36.305  14.357   9.102  0.00  0.00    -0.358 OA
BRANCH   7   8
HETATM    8  C   UNK N   1      37.163  14.538  10.199  0.00  0.00     0.173 C 
BRANCH   8   9
HETATM    9  C   UNK N   1      36.846  13.520  11.294  0.00  0.00     0.060 C 
BRANCH   9  10
HETATM   10  C   UNK N   1      36.167  14.154  12.504  0.00  0.00     0.147 A 
HETATM   11  C   UNK N   1      35.477  13.208  13.401  0.00  0.00     0.200 A 
HETATM   12  O   UNK N   1      34.773  13.989  12.461  0.00  0.00    -0.381 OA
ENDBRANCH   9  10
ENDBRANCH   8   9
ENDBRANCH   7   8
ENDBRANCH   5   7
BRANCH   4  13
HETATM   13  O   UNK N   1      33.808  12.954   9.805  0.00  0.00    -0.388 OA
HETATM   14  H   UNK N   1      33.008  12.566  10.194  0.00  0.00     0.210 HD
ENDBRANCH   4  13
BRANCH   3  15
HETATM   15  O   UNK N   1      32.486  15.181  10.754  0.00  0.00    -0.390 OA
HETATM   16  H   UNK N   1      32.226  15.338  11.675  0.00  0.00     0.210 HD
ENDBRANCH   3  15
BRANCH   1  17
HETATM   17  C   UNK N   1      34.045  18.291   8.102  0.00  0.00     0.198 C 
BRANCH  17  18
HETATM   18  O   UNK N   1      35.172  19.019   8.490  0.00  0.00    -0.398 OA
HETATM   19  H   UNK N   1      35.190  19.971   8.673  0.00  0.00     0.209 HD
ENDBRANCH  17  18
ENDBRANCH   1  17
BRANCH   2  20
HETATM   20  O   UNK N   1      31.501  17.076   9.004  0.00  0.00    -0.390 OA
HETATM   21  H   UNK N   1      31.365  17.977   8.672  0.00  0.00     0.210 HD
ENDBRANCH   2  20
TORSDOF 9
ENDMDL
MODEL 2
REMARK VINA RESULT:      -5.2     14.145     15.462
REMARK  9 active torsions:
REMARK  status: ('A' for Active; 'I' for Inactive)
REMARK    1  A    between atoms: C_2  and  C_1 
REMARK    2  A    between atoms: C_5  and  C_1 
REMARK    3  A    between atoms: O_15  and  C_2 
REMARK    4  A    between atoms: C_6  and  C_3 
REMARK    5  A    between atoms: O_11  and  C_3 
REMARK    6  A    between atoms: C_7  and  O_12 
REMARK    7  A    between atoms: C_8  and  O_13 
REMARK    8  A    between atoms: C_9  and  O_14 
REMARK    9  A    between atoms: C_10  and  O_15 
ROOT
HETATM    1  C   UNK N   1      21.375  19.506   3.067  0.00  0.00     0.179 C 
HETATM    2  C   UNK N   1      20.804  18.982   1.726  0.00  0.00     0.180 C 
HETATM    3  C   UNK N   1      19.723  17.923   1.997  0.00  0.00     0.183 C 
HETATM    4  C   UNK N   1      20.296  16.838   2.922  0.00  0.00     0.204 C 
HETATM    5  C   UNK N   1      20.898  17.521   4.190  0.00  0.00     0.291 C 
HETATM    6  O   UNK N   1      21.918  18.429   3.813  0.00  0.00    -0.348 OA
ENDROOT
BRANCH   5   7
HETATM    7  O   UNK N   1      21.406  16.659   5.195  0.00  0.00    -0.358 OA
BRANCH   7   8
HETATM    8  C   UNK N   1      21.278  17.209   6.481  0.00  0.00     0.173 C 
BRANCH   8   9
HETATM    9  C   UNK N   1      20.057  16.623   7.189  0.00  0.00     0.060 C 
BRANCH   9  10
HETATM   10  C   UNK N   1      20.019  16.972   8.673  0.00  0.00     0.147 A 
HETATM   11  C   UNK N   1      18.781  17.634   9.128  0.00  0.00     0.200 A 
HETATM   12  O   UNK N   1      19.963  18.361   8.877  0.00  0.00    -0.381 OA
ENDBRANCH   9  10
ENDBRANCH   8   9
ENDBRANCH   7   8
ENDBRANCH   5   7
BRANCH   4  13
HETATM   13  O   UNK N   1      19.290  15.935   3.272  0.00  0.00    -0.388 OA
HETATM   14  H   UNK N   1      19.441  14.978   3.324  0.00  0.00     0.210 HD
ENDBRANCH   4  13
BRANCH   3  15
HETATM   15  O   UNK N   1      18.613  18.524   2.603  0.00  0.00    -0.390 OA
HETATM   16  H   UNK N   1      17.943  18.864   3.216  0.00  0.00     0.210 HD
ENDBRANCH   3  15
BRANCH   1  17
HETATM   17  C   UNK N   1      22.503  20.510   2.838  0.00  0.00     0.198 C 
BRANCH  17  18
HETATM   18  O   UNK N   1      22.005  21.809   2.723  0.00  0.00    -0.398 OA
HETATM   19  H   UNK N   1      21.501  22.153   1.969  0.00  0.00     0.209 HD
ENDBRANCH  17  18
ENDBRANCH   1  17
BRANCH   2  20
HETATM   20  O   UNK N   1      20.257  20.025   0.971  0.00  0.00    -0.390 OA
HETATM   21  H   UNK N   1      20.438  20.142   0.026  0.00  0.00     0.210 HD
ENDBRANCH   2  20
TORSDOF 9
ENDMDL
MODEL 3
REMARK VINA RESULT:      -5.1      1.717      5.259
REMARK  9 active torsions:
REMARK  status: ('A' for Active; 'I' for Inactive)
REMARK    1  A    between atoms: C_2  and  C_1 
REMARK    2  A    between atoms: C_5  and  C_1 
REMARK    3  A    between atoms: O_15  and  C_2 
REMARK    4  A    between atoms: C_6  and  C_3 
REMARK    5  A    between atoms: O_11  and  C_3 
REMARK    6  A    between atoms: C_7  and  O_12 
REMARK    7  A    between atoms: C_8  and  O_13 
REMARK    8  A    between atoms: C_9  and  O_14 
REMARK    9  A    between atoms: C_10  and  O_15 
ROOT
HETATM    1  C   UNK N   1      36.695  12.742  10.893  0.00  0.00     0.179 C 
HETATM    2  C   UNK N   1      36.627  13.759  12.061  0.00  0.00     0.180 C 
HETATM    3  C   UNK N   1      35.170  14.193  12.289  0.00  0.00     0.183 C 
HETATM    4  C   UNK N   1      34.575  14.693  10.964  0.00  0.00     0.204 C 
HETATM    5  C   UNK N   1      34.783  13.598   9.872  0.00  0.00     0.291 C 
HETATM    6  O   UNK N   1      36.166  13.327   9.715  0.00  0.00    -0.348 OA
ENDROOT
BRANCH   5   7
HETATM    7  O   UNK N   1      34.225  13.860   8.595  0.00  0.00    -0.358 OA
BRANCH   7   8
HETATM    8  C   UNK N   1      35.031  14.718   7.829  0.00  0.00     0.173 C 
BRANCH   8   9
HETATM    9  C   UNK N   1      34.206  15.897   7.310  0.00  0.00     0.060 C 
BRANCH   9  10
HETATM   10  C   UNK N   1      34.455  17.177   8.101  0.00  0.00     0.147 A 
HETATM   11  C   UNK N   1      33.394  18.196   7.989  0.00  0.00     0.200 A 
HETATM   12  O   UNK N   1      34.594  18.289   7.254  0.00  0.00    -0.381 OA
ENDBRANCH   9  10
ENDBRANCH   8   9
ENDBRANCH   7   8
ENDBRANCH   5   7
BRANCH   4  13
HETATM   13  O   UNK N   1      33.218  14.979  11.131  0.00  0.00    -0.388 OA
HETATM   14  H   UNK N   1      32.712  14.679  11.902  0.00  0.00     0.210 HD
ENDBRANCH   4  13
BRANCH   3  15
HETATM   15  O   UNK N   1      34.421  13.110  12.766  0.00  0.00    -0.390 OA
HETATM   16  H   UNK N   1      33.919  12.288  12.878  0.00  0.00     0.210 HD
ENDBRANCH   3  15
BRANCH   1  17
HETATM   17  C   UNK N   1      38.136  12.339  10.589  0.00  0.00     0.198 C 
BRANCH  17  18
HETATM   18  O   UNK N   1      39.012  13.406  10.798  0.00  0.00    -0.398 OA
HETATM   19  H   UNK N   1      39.048  14.215  10.264  0.00  0.00     0.209 HD
ENDBRANCH  17  18
ENDBRANCH   1  17
BRANCH   2  20
HETATM   20  O   UNK N   1      37.139  13.205  13.239  0.00  0.00    -0.390 OA
HETATM   21  H   UNK N   1      36.777  12.403  13.645  0.00  0.00     0.210 HD
ENDBRANCH   2  20
TORSDOF 9
ENDMDL
MODEL 4
REMARK VINA RESULT:      -5.1     11.877     14.814
REMARK  9 active torsions:
REMARK  status: ('A' for Active; 'I' for Inactive)
REMARK    1  A    between atoms: C_2  and  C_1 
REMARK    2  A    between atoms: C_5  and  C_1 
REMARK    3  A    between atoms: O_15  and  C_2 
REMARK    4  A    between atoms: C_6  and  C_3 
REMARK    5  A    between atoms: O_11  and  C_3 
REMARK    6  A    between atoms: C_7  and  O_12 
REMARK    7  A    between atoms: C_8  and  O_13 
REMARK    8  A    between atoms: C_9  and  O_14 
REMARK    9  A    between atoms: C_10  and  O_15 
ROOT
HETATM    1  C   UNK N   1      20.888  17.633   2.837  0.00  0.00     0.179 C 
HETATM    2  C   UNK N   1      19.678  18.566   2.580  0.00  0.00     0.180 C 
HETATM    3  C   UNK N   1      20.170  19.932   2.076  0.00  0.00     0.183 C 
HETATM    4  C   UNK N   1      21.216  20.488   3.054  0.00  0.00     0.204 C 
HETATM    5  C   UNK N   1      22.328  19.414   3.270  0.00  0.00     0.291 C 
HETATM    6  O   UNK N   1      21.758  18.225   3.788  0.00  0.00    -0.348 OA
ENDROOT
BRANCH   5   7
HETATM    7  O   UNK N   1      23.422  19.788   4.090  0.00  0.00    -0.358 OA
BRANCH   7   8
HETATM    8  C   UNK N   1      24.640  19.271   3.618  0.00  0.00     0.173 C 
BRANCH   8   9
HETATM    9  C   UNK N   1      25.766  20.280   3.842  0.00  0.00     0.060 C 
BRANCH   9  10
HETATM   10  C   UNK N   1      26.535  20.021   5.133  0.00  0.00     0.147 A 
HETATM   11  C   UNK N   1      27.023  21.231   5.824  0.00  0.00     0.200 A 
HETATM   12  O   UNK N   1      27.874  20.435   5.030  0.00  0.00    -0.381 OA
ENDBRANCH   9  10
ENDBRANCH   8   9
ENDBRANCH   7   8
ENDBRANCH   5   7
BRANCH   4  13
HETATM   13  O   UNK N   1      21.757  21.672   2.547  0.00  0.00    -0.388 OA
HETATM   14  H   UNK N   1      21.465  22.549   2.841  0.00  0.00     0.210 HD
ENDBRANCH   4  13
BRANCH   3  15
HETATM   15  O   UNK N   1      20.738  19.792   0.804  0.00  0.00    -0.390 OA
HETATM   16  H   UNK N   1      20.956  19.551  -0.110  0.00  0.00     0.210 HD
ENDBRANCH   3  15
BRANCH   1  17
HETATM   17  C   UNK N   1      20.444  16.288   3.406  0.00  0.00     0.198 C 
BRANCH  17  18
HETATM   18  O   UNK N   1      19.153  16.365   3.932  0.00  0.00    -0.398 OA
HETATM   19  H   UNK N   1      18.405  15.807   3.668  0.00  0.00     0.209 HD
ENDBRANCH  17  18
ENDBRANCH   1  17
BRANCH   2  20
HETATM   20  O   UNK N   1      18.804  18.008   1.641  0.00  0.00    -0.390 OA
HETATM   21  H   UNK N   1      19.110  17.581   0.826  0.00  0.00     0.210 HD
ENDBRANCH   2  20
TORSDOF 9
ENDMDL
MODEL 5
REMARK VINA RESULT:      -5.0     11.205     13.941
REMARK  9 active torsions:
REMARK  status: ('A' for Active; 'I' for Inactive)
REMARK    1  A    between atoms: C_2  and  C_1 
REMARK    2  A    between atoms: C_5  and  C_1 
REMARK    3  A    between atoms: O_15  and  C_2 
REMARK    4  A    between atoms: C_6  and  C_3 
REMARK    5  A    between atoms: O_11  and  C_3 
REMARK    6  A    between atoms: C_7  and  O_12 
REMARK    7  A    between atoms: C_8  and  O_13 
REMARK    8  A    between atoms: C_9  and  O_14 
REMARK    9  A    between atoms: C_10  and  O_15 
ROOT
HETATM    1  C   UNK N   1      21.335  20.497   2.235  0.00  0.00     0.179 C 
HETATM    2  C   UNK N   1      20.906  19.076   2.680  0.00  0.00     0.180 C 
HETATM    3  C   UNK N   1      21.580  18.721   4.015  0.00  0.00     0.183 C 
HETATM    4  C   UNK N   1      23.097  18.926   3.888  0.00  0.00     0.204 C 
HETATM    5  C   UNK N   1      23.370  20.370   3.363  0.00  0.00     0.291 C 
HETATM    6  O   UNK N   1      22.746  20.554   2.104  0.00  0.00    -0.348 OA
ENDROOT
BRANCH   5   7
HETATM    7  O   UNK N   1      24.729  20.762   3.257  0.00  0.00    -0.358 OA
BRANCH   7   8
HETATM    8  C   UNK N   1      25.574  19.676   2.975  0.00  0.00     0.173 C 
BRANCH   8   9
HETATM    9  C   UNK N   1      26.900  19.828   3.720  0.00  0.00     0.060 C 
BRANCH   9  10
HETATM   10  C   UNK N   1      26.792  20.760   4.922  0.00  0.00     0.147 A 
HETATM   11  C   UNK N   1      27.556  20.338   6.111  0.00  0.00     0.200 A 
HETATM   12  O   UNK N   1      26.166  20.130   6.011  0.00  0.00    -0.381 OA
ENDBRANCH   9  10
ENDBRANCH   8   9
ENDBRANCH   7   8
ENDBRANCH   5   7
BRANCH   4  13
HETATM   13  O   UNK N   1      23.708  18.722   5.128  0.00  0.00    -0.388 OA
HETATM   14  H   UNK N   1      23.398  18.055   5.760  0.00  0.00     0.210 HD
ENDBRANCH   4  13
BRANCH   3  15
HETATM   15  O   UNK N   1      21.075  19.539   5.033  0.00  0.00    -0.390 OA
HETATM   16  H   UNK N   1      20.929  20.060   5.838  0.00  0.00     0.210 HD
ENDBRANCH   3  15
BRANCH   1  17
HETATM   17  C   UNK N   1      20.741  20.858   0.876  0.00  0.00     0.198 C 
BRANCH  17  18
HETATM   18  O   UNK N   1      20.594  19.726   0.073  0.00  0.00    -0.398 OA
HETATM   19  H   UNK N   1      21.322  19.196  -0.289  0.00  0.00     0.209 HD
ENDBRANCH  17  18
ENDBRANCH   1  17
BRANCH   2  20
HETATM   20  O   UNK N   1      19.517  18.992   2.821  0.00  0.00    -0.390 OA
HETATM   21  H   UNK N   1      19.007  18.211   2.558  0.00  0.00     0.210 HD
ENDBRANCH   2  20
TORSDOF 9
ENDMDL
MODEL 6
REMARK VINA RESULT:      -5.0     12.583     15.143
REMARK  9 active torsions:
REMARK  status: ('A' for Active; 'I' for Inactive)
REMARK    1  A    between atoms: C_2  and  C_1 
REMARK    2  A    between atoms: C_5  and  C_1 
REMARK    3  A    between atoms: O_15  and  C_2 
REMARK    4  A    between atoms: C_6  and  C_3 
REMARK    5  A    between atoms: O_11  and  C_3 
REMARK    6  A    between atoms: C_7  and  O_12 
REMARK    7  A    between atoms: C_8  and  O_13 
REMARK    8  A    between atoms: C_9  and  O_14 
REMARK    9  A    between atoms: C_10  and  O_15 
ROOT
HETATM    1  C   UNK N   1      22.427  19.085   3.893  0.00  0.00     0.179 C 
HETATM    2  C   UNK N   1      22.111  20.047   2.719  0.00  0.00     0.180 C 
HETATM    3  C   UNK N   1      20.591  20.243   2.600  0.00  0.00     0.183 C 
HETATM    4  C   UNK N   1      19.907  18.870   2.510  0.00  0.00     0.204 C 
HETATM    5  C   UNK N   1      20.376  17.992   3.711  0.00  0.00     0.291 C 
HETATM    6  O   UNK N   1      21.785  17.839   3.679  0.00  0.00    -0.348 OA
ENDROOT
BRANCH   5   7
HETATM    7  O   UNK N   1      19.784  16.709   3.831  0.00  0.00    -0.358 OA
BRANCH   7   8
HETATM    8  C   UNK N   1      20.433  15.911   4.787  0.00  0.00     0.173 C 
BRANCH   8   9
HETATM    9  C   UNK N   1      19.822  16.139   6.170  0.00  0.00     0.060 C 
BRANCH   9  10
HETATM   10  C   UNK N   1      20.864  16.537   7.211  0.00  0.00     0.147 A 
HETATM   11  C   UNK N   1      20.382  16.547   8.605  0.00  0.00     0.200 A 
HETATM   12  O   UNK N   1      20.518  17.735   7.858  0.00  0.00    -0.381 OA
ENDBRANCH   9  10
ENDBRANCH   8   9
ENDBRANCH   7   8
ENDBRANCH   5   7
BRANCH   4  13
HETATM   13  O   UNK N   1      18.520  19.030   2.521  0.00  0.00    -0.388 OA
HETATM   14  H   UNK N   1      18.025  19.359   1.754  0.00  0.00     0.210 HD
ENDBRANCH   4  13
BRANCH   3  15
HETATM   15  O   UNK N   1      20.112  20.937   3.718  0.00  0.00    -0.390 OA
HETATM   16  H   UNK N   1      19.851  21.229   4.605  0.00  0.00     0.210 HD
ENDBRANCH   3  15
BRANCH   1  17
HETATM   17  C   UNK N   1      23.924  18.810   3.999  0.00  0.00     0.198 C 
BRANCH  17  18
HETATM   18  O   UNK N   1      24.317  18.671   5.332  0.00  0.00    -0.398 OA
HETATM   19  H   UNK N   1      24.556  17.835   5.762  0.00  0.00     0.209 HD
ENDBRANCH  17  18
ENDBRANCH   1  17
BRANCH   2  20
HETATM   20  O   UNK N   1      22.728  21.288   2.907  0.00  0.00    -0.390 OA
HETATM   21  H   UNK N   1      22.938  21.644   3.784  0.00  0.00     0.210 HD
ENDBRANCH   2  20
TORSDOF 9
ENDMDL
MODEL 7
REMARK VINA RESULT:      -4.9     13.535     15.667
REMARK  9 active torsions:
REMARK  status: ('A' for Active; 'I' for Inactive)
REMARK    1  A    between atoms: C_2  and  C_1 
REMARK    2  A    between atoms: C_5  and  C_1 
REMARK    3  A    between atoms: O_15  and  C_2 
REMARK    4  A    between atoms: C_6  and  C_3 
REMARK    5  A    between atoms: O_11  and  C_3 
REMARK    6  A    between atoms: C_7  and  O_12 
REMARK    7  A    between atoms: C_8  and  O_13 
REMARK    8  A    between atoms: C_9  and  O_14 
REMARK    9  A    between atoms: C_10  and  O_15 
ROOT
HETATM    1  C   UNK N   1      22.843  19.670   3.549  0.00  0.00     0.179 C 
HETATM    2  C   UNK N   1      21.974  20.470   2.546  0.00  0.00     0.180 C 
HETATM    3  C   UNK N   1      20.493  20.103   2.730  0.00  0.00     0.183 C 
HETATM    4  C   UNK N   1      20.334  18.577   2.646  0.00  0.00     0.204 C 
HETATM    5  C   UNK N   1      21.319  17.909   3.655  0.00  0.00     0.291 C 
HETATM    6  O   UNK N   1      22.652  18.279   3.347  0.00  0.00    -0.348 OA
ENDROOT
BRANCH   5   7
HETATM    7  O   UNK N   1      21.255  16.497   3.768  0.00  0.00    -0.358 OA
BRANCH   7   8
HETATM    8  C   UNK N   1      22.087  15.852   2.838  0.00  0.00     0.173 C 
BRANCH   8   9
HETATM    9  C   UNK N   1      21.364  14.656   2.220  0.00  0.00     0.060 C 
BRANCH   9  10
HETATM   10  C   UNK N   1      19.861  14.884   2.090  0.00  0.00     0.147 A 
HETATM   11  C   UNK N   1      19.246  14.319   0.874  0.00  0.00     0.200 A 
HETATM   12  O   UNK N   1      19.554  15.690   0.982  0.00  0.00    -0.381 OA
ENDBRANCH   9  10
ENDBRANCH   8   9
ENDBRANCH   7   8
ENDBRANCH   5   7
BRANCH   4  13
HETATM   13  O   UNK N   1      19.013  18.222   2.929  0.00  0.00    -0.388 OA
HETATM   14  H   UNK N   1      18.397  18.818   3.383  0.00  0.00     0.210 HD
ENDBRANCH   4  13
BRANCH   3  15
HETATM   15  O   UNK N   1      20.042  20.557   3.975  0.00  0.00    -0.390 OA
HETATM   16  H   UNK N   1      19.941  20.811   4.906  0.00  0.00     0.210 HD
ENDBRANCH   3  15
BRANCH   1  17
HETATM   17  C   UNK N   1      24.330  19.955   3.350  0.00  0.00     0.198 C 
BRANCH  17  18
HETATM   18  O   UNK N   1      24.545  20.731   2.210  0.00  0.00    -0.398 OA
HETATM   19  H   UNK N   1      24.836  20.394   1.348  0.00  0.00     0.209 HD
ENDBRANCH  17  18
ENDBRANCH   1  17
BRANCH   2  20
HETATM   20  O   UNK N   1      22.140  21.847   2.726  0.00  0.00    -0.390 OA
HETATM   21  H   UNK N   1      23.010  22.269   2.798  0.00  0.00     0.210 HD
ENDBRANCH   2  20
TORSDOF 9
ENDMDL
MODEL 8
REMARK VINA RESULT:      -4.6      4.735      6.985
REMARK  9 active torsions:
REMARK  status: ('A' for Active; 'I' for Inactive)
REMARK    1  A    between atoms: C_2  and  C_1 
REMARK    2  A    between atoms: C_5  and  C_1 
REMARK    3  A    between atoms: O_15  and  C_2 
REMARK    4  A    between atoms: C_6  and  C_3 
REMARK    5  A    between atoms: O_11  and  C_3 
REMARK    6  A    between atoms: C_7  and  O_12 
REMARK    7  A    between atoms: C_8  and  O_13 
REMARK    8  A    between atoms: C_9  and  O_14 
REMARK    9  A    between atoms: C_10  and  O_15 
ROOT
HETATM    1  C   UNK N   1      28.734  18.327   7.290  0.00  0.00     0.179 C 
HETATM    2  C   UNK N   1      28.384  17.542   8.580  0.00  0.00     0.180 C 
HETATM    3  C   UNK N   1      29.641  17.380   9.450  0.00  0.00     0.183 C 
HETATM    4  C   UNK N   1      30.767  16.763   8.605  0.00  0.00     0.204 C 
HETATM    5  C   UNK N   1      30.954  17.616   7.311  0.00  0.00     0.291 C 
HETATM    6  O   UNK N   1      29.746  17.642   6.570  0.00  0.00    -0.348 OA
ENDROOT
BRANCH   5   7
HETATM    7  O   UNK N   1      32.009  17.234   6.445  0.00  0.00    -0.358 OA
BRANCH   7   8
HETATM    8  C   UNK N   1      31.580  17.095   5.115  0.00  0.00     0.173 C 
BRANCH   8   9
HETATM    9  C   UNK N   1      32.783  17.021   4.175  0.00  0.00     0.060 C 
BRANCH   9  10
HETATM   10  C   UNK N   1      32.540  16.098   2.986  0.00  0.00     0.147 A 
HETATM   11  C   UNK N   1      33.252  14.806   3.041  0.00  0.00     0.200 A 
HETATM   12  O   UNK N   1      33.718  15.877   2.252  0.00  0.00    -0.381 OA
ENDBRANCH   9  10
ENDBRANCH   8   9
ENDBRANCH   7   8
ENDBRANCH   5   7
BRANCH   4  13
HETATM   13  O   UNK N   1      31.948  16.721   9.349  0.00  0.00    -0.388 OA
HETATM   14  H   UNK N   1      32.819  16.899   8.960  0.00  0.00     0.210 HD
ENDBRANCH   4  13
BRANCH   3  15
HETATM   15  O   UNK N   1      30.045  18.629   9.937  0.00  0.00    -0.390 OA
HETATM   16  H   UNK N   1      30.417  19.368  10.443  0.00  0.00     0.210 HD
ENDBRANCH   3  15
BRANCH   1  17
HETATM   17  C   UNK N   1      27.525  18.448   6.366  0.00  0.00     0.198 C 
BRANCH  17  18
HETATM   18  O   UNK N   1      26.694  17.331   6.475  0.00  0.00    -0.398 OA
HETATM   19  H   UNK N   1      26.615  16.624   5.816  0.00  0.00     0.209 HD
ENDBRANCH  17  18
ENDBRANCH   1  17
BRANCH   2  20
HETATM   20  O   UNK N   1      27.390  18.199   9.313  0.00  0.00    -0.390 OA
HETATM   21  H   UNK N   1      26.492  18.337   8.976  0.00  0.00     0.210 HD
ENDBRANCH   2  20
TORSDOF 9
ENDMDL
MODEL 9
REMARK VINA RESULT:      -4.6      1.922      5.174
REMARK  9 active torsions:
REMARK  status: ('A' for Active; 'I' for Inactive)
REMARK    1  A    between atoms: C_2  and  C_1 
REMARK    2  A    between atoms: C_5  and  C_1 
REMARK    3  A    between atoms: O_15  and  C_2 
REMARK    4  A    between atoms: C_6  and  C_3 
REMARK    5  A    between atoms: O_11  and  C_3 
REMARK    6  A    between atoms: C_7  and  O_12 
REMARK    7  A    between atoms: C_8  and  O_13 
REMARK    8  A    between atoms: C_9  and  O_14 
REMARK    9  A    between atoms: C_10  and  O_15 
ROOT
HETATM    1  C   UNK N   1      33.852  13.971   8.476  0.00  0.00     0.179 C 
HETATM    2  C   UNK N   1      34.598  13.562   9.770  0.00  0.00     0.180 C 
HETATM    3  C   UNK N   1      34.578  14.726  10.775  0.00  0.00     0.183 C 
HETATM    4  C   UNK N   1      35.117  15.993  10.094  0.00  0.00     0.204 C 
HETATM    5  C   UNK N   1      34.321  16.235   8.773  0.00  0.00     0.291 C 
HETATM    6  O   UNK N   1      34.464  15.119   7.911  0.00  0.00    -0.348 OA
ENDROOT
BRANCH   5   7
HETATM    7  O   UNK N   1      34.635  17.412   8.048  0.00  0.00    -0.358 OA
BRANCH   7   8
HETATM    8  C   UNK N   1      33.524  18.258   7.901  0.00  0.00     0.173 C 
BRANCH   8   9
HETATM    9  C   UNK N   1      32.243  17.525   8.301  0.00  0.00     0.060 C 
BRANCH   9  10
HETATM   10  C   UNK N   1      31.317  17.278   7.115  0.00  0.00     0.147 A 
HETATM   11  C   UNK N   1      31.051  15.859   6.814  0.00  0.00     0.200 A 
HETATM   12  O   UNK N   1      31.979  16.614   6.070  0.00  0.00    -0.381 OA
ENDBRANCH   9  10
ENDBRANCH   8   9
ENDBRANCH   7   8
ENDBRANCH   5   7
BRANCH   4  13
HETATM   13  O   UNK N   1      34.993  17.084  10.957  0.00  0.00    -0.388 OA
HETATM   14  H   UNK N   1      34.205  17.234  11.502  0.00  0.00     0.210 HD
ENDBRANCH   4  13
BRANCH   3  15
HETATM   15  O   UNK N   1      33.269  14.947  11.219  0.00  0.00    -0.390 OA
HETATM   16  H   UNK N   1      32.468  15.162  11.721  0.00  0.00     0.210 HD
ENDBRANCH   3  15
BRANCH   1  17
HETATM   17  C   UNK N   1      33.911  12.865   7.425  0.00  0.00     0.198 C 
BRANCH  17  18
HETATM   18  O   UNK N   1      32.917  11.909   7.644  0.00  0.00    -0.398 OA
HETATM   19  H   UNK N   1      32.065  12.075   8.077  0.00  0.00     0.209 HD
ENDBRANCH  17  18
ENDBRANCH   1  17
BRANCH   2  20
HETATM   20  O   UNK N   1      34.012  12.433  10.352  0.00  0.00    -0.390 OA
HETATM   21  H   UNK N   1      34.471  11.876  10.999  0.00  0.00     0.210 HD
ENDBRANCH   2  20
TORSDOF 9
ENDMDL
