MODEL 1
REMARK VINA RESULT:      -6.9      0.000      0.000
REMARK  5 active torsions:
REMARK  status: ('A' for Active; 'I' for Inactive)
REMARK    1  A    between atoms: C_10  and  C_9 
REMARK    2  A    between atoms: N_18  and  C_9 
REMARK    3  A    between atoms: C_15  and  C_13 
REMARK    4  A    between atoms: O_20  and  C_14 
REMARK    5  A    between atoms: C_15  and  O_21 
ROOT
HETATM    1  C   UNK N   1      27.349  24.521  -3.679  0.00  0.00     0.149 C 
HETATM    2  N   UNK N   1      28.440  24.221  -4.307  0.00  0.00    -0.362 N 
ATOM      3  HN  UNK N   1      28.676  24.771  -5.133  1.00  0.00     0.162 HD
ENDROOT
BRANCH   1   4
HETATM    4  C   UNK N   1      26.493  25.634  -4.148  0.00  0.00     0.050 A 
HETATM    5  C   UNK N   1      26.543  26.852  -3.457  0.00  0.00     0.060 A 
HETATM    6  C   UNK N   1      25.788  27.946  -3.884  0.00  0.00     0.117 A 
HETATM    7  C   UNK N   1      24.949  27.822  -4.992  0.00  0.00     0.045 A 
HETATM    8  F   UNK N   1      25.888  29.130  -3.236  0.00  0.00    -0.206 F 
HETATM    9  C   UNK N   1      24.868  26.608  -5.676  0.00  0.00     0.040 A 
HETATM   10  C   UNK N   1      25.642  25.515  -5.272  0.00  0.00     0.080 A 
BRANCH  10  11
HETATM   11  O   UNK N   1      25.536  24.355  -5.941  0.00  0.00    -0.360 OA
HETATM   12  H   UNK N   1      26.268  23.981  -6.390  0.00  0.00     0.217 HD
ENDBRANCH  10  11
ENDBRANCH   1   4
BRANCH   1  13
HETATM   13  O   UNK N   1      26.999  23.862  -2.550  0.00  0.00    -0.346 OA
HETATM   14  H   UNK N   1      27.334  23.179  -2.005  0.00  0.00     0.219 HD
ENDBRANCH   1  13
BRANCH   2  15
HETATM   15  C   UNK N   1      29.359  23.154  -3.923  0.00  0.00     0.113 C 
HETATM   16  C   UNK N   1      30.648  23.774  -3.399  0.00  0.00     0.037 C 
BRANCH  15  17
HETATM   17  C   UNK N   1      29.665  22.154  -5.031  0.00  0.00    -0.036 A 
HETATM   18  C   UNK N   1      28.936  22.216  -6.231  0.00  0.00     0.010 A 
HETATM   19  C   UNK N   1      29.141  21.267  -7.237  0.00  0.00     0.019 A 
HETATM   20  C   UNK N   1      30.081  20.250  -7.058  0.00  0.00     0.011 A 
HETATM   21  C   UNK N   1      30.837  20.197  -5.887  0.00  0.00     0.019 A 
HETATM   22 Br   UNK N   1      30.318  18.922  -8.405  0.00  0.00    -0.051 Br
HETATM   23  C   UNK N   1      30.634  21.145  -4.882  0.00  0.00     0.010 A 
ENDBRANCH  15  17
ENDBRANCH   2  15
TORSDOF 5
ENDMDL
MODEL 2
REMARK VINA RESULT:      -6.7     19.392     21.252
REMARK  5 active torsions:
REMARK  status: ('A' for Active; 'I' for Inactive)
REMARK    1  A    between atoms: C_10  and  C_9 
REMARK    2  A    between atoms: N_18  and  C_9 
REMARK    3  A    between atoms: C_15  and  C_13 
REMARK    4  A    between atoms: O_20  and  C_14 
REMARK    5  A    between atoms: C_15  and  O_21 
ROOT
HETATM    1  C   UNK N   1      35.938  15.188  10.733  0.00  0.00     0.149 C 
HETATM    2  N   UNK N   1      35.716  14.198  11.536  0.00  0.00    -0.362 N 
ATOM      3  HN  UNK N   1      34.785  13.783  11.528  1.00  0.00     0.162 HD
ENDROOT
BRANCH   1   4
HETATM    4  C   UNK N   1      34.871  15.679   9.832  0.00  0.00     0.050 A 
HETATM    5  C   UNK N   1      33.956  14.752   9.314  0.00  0.00     0.060 A 
HETATM    6  C   UNK N   1      32.906  15.169   8.494  0.00  0.00     0.117 A 
HETATM    7  C   UNK N   1      32.778  16.518   8.158  0.00  0.00     0.045 A 
HETATM    8  F   UNK N   1      32.000  14.269   8.045  0.00  0.00    -0.206 F 
HETATM    9  C   UNK N   1      33.698  17.450   8.644  0.00  0.00     0.040 A 
HETATM   10  C   UNK N   1      34.736  17.045   9.489  0.00  0.00     0.080 A 
BRANCH  10  11
HETATM   11  O   UNK N   1      35.613  17.960   9.933  0.00  0.00    -0.360 OA
HETATM   12  H   UNK N   1      35.326  18.765  10.317  0.00  0.00     0.217 HD
ENDBRANCH  10  11
ENDBRANCH   1   4
BRANCH   1  13
HETATM   13  O   UNK N   1      37.164  15.756  10.659  0.00  0.00    -0.346 OA
HETATM   14  H   UNK N   1      37.640  16.324  10.087  0.00  0.00     0.219 HD
ENDBRANCH   1  13
BRANCH   2  15
HETATM   15  C   UNK N   1      36.700  13.630  12.454  0.00  0.00     0.113 C 
HETATM   16  C   UNK N   1      37.098  12.246  11.959  0.00  0.00     0.037 C 
BRANCH  15  17
HETATM   17  C   UNK N   1      36.243  13.563  13.906  0.00  0.00    -0.036 A 
HETATM   18  C   UNK N   1      36.880  14.368  14.864  0.00  0.00     0.010 A 
HETATM   19  C   UNK N   1      36.535  14.274  16.216  0.00  0.00     0.019 A 
HETATM   20  C   UNK N   1      35.544  13.379  16.624  0.00  0.00     0.011 A 
HETATM   21  C   UNK N   1      34.878  12.598  15.679  0.00  0.00     0.019 A 
HETATM   22 Br   UNK N   1      35.114  13.209  18.473  0.00  0.00    -0.051 Br
HETATM   23  C   UNK N   1      35.221  12.692  14.329  0.00  0.00     0.010 A 
ENDBRANCH  15  17
ENDBRANCH   2  15
TORSDOF 5
ENDMDL
MODEL 3
REMARK VINA RESULT:      -6.6      4.077      7.286
REMARK  5 active torsions:
REMARK  status: ('A' for Active; 'I' for Inactive)
REMARK    1  A    between atoms: C_10  and  C_9 
REMARK    2  A    between atoms: N_18  and  C_9 
REMARK    3  A    between atoms: C_15  and  C_13 
REMARK    4  A    between atoms: O_20  and  C_14 
REMARK    5  A    between atoms: C_15  and  O_21 
ROOT
HETATM    1  C   UNK N   1      28.378  23.509  -3.331  0.00  0.00     0.149 C 
HETATM    2  N   UNK N   1      27.794  24.170  -4.278  0.00  0.00    -0.362 N 
ATOM      3  HN  UNK N   1      28.253  24.195  -5.188  1.00  0.00     0.162 HD
ENDROOT
BRANCH   1   4
HETATM    4  C   UNK N   1      29.659  22.809  -3.582  0.00  0.00     0.050 A 
HETATM    5  C   UNK N   1      29.906  22.310  -4.867  0.00  0.00     0.060 A 
HETATM    6  C   UNK N   1      31.115  21.680  -5.167  0.00  0.00     0.117 A 
HETATM    7  C   UNK N   1      32.080  21.515  -4.172  0.00  0.00     0.045 A 
HETATM    8  F   UNK N   1      31.360  21.251  -6.428  0.00  0.00    -0.206 F 
HETATM    9  C   UNK N   1      31.837  21.983  -2.879  0.00  0.00     0.040 A 
HETATM   10  C   UNK N   1      30.640  22.640  -2.577  0.00  0.00     0.080 A 
BRANCH  10  11
HETATM   11  O   UNK N   1      30.428  23.070  -1.322  0.00  0.00    -0.360 OA
HETATM   12  H   UNK N   1      31.058  23.601  -0.875  0.00  0.00     0.217 HD
ENDBRANCH  10  11
ENDBRANCH   1   4
BRANCH   1  13
HETATM   13  O   UNK N   1      27.803  23.395  -2.112  0.00  0.00    -0.346 OA
HETATM   14  H   UNK N   1      27.199  22.830  -1.671  0.00  0.00     0.219 HD
ENDBRANCH   1  13
BRANCH   2  15
HETATM   15  C   UNK N   1      26.528  24.883  -4.140  0.00  0.00     0.113 C 
HETATM   16  C   UNK N   1      25.544  24.350  -5.175  0.00  0.00     0.037 C 
BRANCH  15  17
HETATM   17  C   UNK N   1      26.641  26.399  -4.248  0.00  0.00    -0.036 A 
HETATM   18  C   UNK N   1      27.399  26.957  -5.291  0.00  0.00     0.010 A 
HETATM   19  C   UNK N   1      27.584  28.340  -5.374  0.00  0.00     0.019 A 
HETATM   20  C   UNK N   1      27.009  29.181  -4.420  0.00  0.00     0.011 A 
HETATM   21  C   UNK N   1      26.224  28.644  -3.398  0.00  0.00     0.019 A 
HETATM   22 Br   UNK N   1      27.309  31.062  -4.499  0.00  0.00    -0.051 Br
HETATM   23  C   UNK N   1      26.038  27.262  -3.315  0.00  0.00     0.010 A 
ENDBRANCH  15  17
ENDBRANCH   2  15
TORSDOF 5
ENDMDL
MODEL 4
REMARK VINA RESULT:      -6.5     19.212     21.029
REMARK  5 active torsions:
REMARK  status: ('A' for Active; 'I' for Inactive)
REMARK    1  A    between atoms: C_10  and  C_9 
REMARK    2  A    between atoms: N_18  and  C_9 
REMARK    3  A    between atoms: C_15  and  C_13 
REMARK    4  A    between atoms: O_20  and  C_14 
REMARK    5  A    between atoms: C_15  and  O_21 
ROOT
HETATM    1  C   UNK N   1      35.674  15.332  10.822  0.00  0.00     0.149 C 
HETATM    2  N   UNK N   1      35.550  14.172  11.383  0.00  0.00    -0.362 N 
ATOM      3  HN  UNK N   1      34.693  13.649  11.201  1.00  0.00     0.162 HD
ENDROOT
BRANCH   1   4
HETATM    4  C   UNK N   1      34.608  15.859   9.940  0.00  0.00     0.050 A 
HETATM    5  C   UNK N   1      34.767  17.139   9.392  0.00  0.00     0.060 A 
HETATM    6  C   UNK N   1      33.811  17.664   8.521  0.00  0.00     0.117 A 
HETATM    7  C   UNK N   1      32.667  16.926   8.214  0.00  0.00     0.045 A 
HETATM    8  F   UNK N   1      34.006  18.880   7.958  0.00  0.00    -0.206 F 
HETATM    9  C   UNK N   1      32.482  15.660   8.773  0.00  0.00     0.040 A 
HETATM   10  C   UNK N   1      33.447  15.114   9.625  0.00  0.00     0.080 A 
BRANCH  10  11
HETATM   11  O   UNK N   1      33.238  13.899  10.158  0.00  0.00    -0.360 OA
HETATM   12  H   UNK N   1      33.948  13.313  10.333  0.00  0.00     0.217 HD
ENDBRANCH  10  11
ENDBRANCH   1   4
BRANCH   1  13
HETATM   13  O   UNK N   1      36.804  16.058  10.982  0.00  0.00    -0.346 OA
HETATM   14  H   UNK N   1      37.357  16.617  10.473  0.00  0.00     0.219 HD
ENDBRANCH   1  13
BRANCH   2  15
HETATM   15  C   UNK N   1      36.544  13.555  12.257  0.00  0.00     0.113 C 
HETATM   16  C   UNK N   1      36.871  12.164  11.730  0.00  0.00     0.037 C 
BRANCH  15  17
HETATM   17  C   UNK N   1      36.137  13.485  13.724  0.00  0.00    -0.036 A 
HETATM   18  C   UNK N   1      36.817  14.278  14.662  0.00  0.00     0.010 A 
HETATM   19  C   UNK N   1      36.519  14.181  16.025  0.00  0.00     0.019 A 
HETATM   20  C   UNK N   1      35.533  13.294  16.463  0.00  0.00     0.011 A 
HETATM   21  C   UNK N   1      34.825  12.525  15.538  0.00  0.00     0.019 A 
HETATM   22 Br   UNK N   1      35.167  13.118  18.325  0.00  0.00    -0.051 Br
HETATM   23  C   UNK N   1      35.122  12.623  14.178  0.00  0.00     0.010 A 
ENDBRANCH  15  17
ENDBRANCH   2  15
TORSDOF 5
ENDMDL
MODEL 5
REMARK VINA RESULT:      -6.5     21.993     24.081
REMARK  5 active torsions:
REMARK  status: ('A' for Active; 'I' for Inactive)
REMARK    1  A    between atoms: C_10  and  C_9 
REMARK    2  A    between atoms: N_18  and  C_9 
REMARK    3  A    between atoms: C_15  and  C_13 
REMARK    4  A    between atoms: O_20  and  C_14 
REMARK    5  A    between atoms: C_15  and  O_21 
ROOT
HETATM    1  C   UNK N   1      36.390  13.922  12.692  0.00  0.00     0.149 C 
HETATM    2  N   UNK N   1      37.000  13.912  13.833  0.00  0.00    -0.362 N 
ATOM      3  HN  UNK N   1      37.972  13.605  13.846  1.00  0.00     0.162 HD
ENDROOT
BRANCH   1   4
HETATM    4  C   UNK N   1      37.098  13.511  11.457  0.00  0.00     0.050 A 
HETATM    5  C   UNK N   1      37.451  12.163  11.307  0.00  0.00     0.060 A 
HETATM    6  C   UNK N   1      38.081  11.717  10.145  0.00  0.00     0.117 A 
HETATM    7  C   UNK N   1      38.394  12.623   9.130  0.00  0.00     0.045 A 
HETATM    8  F   UNK N   1      38.368  10.402   9.994  0.00  0.00    -0.206 F 
HETATM    9  C   UNK N   1      38.073  13.974   9.276  0.00  0.00     0.040 A 
HETATM   10  C   UNK N   1      37.416  14.425  10.426  0.00  0.00     0.080 A 
BRANCH  10  11
HETATM   11  O   UNK N   1      37.129  15.732  10.545  0.00  0.00    -0.360 OA
HETATM   12  H   UNK N   1      37.805  16.377  10.609  0.00  0.00     0.217 HD
ENDBRANCH  10  11
ENDBRANCH   1   4
BRANCH   1  13
HETATM   13  O   UNK N   1      35.114  14.362  12.594  0.00  0.00    -0.346 OA
HETATM   14  H   UNK N   1      34.660  15.162  12.419  0.00  0.00     0.219 HD
ENDBRANCH   1  13
BRANCH   2  15
HETATM   15  C   UNK N   1      36.400  14.308  15.104  0.00  0.00     0.113 C 
HETATM   16  C   UNK N   1      37.336  15.281  15.811  0.00  0.00     0.037 C 
BRANCH  15  17
HETATM   17  C   UNK N   1      36.048  13.147  16.025  0.00  0.00    -0.036 A 
HETATM   18  C   UNK N   1      35.393  13.409  17.239  0.00  0.00     0.010 A 
HETATM   19  C   UNK N   1      35.124  12.374  18.140  0.00  0.00     0.019 A 
HETATM   20  C   UNK N   1      35.499  11.064  17.833  0.00  0.00     0.011 A 
HETATM   21  C   UNK N   1      36.119  10.784  16.615  0.00  0.00     0.019 A 
HETATM   22 Br   UNK N   1      35.184   9.663  19.086  0.00  0.00    -0.051 Br
HETATM   23  C   UNK N   1      36.387  11.817  15.714  0.00  0.00     0.010 A 
ENDBRANCH  15  17
ENDBRANCH   2  15
TORSDOF 5
ENDMDL
MODEL 6
REMARK VINA RESULT:      -6.4     17.713     19.486
REMARK  5 active torsions:
REMARK  status: ('A' for Active; 'I' for Inactive)
REMARK    1  A    between atoms: C_10  and  C_9 
REMARK    2  A    between atoms: N_18  and  C_9 
REMARK    3  A    between atoms: C_15  and  C_13 
REMARK    4  A    between atoms: O_20  and  C_14 
REMARK    5  A    between atoms: C_15  and  O_21 
ROOT
HETATM    1  C   UNK N   1      34.933  16.279   9.692  0.00  0.00     0.149 C 
HETATM    2  N   UNK N   1      35.351  15.094   9.999  0.00  0.00    -0.362 N 
ATOM      3  HN  UNK N   1      34.905  14.302   9.538  1.00  0.00     0.162 HD
ENDROOT
BRANCH   1   4
HETATM    4  C   UNK N   1      33.854  16.461   8.694  0.00  0.00     0.050 A 
HETATM    5  C   UNK N   1      34.146  17.160   7.514  0.00  0.00     0.060 A 
HETATM    6  C   UNK N   1      33.177  17.322   6.524  0.00  0.00     0.117 A 
HETATM    7  C   UNK N   1      31.892  16.812   6.717  0.00  0.00     0.045 A 
HETATM    8  F   UNK N   1      33.491  17.953   5.368  0.00  0.00    -0.206 F 
HETATM    9  C   UNK N   1      31.578  16.137   7.898  0.00  0.00     0.040 A 
HETATM   10  C   UNK N   1      32.551  15.946   8.884  0.00  0.00     0.080 A 
BRANCH  10  11
HETATM   11  O   UNK N   1      32.219  15.302  10.015  0.00  0.00    -0.360 OA
HETATM   12  H   UNK N   1      31.547  14.649  10.027  0.00  0.00     0.217 HD
ENDBRANCH  10  11
ENDBRANCH   1   4
BRANCH   1  13
HETATM   13  O   UNK N   1      35.512  17.377  10.231  0.00  0.00    -0.346 OA
HETATM   14  H   UNK N   1      35.566  18.296  10.062  0.00  0.00     0.219 HD
ENDBRANCH   1  13
BRANCH   2  15
HETATM   15  C   UNK N   1      36.414  14.805  10.958  0.00  0.00     0.113 C 
HETATM   16  C   UNK N   1      37.536  14.062  10.244  0.00  0.00     0.037 C 
BRANCH  15  17
HETATM   17  C   UNK N   1      35.961  14.026  12.187  0.00  0.00    -0.036 A 
HETATM   18  C   UNK N   1      36.386  14.444  13.458  0.00  0.00     0.010 A 
HETATM   19  C   UNK N   1      36.050  13.708  14.599  0.00  0.00     0.019 A 
HETATM   20  C   UNK N   1      35.279  12.550  14.481  0.00  0.00     0.011 A 
HETATM   21  C   UNK N   1      34.820  12.142  13.228  0.00  0.00     0.019 A 
HETATM   22 Br   UNK N   1      34.869  11.514  16.028  0.00  0.00    -0.051 Br
HETATM   23  C   UNK N   1      35.155  12.877  12.089  0.00  0.00     0.010 A 
ENDBRANCH  15  17
ENDBRANCH   2  15
TORSDOF 5
ENDMDL
MODEL 7
REMARK VINA RESULT:      -6.2     13.124     15.270
REMARK  5 active torsions:
REMARK  status: ('A' for Active; 'I' for Inactive)
REMARK    1  A    between atoms: C_10  and  C_9 
REMARK    2  A    between atoms: N_18  and  C_9 
REMARK    3  A    between atoms: C_15  and  C_13 
REMARK    4  A    between atoms: O_20  and  C_14 
REMARK    5  A    between atoms: C_15  and  O_21 
ROOT
HETATM    1  C   UNK N   1      31.043  17.468   8.329  0.00  0.00     0.149 C 
HETATM    2  N   UNK N   1      29.965  17.532   7.616  0.00  0.00    -0.362 N 
ATOM      3  HN  UNK N   1      29.895  16.913   6.809  1.00  0.00     0.162 HD
ENDROOT
BRANCH   1   4
HETATM    4  C   UNK N   1      32.121  16.516   7.978  0.00  0.00     0.050 A 
HETATM    5  C   UNK N   1      32.792  16.685   6.759  0.00  0.00     0.060 A 
HETATM    6  C   UNK N   1      33.843  15.840   6.400  0.00  0.00     0.117 A 
HETATM    7  C   UNK N   1      34.216  14.794   7.246  0.00  0.00     0.045 A 
HETATM    8  F   UNK N   1      34.515  16.051   5.244  0.00  0.00    -0.206 F 
HETATM    9  C   UNK N   1      33.540  14.596   8.452  0.00  0.00     0.040 A 
HETATM   10  C   UNK N   1      32.503  15.455   8.832  0.00  0.00     0.080 A 
BRANCH  10  11
HETATM   11  O   UNK N   1      31.863  15.234   9.992  0.00  0.00    -0.360 OA
HETATM   12  H   UNK N   1      31.017  14.833  10.014  0.00  0.00     0.217 HD
ENDBRANCH  10  11
ENDBRANCH   1   4
BRANCH   1  13
HETATM   13  O   UNK N   1      31.183  18.228   9.440  0.00  0.00    -0.346 OA
HETATM   14  H   UNK N   1      30.903  19.063   9.758  0.00  0.00     0.219 HD
ENDBRANCH   1  13
BRANCH   2  15
HETATM   15  C   UNK N   1      28.840  18.424   7.881  0.00  0.00     0.113 C 
HETATM   16  C   UNK N   1      27.844  17.710   8.786  0.00  0.00     0.037 C 
BRANCH  15  17
HETATM   17  C   UNK N   1      28.141  18.948   6.633  0.00  0.00    -0.036 A 
HETATM   18  C   UNK N   1      27.424  20.153   6.702  0.00  0.00     0.010 A 
HETATM   19  C   UNK N   1      26.710  20.622   5.595  0.00  0.00     0.019 A 
HETATM   20  C   UNK N   1      26.711  19.893   4.403  0.00  0.00     0.011 A 
HETATM   21  C   UNK N   1      27.448  18.712   4.309  0.00  0.00     0.019 A 
HETATM   22 Br   UNK N   1      25.691  20.501   2.913  0.00  0.00    -0.051 Br
HETATM   23  C   UNK N   1      28.162  18.244   5.414  0.00  0.00     0.010 A 
ENDBRANCH  15  17
ENDBRANCH   2  15
TORSDOF 5
ENDMDL
MODEL 8
REMARK VINA RESULT:      -6.1      4.032      7.200
REMARK  5 active torsions:
REMARK  status: ('A' for Active; 'I' for Inactive)
REMARK    1  A    between atoms: C_10  and  C_9 
REMARK    2  A    between atoms: N_18  and  C_9 
REMARK    3  A    between atoms: C_15  and  C_13 
REMARK    4  A    between atoms: O_20  and  C_14 
REMARK    5  A    between atoms: C_15  and  O_21 
ROOT
HETATM    1  C   UNK N   1      26.916  23.434  -6.754  0.00  0.00     0.149 C 
HETATM    2  N   UNK N   1      26.926  24.399  -7.617  0.00  0.00    -0.362 N 
ATOM      3  HN  UNK N   1      27.717  24.452  -8.257  1.00  0.00     0.162 HD
ENDROOT
BRANCH   1   4
HETATM    4  C   UNK N   1      28.016  22.444  -6.722  0.00  0.00     0.050 A 
HETATM    5  C   UNK N   1      28.931  22.497  -5.662  0.00  0.00     0.060 A 
HETATM    6  C   UNK N   1      29.961  21.560  -5.562  0.00  0.00     0.117 A 
HETATM    7  C   UNK N   1      30.105  20.576  -6.541  0.00  0.00     0.045 A 
HETATM    8  F   UNK N   1      30.805  21.594  -4.503  0.00  0.00    -0.206 F 
HETATM    9  C   UNK N   1      29.217  20.526  -7.618  0.00  0.00     0.040 A 
HETATM   10  C   UNK N   1      28.166  21.444  -7.711  0.00  0.00     0.080 A 
BRANCH  10  11
HETATM   11  O   UNK N   1      27.333  21.380  -8.763  0.00  0.00    -0.360 OA
HETATM   12  H   UNK N   1      26.949  22.152  -9.130  0.00  0.00     0.217 HD
ENDBRANCH  10  11
ENDBRANCH   1   4
BRANCH   1  13
HETATM   13  O   UNK N   1      25.874  23.277  -5.906  0.00  0.00    -0.346 OA
HETATM   14  H   UNK N   1      24.939  23.230  -5.944  0.00  0.00     0.219 HD
ENDBRANCH   1  13
BRANCH   2  15
HETATM   15  C   UNK N   1      25.888  25.418  -7.742  0.00  0.00     0.113 C 
HETATM   16  C   UNK N   1      25.876  25.940  -9.173  0.00  0.00     0.037 C 
BRANCH  15  17
HETATM   17  C   UNK N   1      26.017  26.574  -6.758  0.00  0.00    -0.036 A 
HETATM   18  C   UNK N   1      27.100  27.460  -6.878  0.00  0.00     0.010 A 
HETATM   19  C   UNK N   1      27.288  28.485  -5.946  0.00  0.00     0.019 A 
HETATM   20  C   UNK N   1      26.390  28.641  -4.887  0.00  0.00     0.011 A 
HETATM   21  C   UNK N   1      25.290  27.790  -4.775  0.00  0.00     0.019 A 
HETATM   22 Br   UNK N   1      26.678  30.001  -3.584  0.00  0.00    -0.051 Br
HETATM   23  C   UNK N   1      25.101  26.767  -5.707  0.00  0.00     0.010 A 
ENDBRANCH  15  17
ENDBRANCH   2  15
TORSDOF 5
ENDMDL
MODEL 9
REMARK VINA RESULT:      -6.1     21.679     23.637
REMARK  5 active torsions:
REMARK  status: ('A' for Active; 'I' for Inactive)
REMARK    1  A    between atoms: C_10  and  C_9 
REMARK    2  A    between atoms: N_18  and  C_9 
REMARK    3  A    between atoms: C_15  and  C_13 
REMARK    4  A    between atoms: O_20  and  C_14 
REMARK    5  A    between atoms: C_15  and  O_21 
ROOT
HETATM    1  C   UNK N   1      36.273  13.928  14.550  0.00  0.00     0.149 C 
HETATM    2  N   UNK N   1      35.671  13.703  13.426  0.00  0.00    -0.362 N 
ATOM      3  HN  UNK N   1      34.993  12.942  13.398  1.00  0.00     0.162 HD
ENDROOT
BRANCH   1   4
HETATM    4  C   UNK N   1      35.966  13.108  15.744  0.00  0.00     0.050 A 
HETATM    5  C   UNK N   1      35.552  13.760  16.914  0.00  0.00     0.060 A 
HETATM    6  C   UNK N   1      35.210  13.031  18.053  0.00  0.00     0.117 A 
HETATM    7  C   UNK N   1      35.309  11.639  18.045  0.00  0.00     0.045 A 
HETATM    8  F   UNK N   1      34.761  13.674  19.157  0.00  0.00    -0.206 F 
HETATM    9  C   UNK N   1      35.745  10.976  16.897  0.00  0.00     0.040 A 
HETATM   10  C   UNK N   1      36.064  11.697  15.741  0.00  0.00     0.080 A 
BRANCH  10  11
HETATM   11  O   UNK N   1      36.492  11.034  14.654  0.00  0.00    -0.360 OA
HETATM   12  H   UNK N   1      37.302  11.251  14.237  0.00  0.00     0.217 HD
ENDBRANCH  10  11
ENDBRANCH   1   4
BRANCH   1  13
HETATM   13  O   UNK N   1      37.149  14.951  14.671  0.00  0.00    -0.346 OA
HETATM   14  H   UNK N   1      37.143  15.887  14.642  0.00  0.00     0.219 HD
ENDBRANCH   1  13
BRANCH   2  15
HETATM   15  C   UNK N   1      35.890  14.457  12.196  0.00  0.00     0.113 C 
HETATM   16  C   UNK N   1      34.550  14.683  11.508  0.00  0.00     0.037 C 
BRANCH  15  17
HETATM   17  C   UNK N   1      36.880  13.817  11.230  0.00  0.00    -0.036 A 
HETATM   18  C   UNK N   1      37.306  12.498  11.459  0.00  0.00     0.010 A 
HETATM   19  C   UNK N   1      38.270  11.909  10.635  0.00  0.00     0.019 A 
HETATM   20  C   UNK N   1      38.813  12.629   9.569  0.00  0.00     0.011 A 
HETATM   21  C   UNK N   1      38.373  13.927   9.308  0.00  0.00     0.019 A 
HETATM   22 Br   UNK N   1      40.168  11.847   8.481  0.00  0.00    -0.051 Br
HETATM   23  C   UNK N   1      37.410  14.516  10.130  0.00  0.00     0.010 A 
ENDBRANCH  15  17
ENDBRANCH   2  15
TORSDOF 5
ENDMDL
