MODEL 1
REMARK VINA RESULT:      -4.6      0.000      0.000
REMARK  18 active torsions:
REMARK  status: ('A' for Active; 'I' for Inactive)
REMARK    1  A    between atoms: C_2  and  C_3 
REMARK    2  A    between atoms: C_3  and  C_4 
REMARK    3  A    between atoms: C_4  and  C_5 
REMARK    4  A    between atoms: C_5  and  C_6 
REMARK    5  A    between atoms: C_6  and  C_7 
REMARK    6  A    between atoms: C_7  and  C_8 
REMARK    7  A    between atoms: C_8  and  C_9 
REMARK    8  A    between atoms: C_9  and  C_10 
REMARK    9  A    between atoms: C_10  and  C_11 
REMARK   10  A    between atoms: C_11  and  C_12 
REMARK   11  A    between atoms: C_12  and  C_13 
REMARK   12  A    between atoms: C_13  and  C_14 
REMARK   13  A    between atoms: C_14  and  C_15 
REMARK   14  A    between atoms: C_15  and  C_16 
REMARK   15  A    between atoms: C_16  and  S_18 
REMARK   16  A    between atoms: S_18  and  C_19 
REMARK   17  A    between atoms: C_19  and  C_20 
REMARK   18  A    between atoms: C_20  and  N_21 
REMARK       I    between atoms: N_21  and  C_22 
ROOT
HETATM    1  C   UNK N   1      27.631  24.428  -4.475  0.00  0.00     0.000 C 
ENDROOT
BRANCH   1   2
HETATM    2  C   UNK N   1      26.229  24.972  -4.181  0.00  0.00     0.000 C 
BRANCH   2   3
HETATM    3  C   UNK N   1      25.426  25.307  -5.436  0.00  0.00     0.000 C 
BRANCH   3   4
HETATM    4  C   UNK N   1      24.996  26.763  -5.477  0.00  0.00     0.000 C 
BRANCH   4   5
HETATM    5  C   UNK N   1      25.636  27.550  -4.350  0.00  0.00     0.000 C 
BRANCH   5   6
HETATM    6  C   UNK N   1      26.450  28.694  -4.928  0.00  0.00     0.000 C 
BRANCH   6   7
HETATM    7  C   UNK N   1      27.705  28.186  -5.620  0.00  0.00     0.000 C 
BRANCH   7   8
HETATM    8  C   UNK N   1      28.070  29.025  -6.833  0.00  0.00     0.000 C 
BRANCH   8   9
HETATM    9  C   UNK N   1      28.530  28.135  -7.977  0.00  0.00     0.000 C 
BRANCH   9  10
HETATM   10  C   UNK N   1      27.823  26.799  -7.899  0.00  0.00     0.000 C 
BRANCH  10  11
HETATM   11  C   UNK N   1      27.174  26.498  -9.235  0.00  0.00    -0.000 C 
BRANCH  11  12
HETATM   12  C   UNK N   1      25.767  25.989  -9.018  0.00  0.00    -0.005 C 
HETATM   13  C   UNK N   1      25.640  24.606  -9.619  0.00  0.00     0.005 C 
ENDBRANCH  11  12
ENDBRANCH  10  11
ENDBRANCH   9  10
ENDBRANCH   8   9
ENDBRANCH   7   8
ENDBRANCH   6   7
ENDBRANCH   5   6
ENDBRANCH   4   5
ENDBRANCH   3   4
ENDBRANCH   2   3
ENDBRANCH   1   2
BRANCH   1  14
HETATM   14  C   UNK N   1      28.378  23.910  -3.239  0.00  0.00     0.008 C 
BRANCH  14  15
HETATM   15  C   UNK N   1      29.894  24.068  -3.334  0.00  0.00     0.091 C 
BRANCH  15  16
HETATM   16  C   UNK N   1      30.614  23.067  -2.495  0.00  0.00     0.186 C 
HETATM   17  O   UNK N   1      30.352  22.959  -1.306  0.00  0.00    -0.286 OA
BRANCH  16  18
HETATM   18  S   UNK N   1      31.863  22.022  -3.245  0.00  0.00    -0.091 SA
BRANCH  18  19
HETATM   19  C   UNK N   1      31.474  22.560  -4.937  0.00  0.00     0.102 C 
BRANCH  19  20
HETATM   20  C   UNK N   1      30.863  21.392  -5.695  0.00  0.00     0.133 C 
BRANCH  20  21
HETATM   21  N   UNK N   1      29.458  21.615  -5.944  0.00  0.00    -0.361 N 
HETATM   22  C   UNK N   1      28.983  22.065  -7.131  0.00  0.00     0.213 C 
HETATM   23  C   UNK N   1      27.520  22.253  -7.312  0.00  0.00     0.117 C 
HETATM   24  O   UNK N   1      29.744  22.312  -8.057  0.00  0.00    -0.274 OA
HETATM   25  H   UNK N   1      28.817  21.433  -5.220  0.00  0.00     0.162 HD
ENDBRANCH  20  21
ENDBRANCH  19  20
ENDBRANCH  18  19
ENDBRANCH  16  18
ENDBRANCH  15  16
ENDBRANCH  14  15
ENDBRANCH   1  14
TORSDOF 18
ENDMDL
MODEL 2
REMARK VINA RESULT:      -4.5      2.175      3.898
REMARK  18 active torsions:
REMARK  status: ('A' for Active; 'I' for Inactive)
REMARK    1  A    between atoms: C_2  and  C_3 
REMARK    2  A    between atoms: C_3  and  C_4 
REMARK    3  A    between atoms: C_4  and  C_5 
REMARK    4  A    between atoms: C_5  and  C_6 
REMARK    5  A    between atoms: C_6  and  C_7 
REMARK    6  A    between atoms: C_7  and  C_8 
REMARK    7  A    between atoms: C_8  and  C_9 
REMARK    8  A    between atoms: C_9  and  C_10 
REMARK    9  A    between atoms: C_10  and  C_11 
REMARK   10  A    between atoms: C_11  and  C_12 
REMARK   11  A    between atoms: C_12  and  C_13 
REMARK   12  A    between atoms: C_13  and  C_14 
REMARK   13  A    between atoms: C_14  and  C_15 
REMARK   14  A    between atoms: C_15  and  C_16 
REMARK   15  A    between atoms: C_16  and  S_18 
REMARK   16  A    between atoms: S_18  and  C_19 
REMARK   17  A    between atoms: C_19  and  C_20 
REMARK   18  A    between atoms: C_20  and  N_21 
REMARK       I    between atoms: N_21  and  C_22 
ROOT
HETATM    1  C   UNK N   1      29.055  27.772  -7.051  0.00  0.00     0.000 C 
ENDROOT
BRANCH   1   2
HETATM    2  C   UNK N   1      27.761  28.540  -6.761  0.00  0.00     0.000 C 
BRANCH   2   3
HETATM    3  C   UNK N   1      27.900  29.576  -5.648  0.00  0.00     0.000 C 
BRANCH   3   4
HETATM    4  C   UNK N   1      26.817  29.440  -4.591  0.00  0.00     0.000 C 
BRANCH   4   5
HETATM    5  C   UNK N   1      25.871  28.303  -4.927  0.00  0.00     0.000 C 
BRANCH   5   6
HETATM    6  C   UNK N   1      25.658  27.439  -3.697  0.00  0.00     0.000 C 
BRANCH   6   7
HETATM    7  C   UNK N   1      26.800  26.452  -3.509  0.00  0.00     0.000 C 
BRANCH   7   8
HETATM    8  C   UNK N   1      26.404  25.039  -3.902  0.00  0.00     0.000 C 
BRANCH   8   9
HETATM    9  C   UNK N   1      26.934  24.703  -5.287  0.00  0.00     0.000 C 
BRANCH   9  10
HETATM   10  C   UNK N   1      26.009  23.711  -5.959  0.00  0.00     0.000 C 
BRANCH  10  11
HETATM   11  C   UNK N   1      25.809  24.116  -7.406  0.00  0.00    -0.000 C 
BRANCH  11  12
HETATM   12  C   UNK N   1      25.754  25.624  -7.511  0.00  0.00    -0.005 C 
HETATM   13  C   UNK N   1      26.240  26.044  -8.882  0.00  0.00     0.005 C 
ENDBRANCH  11  12
ENDBRANCH  10  11
ENDBRANCH   9  10
ENDBRANCH   8   9
ENDBRANCH   7   8
ENDBRANCH   6   7
ENDBRANCH   5   6
ENDBRANCH   4   5
ENDBRANCH   3   4
ENDBRANCH   2   3
ENDBRANCH   1   2
BRANCH   1  14
HETATM   14  C   UNK N   1      30.073  27.798  -5.904  0.00  0.00     0.008 C 
BRANCH  14  15
HETATM   15  C   UNK N   1      29.859  26.690  -4.875  0.00  0.00     0.091 C 
BRANCH  15  16
HETATM   16  C   UNK N   1      31.098  26.405  -4.094  0.00  0.00     0.186 C 
HETATM   17  O   UNK N   1      31.169  26.721  -2.916  0.00  0.00    -0.286 OA
BRANCH  16  18
HETATM   18  S   UNK N   1      32.480  25.595  -4.899  0.00  0.00    -0.091 SA
BRANCH  18  19
HETATM   19  C   UNK N   1      31.469  24.223  -5.531  0.00  0.00     0.102 C 
BRANCH  19  20
HETATM   20  C   UNK N   1      31.405  23.132  -4.474  0.00  0.00     0.133 C 
BRANCH  20  21
HETATM   21  N   UNK N   1      30.112  23.110  -3.832  0.00  0.00    -0.361 N 
HETATM   22  C   UNK N   1      29.960  23.037  -2.487  0.00  0.00     0.213 C 
HETATM   23  C   UNK N   1      28.593  23.035  -1.902  0.00  0.00     0.117 C 
HETATM   24  O   UNK N   1      30.934  22.977  -1.748  0.00  0.00    -0.274 OA
HETATM   25  H   UNK N   1      29.306  23.150  -4.395  0.00  0.00     0.162 HD
ENDBRANCH  20  21
ENDBRANCH  19  20
ENDBRANCH  18  19
ENDBRANCH  16  18
ENDBRANCH  15  16
ENDBRANCH  14  15
ENDBRANCH   1  14
TORSDOF 18
ENDMDL
MODEL 3
REMARK VINA RESULT:      -4.5     15.452     18.167
REMARK  18 active torsions:
REMARK  status: ('A' for Active; 'I' for Inactive)
REMARK    1  A    between atoms: C_2  and  C_3 
REMARK    2  A    between atoms: C_3  and  C_4 
REMARK    3  A    between atoms: C_4  and  C_5 
REMARK    4  A    between atoms: C_5  and  C_6 
REMARK    5  A    between atoms: C_6  and  C_7 
REMARK    6  A    between atoms: C_7  and  C_8 
REMARK    7  A    between atoms: C_8  and  C_9 
REMARK    8  A    between atoms: C_9  and  C_10 
REMARK    9  A    between atoms: C_10  and  C_11 
REMARK   10  A    between atoms: C_11  and  C_12 
REMARK   11  A    between atoms: C_12  and  C_13 
REMARK   12  A    between atoms: C_13  and  C_14 
REMARK   13  A    between atoms: C_14  and  C_15 
REMARK   14  A    between atoms: C_15  and  C_16 
REMARK   15  A    between atoms: C_16  and  S_18 
REMARK   16  A    between atoms: S_18  and  C_19 
REMARK   17  A    between atoms: C_19  and  C_20 
REMARK   18  A    between atoms: C_20  and  N_21 
REMARK       I    between atoms: N_21  and  C_22 
ROOT
HETATM    1  C   UNK N   1      20.244  15.278   8.006  0.00  0.00     0.000 C 
ENDROOT
BRANCH   1   2
HETATM    2  C   UNK N   1      20.154  14.691   9.418  0.00  0.00     0.000 C 
BRANCH   2   3
HETATM    3  C   UNK N   1      21.405  13.927   9.845  0.00  0.00     0.000 C 
BRANCH   3   4
HETATM    4  C   UNK N   1      21.077  12.611  10.530  0.00  0.00     0.000 C 
BRANCH   4   5
HETATM    5  C   UNK N   1      22.185  12.204  11.482  0.00  0.00     0.000 C 
BRANCH   5   6
HETATM    6  C   UNK N   1      23.279  11.487  10.709  0.00  0.00     0.000 C 
BRANCH   6   7
HETATM    7  C   UNK N   1      24.563  12.300  10.685  0.00  0.00     0.000 C 
BRANCH   7   8
HETATM    8  C   UNK N   1      24.877  12.834   9.298  0.00  0.00     0.000 C 
BRANCH   8   9
HETATM    9  C   UNK N   1      24.151  12.020   8.238  0.00  0.00     0.000 C 
BRANCH   9  10
HETATM   10  C   UNK N   1      24.412  12.616   6.871  0.00  0.00     0.000 C 
BRANCH  10  11
HETATM   11  C   UNK N   1      23.285  12.230   5.935  0.00  0.00    -0.000 C 
BRANCH  11  12
HETATM   12  C   UNK N   1      22.287  11.360   6.667  0.00  0.00    -0.005 C 
HETATM   13  C   UNK N   1      20.885  11.828   6.341  0.00  0.00     0.005 C 
ENDBRANCH  11  12
ENDBRANCH  10  11
ENDBRANCH   9  10
ENDBRANCH   8   9
ENDBRANCH   7   8
ENDBRANCH   6   7
ENDBRANCH   5   6
ENDBRANCH   4   5
ENDBRANCH   3   4
ENDBRANCH   2   3
ENDBRANCH   1   2
BRANCH   1  14
HETATM   14  C   UNK N   1      21.645  15.210   7.384  0.00  0.00     0.008 C 
BRANCH  14  15
HETATM   15  C   UNK N   1      21.669  15.557   5.897  0.00  0.00     0.091 C 
BRANCH  15  16
HETATM   16  C   UNK N   1      22.942  16.223   5.498  0.00  0.00     0.186 C 
HETATM   17  O   UNK N   1      23.978  15.978   6.098  0.00  0.00    -0.286 OA
BRANCH  16  18
HETATM   18  S   UNK N   1      22.940  17.385   4.132  0.00  0.00    -0.091 SA
BRANCH  18  19
HETATM   19  C   UNK N   1      21.835  16.369   3.108  0.00  0.00     0.102 C 
BRANCH  19  20
HETATM   20  C   UNK N   1      20.740  17.256   2.537  0.00  0.00     0.133 C 
BRANCH  20  21
HETATM   21  N   UNK N   1      19.810  16.485   1.746  0.00  0.00    -0.361 N 
HETATM   22  C   UNK N   1      19.686  16.633   0.405  0.00  0.00     0.213 C 
HETATM   23  C   UNK N   1      18.715  15.788  -0.340  0.00  0.00     0.117 C 
HETATM   24  O   UNK N   1      20.366  17.450  -0.202  0.00  0.00    -0.274 OA
HETATM   25  H   UNK N   1      19.242  15.822   2.201  0.00  0.00     0.162 HD
ENDBRANCH  20  21
ENDBRANCH  19  20
ENDBRANCH  18  19
ENDBRANCH  16  18
ENDBRANCH  15  16
ENDBRANCH  14  15
ENDBRANCH   1  14
TORSDOF 18
ENDMDL
MODEL 4
REMARK VINA RESULT:      -4.5     15.186     18.082
REMARK  18 active torsions:
REMARK  status: ('A' for Active; 'I' for Inactive)
REMARK    1  A    between atoms: C_2  and  C_3 
REMARK    2  A    between atoms: C_3  and  C_4 
REMARK    3  A    between atoms: C_4  and  C_5 
REMARK    4  A    between atoms: C_5  and  C_6 
REMARK    5  A    between atoms: C_6  and  C_7 
REMARK    6  A    between atoms: C_7  and  C_8 
REMARK    7  A    between atoms: C_8  and  C_9 
REMARK    8  A    between atoms: C_9  and  C_10 
REMARK    9  A    between atoms: C_10  and  C_11 
REMARK   10  A    between atoms: C_11  and  C_12 
REMARK   11  A    between atoms: C_12  and  C_13 
REMARK   12  A    between atoms: C_13  and  C_14 
REMARK   13  A    between atoms: C_14  and  C_15 
REMARK   14  A    between atoms: C_15  and  C_16 
REMARK   15  A    between atoms: C_16  and  S_18 
REMARK   16  A    between atoms: S_18  and  C_19 
REMARK   17  A    between atoms: C_19  and  C_20 
REMARK   18  A    between atoms: C_20  and  N_21 
REMARK       I    between atoms: N_21  and  C_22 
ROOT
HETATM    1  C   UNK N   1      19.963  15.732   8.256  0.00  0.00     0.000 C 
ENDROOT
BRANCH   1   2
HETATM    2  C   UNK N   1      19.883  14.730   9.413  0.00  0.00     0.000 C 
BRANCH   2   3
HETATM    3  C   UNK N   1      21.223  14.083   9.757  0.00  0.00     0.000 C 
BRANCH   3   4
HETATM    4  C   UNK N   1      21.060  12.700  10.363  0.00  0.00     0.000 C 
BRANCH   4   5
HETATM    5  C   UNK N   1      22.269  12.330  11.202  0.00  0.00     0.000 C 
BRANCH   5   6
HETATM    6  C   UNK N   1      23.191  11.433  10.394  0.00  0.00     0.000 C 
BRANCH   6   7
HETATM    7  C   UNK N   1      24.306  12.233   9.739  0.00  0.00     0.000 C 
BRANCH   7   8
HETATM    8  C   UNK N   1      24.202  12.226   8.224  0.00  0.00     0.000 C 
BRANCH   8   9
HETATM    9  C   UNK N   1      23.834  10.838   7.722  0.00  0.00     0.000 C 
BRANCH   9  10
HETATM   10  C   UNK N   1      22.710  10.944   6.714  0.00  0.00     0.000 C 
BRANCH  10  11
HETATM   11  C   UNK N   1      22.217  12.376   6.663  0.00  0.00    -0.000 C 
BRANCH  11  12
HETATM   12  C   UNK N   1      20.716  12.394   6.489  0.00  0.00    -0.005 C 
HETATM   13  C   UNK N   1      20.380  12.965   5.128  0.00  0.00     0.005 C 
ENDBRANCH  11  12
ENDBRANCH  10  11
ENDBRANCH   9  10
ENDBRANCH   8   9
ENDBRANCH   7   8
ENDBRANCH   6   7
ENDBRANCH   5   6
ENDBRANCH   4   5
ENDBRANCH   3   4
ENDBRANCH   2   3
ENDBRANCH   1   2
BRANCH   1  14
HETATM   14  C   UNK N   1      21.370  15.905   7.670  0.00  0.00     0.008 C 
BRANCH  14  15
HETATM   15  C   UNK N   1      21.371  16.377   6.217  0.00  0.00     0.091 C 
BRANCH  15  16
HETATM   16  C   UNK N   1      21.687  17.830   6.101  0.00  0.00     0.186 C 
HETATM   17  O   UNK N   1      21.242  18.623   6.917  0.00  0.00    -0.286 OA
BRANCH  16  18
HETATM   18  S   UNK N   1      22.727  18.402   4.757  0.00  0.00    -0.091 SA
BRANCH  18  19
HETATM   19  C   UNK N   1      23.894  17.016   4.905  0.00  0.00     0.102 C 
BRANCH  19  20
HETATM   20  C   UNK N   1      25.309  17.544   4.733  0.00  0.00     0.133 C 
BRANCH  20  21
HETATM   21  N   UNK N   1      25.497  18.767   5.476  0.00  0.00    -0.361 N 
HETATM   22  C   UNK N   1      26.365  19.735   5.092  0.00  0.00     0.213 C 
HETATM   23  C   UNK N   1      26.489  20.974   5.905  0.00  0.00     0.117 C 
HETATM   24  O   UNK N   1      27.044  19.604   4.083  0.00  0.00    -0.274 OA
HETATM   25  H   UNK N   1      24.973  18.905   6.297  0.00  0.00     0.162 HD
ENDBRANCH  20  21
ENDBRANCH  19  20
ENDBRANCH  18  19
ENDBRANCH  16  18
ENDBRANCH  15  16
ENDBRANCH  14  15
ENDBRANCH   1  14
TORSDOF 18
ENDMDL
MODEL 5
REMARK VINA RESULT:      -4.4      3.827      6.847
REMARK  18 active torsions:
REMARK  status: ('A' for Active; 'I' for Inactive)
REMARK    1  A    between atoms: C_2  and  C_3 
REMARK    2  A    between atoms: C_3  and  C_4 
REMARK    3  A    between atoms: C_4  and  C_5 
REMARK    4  A    between atoms: C_5  and  C_6 
REMARK    5  A    between atoms: C_6  and  C_7 
REMARK    6  A    between atoms: C_7  and  C_8 
REMARK    7  A    between atoms: C_8  and  C_9 
REMARK    8  A    between atoms: C_9  and  C_10 
REMARK    9  A    between atoms: C_10  and  C_11 
REMARK   10  A    between atoms: C_11  and  C_12 
REMARK   11  A    between atoms: C_12  and  C_13 
REMARK   12  A    between atoms: C_13  and  C_14 
REMARK   13  A    between atoms: C_14  and  C_15 
REMARK   14  A    between atoms: C_15  and  C_16 
REMARK   15  A    between atoms: C_16  and  S_18 
REMARK   16  A    between atoms: S_18  and  C_19 
REMARK   17  A    between atoms: C_19  and  C_20 
REMARK   18  A    between atoms: C_20  and  N_21 
REMARK       I    between atoms: N_21  and  C_22 
ROOT
HETATM    1  C   UNK N   1      25.447  25.796  -6.349  0.00  0.00     0.000 C 
ENDROOT
BRANCH   1   2
HETATM    2  C   UNK N   1      25.659  24.565  -5.461  0.00  0.00     0.000 C 
BRANCH   2   3
HETATM    3  C   UNK N   1      26.633  23.547  -6.049  0.00  0.00     0.000 C 
BRANCH   3   4
HETATM    4  C   UNK N   1      28.023  23.659  -5.448  0.00  0.00     0.000 C 
BRANCH   4   5
HETATM    5  C   UNK N   1      27.991  24.448  -4.152  0.00  0.00     0.000 C 
BRANCH   5   6
HETATM    6  C   UNK N   1      29.016  25.566  -4.214  0.00  0.00     0.000 C 
BRANCH   6   7
HETATM    7  C   UNK N   1      30.279  25.203  -3.449  0.00  0.00     0.000 C 
BRANCH   7   8
HETATM    8  C   UNK N   1      31.446  24.910  -4.376  0.00  0.00     0.000 C 
BRANCH   8   9
HETATM    9  C   UNK N   1      31.702  23.413  -4.454  0.00  0.00     0.000 C 
BRANCH   9  10
HETATM   10  C   UNK N   1      31.323  22.763  -3.140  0.00  0.00     0.000 C 
BRANCH  10  11
HETATM   11  C   UNK N   1      30.460  21.549  -3.415  0.00  0.00    -0.000 C 
BRANCH  11  12
HETATM   12  C   UNK N   1      30.737  21.030  -4.808  0.00  0.00    -0.005 C 
HETATM   13  C   UNK N   1      31.720  19.882  -4.725  0.00  0.00     0.005 C 
ENDBRANCH  11  12
ENDBRANCH  10  11
ENDBRANCH   9  10
ENDBRANCH   8   9
ENDBRANCH   7   8
ENDBRANCH   6   7
ENDBRANCH   5   6
ENDBRANCH   4   5
ENDBRANCH   3   4
ENDBRANCH   2   3
ENDBRANCH   1   2
BRANCH   1  14
HETATM   14  C   UNK N   1      25.009  27.054  -5.587  0.00  0.00     0.008 C 
BRANCH  14  15
HETATM   15  C   UNK N   1      26.167  27.980  -5.223  0.00  0.00     0.091 C 
BRANCH  15  16
HETATM   16  C   UNK N   1      26.040  28.515  -3.837  0.00  0.00     0.186 C 
HETATM   17  O   UNK N   1      25.451  27.873  -2.981  0.00  0.00    -0.286 OA
BRANCH  16  18
HETATM   18  S   UNK N   1      26.760  30.108  -3.437  0.00  0.00    -0.091 SA
BRANCH  18  19
HETATM   19  C   UNK N   1      27.784  29.446  -2.088  0.00  0.00     0.102 C 
BRANCH  19  20
HETATM   20  C   UNK N   1      29.150  30.110  -2.137  0.00  0.00     0.133 C 
BRANCH  20  21
HETATM   21  N   UNK N   1      29.835  29.795  -3.368  0.00  0.00    -0.361 N 
HETATM   22  C   UNK N   1      30.871  28.924  -3.432  0.00  0.00     0.213 C 
HETATM   23  C   UNK N   1      31.513  28.640  -4.743  0.00  0.00     0.117 C 
HETATM   24  O   UNK N   1      31.282  28.364  -2.424  0.00  0.00    -0.274 OA
HETATM   25  H   UNK N   1      29.536  30.230  -4.198  0.00  0.00     0.162 HD
ENDBRANCH  20  21
ENDBRANCH  19  20
ENDBRANCH  18  19
ENDBRANCH  16  18
ENDBRANCH  15  16
ENDBRANCH  14  15
ENDBRANCH   1  14
TORSDOF 18
ENDMDL
MODEL 6
REMARK VINA RESULT:      -4.4     14.994     17.836
REMARK  18 active torsions:
REMARK  status: ('A' for Active; 'I' for Inactive)
REMARK    1  A    between atoms: C_2  and  C_3 
REMARK    2  A    between atoms: C_3  and  C_4 
REMARK    3  A    between atoms: C_4  and  C_5 
REMARK    4  A    between atoms: C_5  and  C_6 
REMARK    5  A    between atoms: C_6  and  C_7 
REMARK    6  A    between atoms: C_7  and  C_8 
REMARK    7  A    between atoms: C_8  and  C_9 
REMARK    8  A    between atoms: C_9  and  C_10 
REMARK    9  A    between atoms: C_10  and  C_11 
REMARK   10  A    between atoms: C_11  and  C_12 
REMARK   11  A    between atoms: C_12  and  C_13 
REMARK   12  A    between atoms: C_13  and  C_14 
REMARK   13  A    between atoms: C_14  and  C_15 
REMARK   14  A    between atoms: C_15  and  C_16 
REMARK   15  A    between atoms: C_16  and  S_18 
REMARK   16  A    between atoms: S_18  and  C_19 
REMARK   17  A    between atoms: C_19  and  C_20 
REMARK   18  A    between atoms: C_20  and  N_21 
REMARK       I    between atoms: N_21  and  C_22 
ROOT
HETATM    1  C   UNK N   1      20.838  15.351   7.526  0.00  0.00     0.000 C 
ENDROOT
BRANCH   1   2
HETATM    2  C   UNK N   1      20.310  14.847   8.874  0.00  0.00     0.000 C 
BRANCH   2   3
HETATM    3  C   UNK N   1      21.378  14.181   9.740  0.00  0.00     0.000 C 
BRANCH   3   4
HETATM    4  C   UNK N   1      20.898  12.877  10.353  0.00  0.00     0.000 C 
BRANCH   4   5
HETATM    5  C   UNK N   1      21.936  12.310  11.303  0.00  0.00     0.000 C 
BRANCH   5   6
HETATM    6  C   UNK N   1      22.938  11.480  10.521  0.00  0.00     0.000 C 
BRANCH   6   7
HETATM    7  C   UNK N   1      24.258  12.217  10.355  0.00  0.00     0.000 C 
BRANCH   7   8
HETATM    8  C   UNK N   1      24.568  12.512   8.897  0.00  0.00     0.000 C 
BRANCH   8   9
HETATM    9  C   UNK N   1      23.671  11.690   7.985  0.00  0.00     0.000 C 
BRANCH   9  10
HETATM   10  C   UNK N   1      24.064  11.920   6.542  0.00  0.00     0.000 C 
BRANCH  10  11
HETATM   11  C   UNK N   1      22.847  11.741   5.658  0.00  0.00    -0.000 C 
BRANCH  11  12
HETATM   12  C   UNK N   1      21.612  11.581   6.516  0.00  0.00    -0.005 C 
HETATM   13  C   UNK N   1      20.445  12.272   5.842  0.00  0.00     0.005 C 
ENDBRANCH  11  12
ENDBRANCH  10  11
ENDBRANCH   9  10
ENDBRANCH   8   9
ENDBRANCH   7   8
ENDBRANCH   6   7
ENDBRANCH   5   6
ENDBRANCH   4   5
ENDBRANCH   3   4
ENDBRANCH   2   3
ENDBRANCH   1   2
BRANCH   1  14
HETATM   14  C   UNK N   1      22.346  15.149   7.325  0.00  0.00     0.008 C 
BRANCH  14  15
HETATM   15  C   UNK N   1      22.841  15.592   5.950  0.00  0.00     0.091 C 
BRANCH  15  16
HETATM   16  C   UNK N   1      24.319  15.788   5.925  0.00  0.00     0.186 C 
HETATM   17  O   UNK N   1      25.018  15.311   6.806  0.00  0.00    -0.286 OA
BRANCH  16  18
HETATM   18  S   UNK N   1      25.062  16.727   4.590  0.00  0.00    -0.091 SA
BRANCH  18  19
HETATM   19  C   UNK N   1      23.464  17.279   3.923  0.00  0.00     0.102 C 
BRANCH  19  20
HETATM   20  C   UNK N   1      23.336  18.779   4.132  0.00  0.00     0.133 C 
BRANCH  20  21
HETATM   21  N   UNK N   1      22.159  19.295   3.474  0.00  0.00    -0.361 N 
HETATM   22  C   UNK N   1      22.182  20.394   2.681  0.00  0.00     0.213 C 
HETATM   23  C   UNK N   1      20.928  20.851   2.025  0.00  0.00     0.117 C 
HETATM   24  O   UNK N   1      23.221  21.011   2.493  0.00  0.00    -0.274 OA
HETATM   25  H   UNK N   1      21.303  18.828   3.606  0.00  0.00     0.162 HD
ENDBRANCH  20  21
ENDBRANCH  19  20
ENDBRANCH  18  19
ENDBRANCH  16  18
ENDBRANCH  15  16
ENDBRANCH  14  15
ENDBRANCH   1  14
TORSDOF 18
ENDMDL
MODEL 7
REMARK VINA RESULT:      -4.4      1.599      3.616
REMARK  18 active torsions:
REMARK  status: ('A' for Active; 'I' for Inactive)
REMARK    1  A    between atoms: C_2  and  C_3 
REMARK    2  A    between atoms: C_3  and  C_4 
REMARK    3  A    between atoms: C_4  and  C_5 
REMARK    4  A    between atoms: C_5  and  C_6 
REMARK    5  A    between atoms: C_6  and  C_7 
REMARK    6  A    between atoms: C_7  and  C_8 
REMARK    7  A    between atoms: C_8  and  C_9 
REMARK    8  A    between atoms: C_9  and  C_10 
REMARK    9  A    between atoms: C_10  and  C_11 
REMARK   10  A    between atoms: C_11  and  C_12 
REMARK   11  A    between atoms: C_12  and  C_13 
REMARK   12  A    between atoms: C_13  and  C_14 
REMARK   13  A    between atoms: C_14  and  C_15 
REMARK   14  A    between atoms: C_15  and  C_16 
REMARK   15  A    between atoms: C_16  and  S_18 
REMARK   16  A    between atoms: S_18  and  C_19 
REMARK   17  A    between atoms: C_19  and  C_20 
REMARK   18  A    between atoms: C_20  and  N_21 
REMARK       I    between atoms: N_21  and  C_22 
ROOT
HETATM    1  C   UNK N   1      27.620  24.039  -4.767  0.00  0.00     0.000 C 
ENDROOT
BRANCH   1   2
HETATM    2  C   UNK N   1      26.126  23.806  -5.018  0.00  0.00     0.000 C 
BRANCH   2   3
HETATM    3  C   UNK N   1      25.821  23.223  -6.396  0.00  0.00     0.000 C 
BRANCH   3   4
HETATM    4  C   UNK N   1      27.019  23.281  -7.329  0.00  0.00     0.000 C 
BRANCH   4   5
HETATM    5  C   UNK N   1      26.634  23.880  -8.668  0.00  0.00     0.000 C 
BRANCH   5   6
HETATM    6  C   UNK N   1      27.063  25.336  -8.715  0.00  0.00     0.000 C 
BRANCH   6   7
HETATM    7  C   UNK N   1      25.945  26.257  -8.252  0.00  0.00     0.000 C 
BRANCH   7   8
HETATM    8  C   UNK N   1      26.277  26.946  -6.939  0.00  0.00     0.000 C 
BRANCH   8   9
HETATM    9  C   UNK N   1      25.045  27.020  -6.051  0.00  0.00     0.000 C 
BRANCH   9  10
HETATM   10  C   UNK N   1      25.429  27.563  -4.691  0.00  0.00     0.000 C 
BRANCH  10  11
HETATM   11  C   UNK N   1      26.702  28.376  -4.821  0.00  0.00    -0.000 C 
BRANCH  11  12
HETATM   12  C   UNK N   1      27.623  28.071  -3.662  0.00  0.00    -0.005 C 
HETATM   13  C   UNK N   1      27.529  29.187  -2.644  0.00  0.00     0.005 C 
ENDBRANCH  11  12
ENDBRANCH  10  11
ENDBRANCH   9  10
ENDBRANCH   8   9
ENDBRANCH   7   8
ENDBRANCH   6   7
ENDBRANCH   5   6
ENDBRANCH   4   5
ENDBRANCH   3   4
ENDBRANCH   2   3
ENDBRANCH   1   2
BRANCH   1  14
HETATM   14  C   UNK N   1      27.969  24.373  -3.310  0.00  0.00     0.008 C 
BRANCH  14  15
HETATM   15  C   UNK N   1      28.845  23.319  -2.637  0.00  0.00     0.091 C 
BRANCH  15  16
HETATM   16  C   UNK N   1      30.298  23.600  -2.819  0.00  0.00     0.186 C 
HETATM   17  O   UNK N   1      30.689  24.750  -2.953  0.00  0.00    -0.286 OA
BRANCH  16  18
HETATM   18  S   UNK N   1      31.464  22.239  -2.837  0.00  0.00    -0.091 SA
BRANCH  18  19
HETATM   19  C   UNK N   1      30.433  21.207  -3.922  0.00  0.00     0.102 C 
BRANCH  19  20
HETATM   20  C   UNK N   1      30.642  21.647  -5.362  0.00  0.00     0.133 C 
BRANCH  20  21
HETATM   21  N   UNK N   1      29.675  21.027  -6.237  0.00  0.00    -0.361 N 
HETATM   22  C   UNK N   1      29.998  20.043  -7.111  0.00  0.00     0.213 C 
HETATM   23  C   UNK N   1      28.939  19.444  -7.966  0.00  0.00     0.117 C 
HETATM   24  O   UNK N   1      31.148  19.637  -7.201  0.00  0.00    -0.274 OA
HETATM   25  H   UNK N   1      28.740  21.331  -6.196  0.00  0.00     0.162 HD
ENDBRANCH  20  21
ENDBRANCH  19  20
ENDBRANCH  18  19
ENDBRANCH  16  18
ENDBRANCH  15  16
ENDBRANCH  14  15
ENDBRANCH   1  14
TORSDOF 18
ENDMDL
MODEL 8
REMARK VINA RESULT:      -4.4     20.237     24.802
REMARK  18 active torsions:
REMARK  status: ('A' for Active; 'I' for Inactive)
REMARK    1  A    between atoms: C_2  and  C_3 
REMARK    2  A    between atoms: C_3  and  C_4 
REMARK    3  A    between atoms: C_4  and  C_5 
REMARK    4  A    between atoms: C_5  and  C_6 
REMARK    5  A    between atoms: C_6  and  C_7 
REMARK    6  A    between atoms: C_7  and  C_8 
REMARK    7  A    between atoms: C_8  and  C_9 
REMARK    8  A    between atoms: C_9  and  C_10 
REMARK    9  A    between atoms: C_10  and  C_11 
REMARK   10  A    between atoms: C_11  and  C_12 
REMARK   11  A    between atoms: C_12  and  C_13 
REMARK   12  A    between atoms: C_13  and  C_14 
REMARK   13  A    between atoms: C_14  and  C_15 
REMARK   14  A    between atoms: C_15  and  C_16 
REMARK   15  A    between atoms: C_16  and  S_18 
REMARK   16  A    between atoms: S_18  and  C_19 
REMARK   17  A    between atoms: C_19  and  C_20 
REMARK   18  A    between atoms: C_20  and  N_21 
REMARK       I    between atoms: N_21  and  C_22 
ROOT
HETATM    1  C   UNK N   1      36.777  13.181  15.020  0.00  0.00     0.000 C 
ENDROOT
BRANCH   1   2
HETATM    2  C   UNK N   1      35.613  13.473  15.974  0.00  0.00     0.000 C 
BRANCH   2   3
HETATM    3  C   UNK N   1      36.001  14.347  17.164  0.00  0.00     0.000 C 
BRANCH   3   4
HETATM    4  C   UNK N   1      35.415  13.842  18.471  0.00  0.00     0.000 C 
BRANCH   4   5
HETATM    5  C   UNK N   1      34.977  12.395  18.345  0.00  0.00     0.000 C 
BRANCH   5   6
HETATM    6  C   UNK N   1      35.697  11.555  19.385  0.00  0.00     0.000 C 
BRANCH   6   7
HETATM    7  C   UNK N   1      35.788  10.099  18.955  0.00  0.00     0.000 C 
BRANCH   7   8
HETATM    8  C   UNK N   1      36.524   9.937  17.635  0.00  0.00     0.000 C 
BRANCH   8   9
HETATM    9  C   UNK N   1      35.745   9.024  16.701  0.00  0.00     0.000 C 
BRANCH   9  10
HETATM   10  C   UNK N   1      35.515   9.726  15.379  0.00  0.00     0.000 C 
BRANCH  10  11
HETATM   11  C   UNK N   1      34.132  10.346  15.379  0.00  0.00    -0.000 C 
BRANCH  11  12
HETATM   12  C   UNK N   1      33.749  10.741  13.971  0.00  0.00    -0.005 C 
HETATM   13  C   UNK N   1      34.476   9.848  12.989  0.00  0.00     0.005 C 
ENDBRANCH  11  12
ENDBRANCH  10  11
ENDBRANCH   9  10
ENDBRANCH   8   9
ENDBRANCH   7   8
ENDBRANCH   6   7
ENDBRANCH   5   6
ENDBRANCH   4   5
ENDBRANCH   3   4
ENDBRANCH   2   3
ENDBRANCH   1   2
BRANCH   1  14
HETATM   14  C   UNK N   1      36.428  13.336  13.534  0.00  0.00     0.008 C 
BRANCH  14  15
HETATM   15  C   UNK N   1      37.213  12.395  12.623  0.00  0.00     0.091 C 
BRANCH  15  16
HETATM   16  C   UNK N   1      36.813  12.539  11.193  0.00  0.00     0.186 C 
HETATM   17  O   UNK N   1      36.462  11.560  10.552  0.00  0.00    -0.286 OA
BRANCH  16  18
HETATM   18  S   UNK N   1      36.849  14.158  10.426  0.00  0.00    -0.091 SA
BRANCH  18  19
HETATM   19  C   UNK N   1      35.114  14.079   9.888  0.00  0.00     0.102 C 
BRANCH  19  20
HETATM   20  C   UNK N   1      34.393  15.328  10.370  0.00  0.00     0.133 C 
BRANCH  20  21
HETATM   21  N   UNK N   1      34.808  16.488   9.616  0.00  0.00    -0.361 N 
HETATM   22  C   UNK N   1      33.955  17.215   8.856  0.00  0.00     0.213 C 
HETATM   23  C   UNK N   1      34.458  18.407   8.122  0.00  0.00     0.117 C 
HETATM   24  O   UNK N   1      32.774  16.906   8.768  0.00  0.00    -0.274 OA
HETATM   25  H   UNK N   1      35.752  16.762   9.658  0.00  0.00     0.162 HD
ENDBRANCH  20  21
ENDBRANCH  19  20
ENDBRANCH  18  19
ENDBRANCH  16  18
ENDBRANCH  15  16
ENDBRANCH  14  15
ENDBRANCH   1  14
TORSDOF 18
ENDMDL
MODEL 9
REMARK VINA RESULT:      -4.4      1.629      2.878
REMARK  18 active torsions:
REMARK  status: ('A' for Active; 'I' for Inactive)
REMARK    1  A    between atoms: C_2  and  C_3 
REMARK    2  A    between atoms: C_3  and  C_4 
REMARK    3  A    between atoms: C_4  and  C_5 
REMARK    4  A    between atoms: C_5  and  C_6 
REMARK    5  A    between atoms: C_6  and  C_7 
REMARK    6  A    between atoms: C_7  and  C_8 
REMARK    7  A    between atoms: C_8  and  C_9 
REMARK    8  A    between atoms: C_9  and  C_10 
REMARK    9  A    between atoms: C_10  and  C_11 
REMARK   10  A    between atoms: C_11  and  C_12 
REMARK   11  A    between atoms: C_12  and  C_13 
REMARK   12  A    between atoms: C_13  and  C_14 
REMARK   13  A    between atoms: C_14  and  C_15 
REMARK   14  A    between atoms: C_15  and  C_16 
REMARK   15  A    between atoms: C_16  and  S_18 
REMARK   16  A    between atoms: S_18  and  C_19 
REMARK   17  A    between atoms: C_19  and  C_20 
REMARK   18  A    between atoms: C_20  and  N_21 
REMARK       I    between atoms: N_21  and  C_22 
ROOT
HETATM    1  C   UNK N   1      29.929  25.776  -3.845  0.00  0.00     0.000 C 
ENDROOT
BRANCH   1   2
HETATM    2  C   UNK N   1      29.251  27.080  -4.277  0.00  0.00     0.000 C 
BRANCH   2   3
HETATM    3  C   UNK N   1      28.818  27.089  -5.741  0.00  0.00     0.000 C 
BRANCH   3   4
HETATM    4  C   UNK N   1      27.545  27.887  -5.965  0.00  0.00     0.000 C 
BRANCH   4   5
HETATM    5  C   UNK N   1      26.830  28.146  -4.653  0.00  0.00     0.000 C 
BRANCH   5   6
HETATM    6  C   UNK N   1      25.368  27.755  -4.786  0.00  0.00     0.000 C 
BRANCH   6   7
HETATM    7  C   UNK N   1      25.188  26.621  -5.783  0.00  0.00     0.000 C 
BRANCH   7   8
HETATM    8  C   UNK N   1      25.384  25.258  -5.142  0.00  0.00     0.000 C 
BRANCH   8   9
HETATM    9  C   UNK N   1      26.101  24.318  -6.098  0.00  0.00     0.000 C 
BRANCH   9  10
HETATM   10  C   UNK N   1      25.772  24.697  -7.526  0.00  0.00     0.000 C 
BRANCH  10  11
HETATM   11  C   UNK N   1      25.495  23.439  -8.325  0.00  0.00    -0.000 C 
BRANCH  11  12
HETATM   12  C   UNK N   1      25.898  22.224  -7.520  0.00  0.00    -0.005 C 
HETATM   13  C   UNK N   1      24.714  21.289  -7.403  0.00  0.00     0.005 C 
ENDBRANCH  11  12
ENDBRANCH  10  11
ENDBRANCH   9  10
ENDBRANCH   8   9
ENDBRANCH   7   8
ENDBRANCH   6   7
ENDBRANCH   5   6
ENDBRANCH   4   5
ENDBRANCH   3   4
ENDBRANCH   2   3
ENDBRANCH   1   2
BRANCH   1  14
HETATM   14  C   UNK N   1      29.144  24.508  -4.205  0.00  0.00     0.008 C 
BRANCH  14  15
HETATM   15  C   UNK N   1      28.834  23.621  -3.000  0.00  0.00     0.091 C 
BRANCH  15  16
HETATM   16  C   UNK N   1      29.996  22.767  -2.621  0.00  0.00     0.186 C 
HETATM   17  O   UNK N   1      30.669  23.045  -1.640  0.00  0.00    -0.286 OA
BRANCH  16  18
HETATM   18  S   UNK N   1      30.396  21.330  -3.616  0.00  0.00    -0.091 SA
BRANCH  18  19
HETATM   19  C   UNK N   1      31.823  22.125  -4.414  0.00  0.00     0.102 C 
BRANCH  19  20
HETATM   20  C   UNK N   1      31.941  21.608  -5.838  0.00  0.00     0.133 C 
BRANCH  20  21
HETATM   21  N   UNK N   1      30.688  21.054  -6.292  0.00  0.00    -0.361 N 
HETATM   22  C   UNK N   1      30.612  20.060  -7.210  0.00  0.00     0.213 C 
HETATM   23  C   UNK N   1      29.282  19.532  -7.614  0.00  0.00     0.117 C 
HETATM   24  O   UNK N   1      31.626  19.587  -7.708  0.00  0.00    -0.274 OA
HETATM   25  H   UNK N   1      29.851  21.413  -5.919  0.00  0.00     0.162 HD
ENDBRANCH  20  21
ENDBRANCH  19  20
ENDBRANCH  18  19
ENDBRANCH  16  18
ENDBRANCH  15  16
ENDBRANCH  14  15
ENDBRANCH   1  14
TORSDOF 18
ENDMDL
