REMARK  5 active torsions:
REMARK  status: ('A' for Active; 'I' for Inactive)
REMARK    1  A    between atoms: C_2  and  N_1 
REMARK    2  A    between atoms: C_2  and  C_3 
REMARK    3  A    between atoms: C_2  and  C_10 
REMARK    4  A    between atoms: C_3  and  C_4 
REMARK    5  A    between atoms: C_10  and  O_11 
ROOT
HETATM    1  C   UNK N   1       1.254   3.094   0.266  0.00  0.00     0.177 C 
ENDROOT
BRANCH   1   2
HETATM    2  N   UNK N   1       2.274   2.500  -0.584  0.00  0.00    -0.417 N 
HETATM    3  H   UNK N   1       2.270   1.672  -1.180  0.00  0.00     0.150 HD
HETATM    4  H   UNK N   1       3.159   3.006  -0.584  0.00  0.00     0.150 HD
ENDBRANCH   1   2
BRANCH   1   5
HETATM    5  C   UNK N   1      -0.125   2.467  -0.001  0.00  0.00     0.074 C 
BRANCH   5   6
HETATM    6  C   UNK N   1      -0.241   0.966   0.026  0.00  0.00    -0.056 A 
HETATM    7  C   UNK N   1      -1.508   0.400  -0.156  0.00  0.00     0.007 A 
HETATM    8  C   UNK N   1      -1.667  -0.988  -0.184  0.00  0.00     0.001 A 
HETATM    9  C   UNK N   1      -0.554  -1.821  -0.040  0.00  0.00     0.000 A 
HETATM   10  C   UNK N   1       0.714  -1.266   0.145  0.00  0.00     0.001 A 
HETATM   11  C   UNK N   1       0.871   0.123   0.180  0.00  0.00     0.007 A 
ENDBRANCH   5   6
ENDBRANCH   1   5
BRANCH   1  12
HETATM   12  C   UNK N   1       1.229   4.578   0.010  0.00  0.00     0.163 C 
HETATM   13  O   UNK N   1       0.225   5.126  -0.420  0.00  0.00    -0.648 OA
BRANCH  12  14
HETATM   14  O   UNK N   1       2.338   5.310   0.232  0.00  0.00    -0.775 OA
HETATM   15  H   UNK N   1       3.165   4.897   0.387  0.00  0.00     0.167 HD
ENDBRANCH  12  14
ENDBRANCH   1  12
TORSDOF 5
