MODEL 1
REMARK VINA RESULT:      -5.5      0.000      0.000
REMARK  5 active torsions:
REMARK  status: ('A' for Active; 'I' for Inactive)
REMARK    1  A    between atoms: C_2  and  N_1 
REMARK    2  A    between atoms: C_2  and  C_3 
REMARK    3  A    between atoms: C_2  and  C_10 
REMARK    4  A    between atoms: C_3  and  C_4 
REMARK    5  A    between atoms: C_10  and  O_11 
ROOT
HETATM    1  C   UNK N   1      33.235  17.625   8.636  0.00  0.00     0.173 C 
ENDROOT
BRANCH   1   2
HETATM    2  N   UNK N   1      33.754  16.620   9.553  0.00  0.00    -0.418 N 
HETATM    3  H   UNK N   1      33.814  16.799  10.555  0.00  0.00     0.150 HD
HETATM    4  H   UNK N   1      34.066  15.721   9.184  0.00  0.00     0.150 HD
ENDBRANCH   1   2
BRANCH   1   5
HETATM    5  C   UNK N   1      32.241  16.992   7.672  0.00  0.00     0.040 C 
BRANCH   5   6
HETATM    6  C   UNK N   1      30.817  17.097   8.194  0.00  0.00    -0.012 C 
HETATM    7  C   UNK N   1      30.683  18.390   8.995  0.00  0.00     0.005 C 
HETATM    8  C   UNK N   1      29.264  18.536   9.533  0.00  0.00     0.000 C 
HETATM    9  C   UNK N   1      28.270  18.544   8.376  0.00  0.00     0.000 C 
HETATM   10  C   UNK N   1      28.390  17.251   7.574  0.00  0.00     0.000 C 
HETATM   11  C   UNK N   1      29.812  17.087   7.040  0.00  0.00     0.005 C 
ENDBRANCH   5   6
ENDBRANCH   1   5
BRANCH   1  12
HETATM   12  C   UNK N   1      34.350  18.283   7.875  0.00  0.00     0.163 C 
HETATM   13  O   UNK N   1      34.459  18.089   6.674  0.00  0.00    -0.648 OA
BRANCH  12  14
HETATM   14  O   UNK N   1      35.219  19.104   8.497  0.00  0.00    -0.775 OA
HETATM   15  H   UNK N   1      36.056  19.326   8.137  0.00  0.00     0.167 HD
ENDBRANCH  12  14
ENDBRANCH   1  12
TORSDOF 5
ENDMDL
MODEL 2
REMARK VINA RESULT:      -5.0      3.300      4.984
REMARK  5 active torsions:
REMARK  status: ('A' for Active; 'I' for Inactive)
REMARK    1  A    between atoms: C_2  and  N_1 
REMARK    2  A    between atoms: C_2  and  C_3 
REMARK    3  A    between atoms: C_2  and  C_10 
REMARK    4  A    between atoms: C_3  and  C_4 
REMARK    5  A    between atoms: C_10  and  O_11 
ROOT
HETATM    1  C   UNK N   1      29.652  17.447   9.075  0.00  0.00     0.173 C 
ENDROOT
BRANCH   1   2
HETATM    2  N   UNK N   1      29.577  16.965  10.446  0.00  0.00    -0.418 N 
HETATM    3  H   UNK N   1      30.318  16.388  10.845  0.00  0.00     0.150 HD
HETATM    4  H   UNK N   1      28.768  17.207  11.018  0.00  0.00     0.150 HD
ENDBRANCH   1   2
BRANCH   1   5
HETATM    5  C   UNK N   1      30.930  18.247   8.868  0.00  0.00     0.040 C 
BRANCH   5   6
HETATM    6  C   UNK N   1      31.953  17.460   8.064  0.00  0.00    -0.012 C 
HETATM    7  C   UNK N   1      31.400  17.229   6.660  0.00  0.00     0.005 C 
HETATM    8  C   UNK N   1      32.401  16.445   5.818  0.00  0.00     0.000 C 
HETATM    9  C   UNK N   1      33.717  17.211   5.732  0.00  0.00     0.000 C 
HETATM   10  C   UNK N   1      34.283  17.438   7.132  0.00  0.00     0.000 C 
HETATM   11  C   UNK N   1      33.283  18.212   7.989  0.00  0.00     0.005 C 
ENDBRANCH   5   6
ENDBRANCH   1   5
BRANCH   1  12
HETATM   12  C   UNK N   1      28.453  18.287   8.737  0.00  0.00     0.163 C 
HETATM   13  O   UNK N   1      28.512  19.079   7.808  0.00  0.00    -0.648 OA
BRANCH  12  14
HETATM   14  O   UNK N   1      27.305  18.163   9.431  0.00  0.00    -0.775 OA
HETATM   15  H   UNK N   1      26.919  18.871   9.909  0.00  0.00     0.167 HD
ENDBRANCH  12  14
ENDBRANCH   1  12
TORSDOF 5
ENDMDL
MODEL 3
REMARK VINA RESULT:      -4.9     14.091     14.879
REMARK  5 active torsions:
REMARK  status: ('A' for Active; 'I' for Inactive)
REMARK    1  A    between atoms: C_2  and  N_1 
REMARK    2  A    between atoms: C_2  and  C_3 
REMARK    3  A    between atoms: C_2  and  C_10 
REMARK    4  A    between atoms: C_3  and  C_4 
REMARK    5  A    between atoms: C_10  and  O_11 
ROOT
HETATM    1  C   UNK N   1      28.602  23.809  -3.314  0.00  0.00     0.173 C 
ENDROOT
BRANCH   1   2
HETATM    2  N   UNK N   1      29.440  24.940  -3.689  0.00  0.00    -0.418 N 
HETATM    3  H   UNK N   1      29.130  25.900  -3.541  0.00  0.00     0.150 HD
HETATM    4  H   UNK N   1      30.353  24.767  -4.110  0.00  0.00     0.150 HD
ENDBRANCH   1   2
BRANCH   1   5
HETATM    5  C   UNK N   1      27.146  24.243  -3.220  0.00  0.00     0.040 C 
BRANCH   5   6
HETATM    6  C   UNK N   1      26.833  25.352  -4.213  0.00  0.00    -0.012 C 
HETATM    7  C   UNK N   1      25.831  24.825  -5.237  0.00  0.00     0.005 C 
HETATM    8  C   UNK N   1      25.487  25.911  -6.250  0.00  0.00     0.000 C 
HETATM    9  C   UNK N   1      24.897  27.120  -5.533  0.00  0.00     0.000 C 
HETATM   10  C   UNK N   1      25.896  27.661  -4.512  0.00  0.00     0.000 C 
HETATM   11  C   UNK N   1      26.259  26.577  -3.498  0.00  0.00     0.005 C 
ENDBRANCH   5   6
ENDBRANCH   1   5
BRANCH   1  12
HETATM   12  C   UNK N   1      29.054  23.219  -2.009  0.00  0.00     0.163 C 
HETATM   13  O   UNK N   1      28.223  22.866  -1.185  0.00  0.00    -0.648 OA
BRANCH  12  14
HETATM   14  O   UNK N   1      30.364  23.053  -1.743  0.00  0.00    -0.775 OA
HETATM   15  H   UNK N   1      30.922  23.756  -1.472  0.00  0.00     0.167 HD
ENDBRANCH  12  14
ENDBRANCH   1  12
TORSDOF 5
ENDMDL
MODEL 4
REMARK VINA RESULT:      -4.9      9.401     10.521
REMARK  5 active torsions:
REMARK  status: ('A' for Active; 'I' for Inactive)
REMARK    1  A    between atoms: C_2  and  N_1 
REMARK    2  A    between atoms: C_2  and  C_3 
REMARK    3  A    between atoms: C_2  and  C_10 
REMARK    4  A    between atoms: C_3  and  C_4 
REMARK    5  A    between atoms: C_10  and  O_11 
ROOT
HETATM    1  C   UNK N   1      36.337  13.658  14.508  0.00  0.00     0.173 C 
ENDROOT
BRANCH   1   2
HETATM    2  N   UNK N   1      37.408  12.703  14.260  0.00  0.00    -0.418 N 
HETATM    3  H   UNK N   1      37.422  12.133  13.414  0.00  0.00     0.150 HD
HETATM    4  H   UNK N   1      38.157  12.602  14.945  0.00  0.00     0.150 HD
ENDBRANCH   1   2
BRANCH   1   5
HETATM    5  C   UNK N   1      35.218  12.998  15.301  0.00  0.00     0.040 C 
BRANCH   5   6
HETATM    6  C   UNK N   1      35.706  12.529  16.662  0.00  0.00    -0.012 C 
HETATM    7  C   UNK N   1      34.923  13.267  17.745  0.00  0.00     0.005 C 
HETATM    8  C   UNK N   1      35.380  12.819  19.129  0.00  0.00     0.000 C 
HETATM    9  C   UNK N   1      35.173  11.316  19.282  0.00  0.00     0.000 C 
HETATM   10  C   UNK N   1      35.960  10.568  18.208  0.00  0.00     0.000 C 
HETATM   11  C   UNK N   1      35.519  11.018  16.816  0.00  0.00     0.005 C 
ENDBRANCH   5   6
ENDBRANCH   1   5
BRANCH   1  12
HETATM   12  C   UNK N   1      35.804  14.212  13.218  0.00  0.00     0.163 C 
HETATM   13  O   UNK N   1      34.764  13.769  12.754  0.00  0.00    -0.648 OA
BRANCH  12  14
HETATM   14  O   UNK N   1      36.446  15.208  12.576  0.00  0.00    -0.775 OA
HETATM   15  H   UNK N   1      37.043  15.056  11.870  0.00  0.00     0.167 HD
ENDBRANCH  12  14
ENDBRANCH   1  12
TORSDOF 5
ENDMDL
MODEL 5
REMARK VINA RESULT:      -4.7     10.846     12.136
REMARK  5 active torsions:
REMARK  status: ('A' for Active; 'I' for Inactive)
REMARK    1  A    between atoms: C_2  and  N_1 
REMARK    2  A    between atoms: C_2  and  C_3 
REMARK    3  A    between atoms: C_2  and  C_10 
REMARK    4  A    between atoms: C_3  and  C_4 
REMARK    5  A    between atoms: C_10  and  O_11 
ROOT
HETATM    1  C   UNK N   1      20.494  16.277   8.703  0.00  0.00     0.173 C 
ENDROOT
BRANCH   1   2
HETATM    2  N   UNK N   1      21.096  16.585   7.414  0.00  0.00    -0.418 N 
HETATM    3  H   UNK N   1      20.524  16.704   6.578  0.00  0.00     0.150 HD
HETATM    4  H   UNK N   1      22.109  16.682   7.346  0.00  0.00     0.150 HD
ENDBRANCH   1   2
BRANCH   1   5
HETATM    5  C   UNK N   1      20.256  14.779   8.827  0.00  0.00     0.040 C 
BRANCH   5   6
HETATM    6  C   UNK N   1      21.341  14.111   9.657  0.00  0.00    -0.012 C 
HETATM    7  C   UNK N   1      20.721  12.956  10.437  0.00  0.00     0.005 C 
HETATM    8  C   UNK N   1      21.780  12.256  11.281  0.00  0.00     0.000 C 
HETATM    9  C   UNK N   1      22.893  11.727  10.382  0.00  0.00     0.000 C 
HETATM   10  C   UNK N   1      23.526  12.878   9.603  0.00  0.00     0.000 C 
HETATM   11  C   UNK N   1      22.471  13.596   8.763  0.00  0.00     0.005 C 
ENDBRANCH   5   6
ENDBRANCH   1   5
BRANCH   1  12
HETATM   12  C   UNK N   1      19.204  17.025   8.883  0.00  0.00     0.163 C 
HETATM   13  O   UNK N   1      18.142  16.425   8.812  0.00  0.00    -0.648 OA
BRANCH  12  14
HETATM   14  O   UNK N   1      19.203  18.347   9.146  0.00  0.00    -0.775 OA
HETATM   15  H   UNK N   1      19.953  18.893   9.009  0.00  0.00     0.167 HD
ENDBRANCH  12  14
ENDBRANCH   1  12
TORSDOF 5
ENDMDL
MODEL 6
REMARK VINA RESULT:      -4.7     10.444     11.222
REMARK  5 active torsions:
REMARK  status: ('A' for Active; 'I' for Inactive)
REMARK    1  A    between atoms: C_2  and  N_1 
REMARK    2  A    between atoms: C_2  and  C_3 
REMARK    3  A    between atoms: C_2  and  C_10 
REMARK    4  A    between atoms: C_3  and  C_4 
REMARK    5  A    between atoms: C_10  and  O_11 
ROOT
HETATM    1  C   UNK N   1      23.881  12.056  11.022  0.00  0.00     0.173 C 
ENDROOT
BRANCH   1   2
HETATM    2  N   UNK N   1      25.169  12.717  11.173  0.00  0.00    -0.418 N 
HETATM    3  H   UNK N   1      25.423  13.519  10.595  0.00  0.00     0.150 HD
HETATM    4  H   UNK N   1      25.829  12.372  11.869  0.00  0.00     0.150 HD
ENDBRANCH   1   2
BRANCH   1   5
HETATM    5  C   UNK N   1      23.002  12.833  10.052  0.00  0.00     0.040 C 
BRANCH   5   6
HETATM    6  C   UNK N   1      22.534  11.955   8.902  0.00  0.00    -0.012 C 
HETATM    7  C   UNK N   1      21.729  12.811   7.928  0.00  0.00     0.005 C 
HETATM    8  C   UNK N   1      21.244  11.966   6.755  0.00  0.00     0.000 C 
HETATM    9  C   UNK N   1      22.437  11.352   6.031  0.00  0.00     0.000 C 
HETATM   10  C   UNK N   1      23.244  10.486   6.996  0.00  0.00     0.000 C 
HETATM   11  C   UNK N   1      23.725  11.319   8.183  0.00  0.00     0.005 C 
ENDBRANCH   5   6
ENDBRANCH   1   5
BRANCH   1  12
HETATM   12  C   UNK N   1      23.192  11.916  12.350  0.00  0.00     0.163 C 
HETATM   13  O   UNK N   1      23.817  12.124  13.379  0.00  0.00    -0.648 OA
BRANCH  12  14
HETATM   14  O   UNK N   1      21.887  11.588  12.420  0.00  0.00    -0.775 OA
HETATM   15  H   UNK N   1      21.338  11.523  11.663  0.00  0.00     0.167 HD
ENDBRANCH  12  14
ENDBRANCH   1  12
TORSDOF 5
ENDMDL
MODEL 7
REMARK VINA RESULT:      -4.6     10.271     12.086
REMARK  5 active torsions:
REMARK  status: ('A' for Active; 'I' for Inactive)
REMARK    1  A    between atoms: C_2  and  N_1 
REMARK    2  A    between atoms: C_2  and  C_3 
REMARK    3  A    between atoms: C_2  and  C_10 
REMARK    4  A    between atoms: C_3  and  C_4 
REMARK    5  A    between atoms: C_10  and  O_11 
ROOT
HETATM    1  C   UNK N   1      20.453  19.068   2.335  0.00  0.00     0.173 C 
ENDROOT
BRANCH   1   2
HETATM    2  N   UNK N   1      19.025  18.783   2.310  0.00  0.00    -0.418 N 
HETATM    3  H   UNK N   1      18.348  19.497   2.038  0.00  0.00     0.150 HD
HETATM    4  H   UNK N   1      18.696  17.854   2.570  0.00  0.00     0.150 HD
ENDBRANCH   1   2
BRANCH   1   5
HETATM    5  C   UNK N   1      20.885  19.458   3.741  0.00  0.00     0.040 C 
BRANCH   5   6
HETATM    6  C   UNK N   1      22.020  18.577   4.238  0.00  0.00    -0.012 C 
HETATM    7  C   UNK N   1      21.860  17.184   3.633  0.00  0.00     0.005 C 
HETATM    8  C   UNK N   1      22.984  16.268   4.105  0.00  0.00     0.000 C 
HETATM    9  C   UNK N   1      24.333  16.852   3.697  0.00  0.00     0.000 C 
HETATM   10  C   UNK N   1      24.506  18.242   4.305  0.00  0.00     0.000 C 
HETATM   11  C   UNK N   1      23.377  19.166   3.850  0.00  0.00     0.005 C 
ENDBRANCH   5   6
ENDBRANCH   1   5
BRANCH   1  12
HETATM   12  C   UNK N   1      20.798  20.159   1.363  0.00  0.00     0.163 C 
HETATM   13  O   UNK N   1      21.251  21.216   1.775  0.00  0.00    -0.648 OA
BRANCH  12  14
HETATM   14  O   UNK N   1      20.636  19.979   0.037  0.00  0.00    -0.775 OA
HETATM   15  H   UNK N   1      21.299  20.194  -0.590  0.00  0.00     0.167 HD
ENDBRANCH  12  14
ENDBRANCH   1  12
TORSDOF 5
ENDMDL
MODEL 8
REMARK VINA RESULT:      -4.6      3.732      5.125
REMARK  5 active torsions:
REMARK  status: ('A' for Active; 'I' for Inactive)
REMARK    1  A    between atoms: C_2  and  N_1 
REMARK    2  A    between atoms: C_2  and  C_3 
REMARK    3  A    between atoms: C_2  and  C_10 
REMARK    4  A    between atoms: C_3  and  C_4 
REMARK    5  A    between atoms: C_10  and  O_11 
ROOT
HETATM    1  C   UNK N   1      28.805  18.115   7.475  0.00  0.00     0.173 C 
ENDROOT
BRANCH   1   2
HETATM    2  N   UNK N   1      27.548  17.869   6.781  0.00  0.00    -0.418 N 
HETATM    3  H   UNK N   1      27.292  18.398   5.948  0.00  0.00     0.150 HD
HETATM    4  H   UNK N   1      26.913  17.154   7.136  0.00  0.00     0.150 HD
ENDBRANCH   1   2
BRANCH   1   5
HETATM    5  C   UNK N   1      29.784  16.981   7.205  0.00  0.00     0.040 C 
BRANCH   5   6
HETATM    6  C   UNK N   1      31.081  17.500   6.606  0.00  0.00    -0.012 C 
HETATM    7  C   UNK N   1      32.234  17.123   7.531  0.00  0.00     0.005 C 
HETATM    8  C   UNK N   1      33.558  17.623   6.962  0.00  0.00     0.000 C 
HETATM    9  C   UNK N   1      33.789  17.016   5.582  0.00  0.00     0.000 C 
HETATM   10  C   UNK N   1      32.645  17.396   4.645  0.00  0.00     0.000 C 
HETATM   11  C   UNK N   1      31.311  16.912   5.212  0.00  0.00     0.005 C 
ENDBRANCH   5   6
ENDBRANCH   1   5
BRANCH   1  12
HETATM   12  C   UNK N   1      28.579  18.267   8.952  0.00  0.00     0.163 C 
HETATM   13  O   UNK N   1      29.445  18.778   9.646  0.00  0.00    -0.648 OA
BRANCH  12  14
HETATM   14  O   UNK N   1      27.423  17.868   9.519  0.00  0.00    -0.775 OA
HETATM   15  H   UNK N   1      26.920  17.147   9.194  0.00  0.00     0.167 HD
ENDBRANCH  12  14
ENDBRANCH   1  12
TORSDOF 5
ENDMDL
MODEL 9
REMARK VINA RESULT:      -4.4      7.192      8.397
REMARK  5 active torsions:
REMARK  status: ('A' for Active; 'I' for Inactive)
REMARK    1  A    between atoms: C_2  and  N_1 
REMARK    2  A    between atoms: C_2  and  C_3 
REMARK    3  A    between atoms: C_2  and  C_10 
REMARK    4  A    between atoms: C_3  and  C_4 
REMARK    5  A    between atoms: C_10  and  O_11 
ROOT
HETATM    1  C   UNK N   1      36.131  14.481  12.362  0.00  0.00     0.173 C 
ENDROOT
BRANCH   1   2
HETATM    2  N   UNK N   1      37.290  13.758  11.858  0.00  0.00    -0.418 N 
HETATM    3  H   UNK N   1      38.202  14.208  11.781  0.00  0.00     0.150 HD
HETATM    4  H   UNK N   1      37.187  12.783  11.576  0.00  0.00     0.150 HD
ENDBRANCH   1   2
BRANCH   1   5
HETATM    5  C   UNK N   1      34.976  13.519  12.602  0.00  0.00     0.040 C 
BRANCH   5   6
HETATM    6  C   UNK N   1      35.344  12.454  13.622  0.00  0.00    -0.012 C 
HETATM    7  C   UNK N   1      35.367  13.090  15.009  0.00  0.00     0.005 C 
HETATM    8  C   UNK N   1      35.729  12.050  16.064  0.00  0.00     0.000 C 
HETATM    9  C   UNK N   1      34.713  10.912  16.039  0.00  0.00     0.000 C 
HETATM   10  C   UNK N   1      34.690  10.263  14.657  0.00  0.00     0.000 C 
HETATM   11  C   UNK N   1      34.342  11.299  13.589  0.00  0.00     0.005 C 
ENDBRANCH   5   6
ENDBRANCH   1   5
BRANCH   1  12
HETATM   12  C   UNK N   1      35.718  15.562  11.405  0.00  0.00     0.163 C 
HETATM   13  O   UNK N   1      36.572  16.238  10.851  0.00  0.00    -0.648 OA
BRANCH  12  14
HETATM   14  O   UNK N   1      34.416  15.782  11.132  0.00  0.00    -0.775 OA
HETATM   15  H   UNK N   1      34.100  16.593  10.784  0.00  0.00     0.167 HD
ENDBRANCH  12  14
ENDBRANCH   1  12
TORSDOF 5
ENDMDL
