REMARK  12 active torsions:
REMARK  status: ('A' for Active; 'I' for Inactive)
REMARK    1  A    between atoms: C_3  and  O_2 
REMARK    2  A    between atoms: C_4  and  O_20 
REMARK    3  A    between atoms: C_10  and  C_11 
REMARK    4  A    between atoms: C_14  and  C_15 
REMARK    5  A    between atoms: C_15  and  C_16 
REMARK    6  A    between atoms: O_20  and  C_21 
REMARK    7  A    between atoms: C_21  and  C_23 
REMARK    8  A    between atoms: C_24  and  C_25 
REMARK    9  A    between atoms: C_26  and  C_27 
REMARK   10  A    between atoms: C_28  and  C_29 
REMARK   11  A    between atoms: C_30  and  C_31 
REMARK   12  A    between atoms: C_31  and  O_32 
ROOT
HETATM    1  C   UNK N   1       1.894   1.428   0.430  0.00  0.00     0.160 C 
HETATM    2  C   UNK N   1       2.947   0.324   0.405  0.00  0.00     0.161 C 
HETATM    3  C   UNK N   1       2.426  -0.898   1.184  0.00  0.00     0.038 C 
HETATM    4  C   UNK N   1       1.178  -1.499   0.530  0.00  0.00     0.043 C 
HETATM    5  C   UNK N   1       0.157  -0.410   0.221  0.00  0.00     0.091 A 
HETATM    6  C   UNK N   1      -1.226  -0.848  -0.021  0.00  0.00     0.207 A 
HETATM    7  O   UNK N   1      -0.819  -0.286   1.217  0.00  0.00    -0.374 OA
HETATM    8  C   UNK N   1       0.672   0.926  -0.354  0.00  0.00     0.091 C 
ENDROOT
BRANCH   2   9
HETATM    9  O   UNK N   1       3.199  -0.007  -0.915  0.00  0.00    -0.310 OA
BRANCH   9  10
HETATM   10  C   UNK N   1       4.201  -0.805  -1.356  0.00  0.00     0.283 C 
HETATM   11  O   UNK N   1       4.123  -1.285  -2.472  0.00  0.00    -0.260 OA
BRANCH  10  12
HETATM   12  C   UNK N   1       5.375  -1.128  -0.535  0.00  0.00     0.082 C 
HETATM   13  C   UNK N   1       5.699  -0.495   0.592  0.00  0.00     0.006 C 
BRANCH  13  14
HETATM   14  C   UNK N   1       6.817  -1.039   1.334  0.00  0.00     0.000 C 
HETATM   15  C   UNK N   1       6.604  -2.084   2.135  0.00  0.00     0.000 C 
BRANCH  15  16
HETATM   16  C   UNK N   1       7.733  -2.937   2.534  0.00  0.00     0.000 C 
HETATM   17  C   UNK N   1       8.542  -3.475   1.605  0.00  0.00     0.000 C 
BRANCH  17  18
HETATM   18  C   UNK N   1       8.258  -3.319   0.155  0.00  0.00     0.007 C 
HETATM   19  C   UNK N   1       9.197  -3.238  -0.794  0.00  0.00     0.081 C 
BRANCH  19  20
HETATM   20  C   UNK N   1      10.646  -3.356  -0.552  0.00  0.00     0.165 C 
HETATM   21  O   UNK N   1      11.074  -3.853   0.477  0.00  0.00    -0.647 OA
BRANCH  20  22
HETATM   22  O   UNK N   1      11.507  -2.914  -1.485  0.00  0.00    -0.773 OA
HETATM   23  H   UNK N   1      12.073  -3.280  -2.136  0.00  0.00     0.167 HD
ENDBRANCH  20  22
ENDBRANCH  19  20
ENDBRANCH  17  18
ENDBRANCH  15  16
ENDBRANCH  13  14
ENDBRANCH  10  12
ENDBRANCH   9  10
ENDBRANCH   2   9
BRANCH   1  24
HETATM   24  O   UNK N   1       2.430   2.578  -0.160  0.00  0.00    -0.388 OA
HETATM   25  C   UNK N   1       2.650   3.457   0.903  0.00  0.00     0.202 C 
ENDBRANCH   1  24
BRANCH   8  26
HETATM   26  C   UNK N   1      -0.325   1.994  -0.823  0.00  0.00     0.093 A 
HETATM   27  C   UNK N   1      -0.816   1.914  -2.261  0.00  0.00     0.049 C 
HETATM   28  O   UNK N   1      -1.432   2.088   0.045  0.00  0.00    -0.369 OA
HETATM   29  C   UNK N   1      -0.566   3.190   0.041  0.00  0.00     0.160 A 
BRANCH  29  30
HETATM   30  C   UNK N   1      -1.204   4.348  -0.710  0.00  0.00     0.062 C 
BRANCH  30  31
HETATM   31  C   UNK N   1      -2.399   4.844   0.041  0.00  0.00    -0.022 C 
HETATM   32  C   UNK N   1      -2.404   6.008   0.695  0.00  0.00    -0.091 C 
HETATM   33  C   UNK N   1      -3.637   6.426   1.417  0.00  0.00     0.042 C 
HETATM   34  C   UNK N   1      -1.198   6.891   0.740  0.00  0.00     0.042 C 
ENDBRANCH  30  31
ENDBRANCH  29  30
ENDBRANCH   8  26
TORSDOF 12
