MODEL 1
REMARK VINA RESULT:      -8.0      0.000      0.000
REMARK  3 active torsions:
REMARK  status: ('A' for Active; 'I' for Inactive)
REMARK    1  A    between atoms: S_2  and  C_3 
REMARK    2  A    between atoms: C_7  and  N_8 
REMARK       I    between atoms: N_8  and  C_9 
REMARK    3  A    between atoms: C_15  and  C_23 
ROOT
HETATM    1  N   UNK N   1      34.216  17.816   8.998  0.00  0.00    -0.192 N 
HETATM    2  C   UNK N   1      34.583  16.708   9.803  0.00  0.00     0.684 A 
HETATM    3  N   UNK N   1      35.318  16.863  10.939  0.00  0.00    -0.201 N 
ATOM      4  HN  UNK N   1      35.613  17.795  11.230  1.00  0.00     0.183 HD
HETATM    5  C   UNK N   1      35.663  15.774  11.688  0.00  0.00     0.121 A 
HETATM    6  C   UNK N   1      35.277  14.491  11.277  0.00  0.00     0.026 A 
HETATM    7  C   UNK N   1      35.629  13.350  11.987  0.00  0.00     0.034 A 
HETATM    8  C   UNK N   1      35.273  12.067  11.528  0.00  0.00     0.047 A 
HETATM    9  C   UNK N   1      34.549  11.985  10.306  0.00  0.00     0.260 A 
HETATM   10  O   UNK N   1      34.299  10.905   9.805  0.00  0.00    -0.267 OA
HETATM   11  N   UNK N   1      34.183  13.132   9.636  0.00  0.00    -0.303 N 
HETATM   12  C   UNK N   1      33.438  13.028   8.382  0.00  0.00     0.161 C 
HETATM   13  C   UNK N   1      34.542  14.360  10.099  0.00  0.00     0.137 A 
HETATM   14  N   UNK N   1      34.216  15.465   9.404  0.00  0.00    -0.175 N 
ATOM     15  HN  UNK N   1      33.674  15.365   8.546  1.00  0.00     0.186 HD
HETATM   16  H   UNK N   1      34.675  18.682   9.099  0.00  0.00     0.184 HD
ENDROOT
BRANCH   1  17
HETATM   17  C   UNK N   1      33.176  17.654   8.042  0.00  0.00     0.050 A 
HETATM   18  C   UNK N   1      33.473  17.351   6.710  0.00  0.00     0.030 A 
HETATM   19  C   UNK N   1      32.433  17.076   5.810  0.00  0.00     0.004 A 
HETATM   20  C   UNK N   1      31.099  17.109   6.239  0.00  0.00     0.018 A 
HETATM   21  C   UNK N   1      30.800  17.426   7.567  0.00  0.00     0.002 A 
HETATM   22  C   UNK N   1      31.834  17.692   8.459  0.00  0.00     0.048 A 
BRANCH  21  23
HETATM   23  S   UNK N   1      29.105  17.498   8.134  0.00  0.00    -0.134 SA
HETATM   24  C   UNK N   1      29.530  18.451   9.619  0.00  0.00     0.095 C 
ENDBRANCH  21  23
ENDBRANCH   1  17
BRANCH   8  25
HETATM   25  C   UNK N   1      35.749  10.843  12.286  0.00  0.00     0.023 A 
HETATM   26  C   UNK N   1      36.981  10.211  11.923  0.00  0.00     0.046 A 
HETATM   27 Cl   UNK N   1      38.027  10.762  10.614  0.00  0.00    -0.083 Cl
HETATM   28  C   UNK N   1      37.404   9.056  12.581  0.00  0.00     0.025 A 
HETATM   29  C   UNK N   1      36.653   8.501  13.605  0.00  0.00     0.003 A 
HETATM   30  C   UNK N   1      35.476   9.114  14.007  0.00  0.00     0.025 A 
HETATM   31  C   UNK N   1      35.010  10.267  13.376  0.00  0.00     0.046 A 
HETATM   32 Cl   UNK N   1      33.575  10.981  14.111  0.00  0.00    -0.083 Cl
ENDBRANCH   8  25
TORSDOF 3
ENDMDL
MODEL 2
REMARK VINA RESULT:      -7.9      4.145      8.579
REMARK  3 active torsions:
REMARK  status: ('A' for Active; 'I' for Inactive)
REMARK    1  A    between atoms: S_2  and  C_3 
REMARK    2  A    between atoms: C_7  and  N_8 
REMARK       I    between atoms: N_8  and  C_9 
REMARK    3  A    between atoms: C_15  and  C_23 
ROOT
HETATM    1  N   UNK N   1      35.944  16.438  10.918  0.00  0.00    -0.192 N 
HETATM    2  C   UNK N   1      35.076  16.678   9.822  0.00  0.00     0.684 A 
HETATM    3  N   UNK N   1      34.875  17.933   9.333  0.00  0.00    -0.201 N 
ATOM      4  HN  UNK N   1      35.360  18.727   9.754  1.00  0.00     0.183 HD
HETATM    5  C   UNK N   1      34.027  18.133   8.281  0.00  0.00     0.121 A 
HETATM    6  C   UNK N   1      33.345  17.047   7.716  0.00  0.00     0.026 A 
HETATM    7  C   UNK N   1      32.448  17.201   6.667  0.00  0.00     0.034 A 
HETATM    8  C   UNK N   1      31.736  16.102   6.149  0.00  0.00     0.047 A 
HETATM    9  C   UNK N   1      31.964  14.832   6.747  0.00  0.00     0.260 A 
HETATM   10  O   UNK N   1      31.308  13.863   6.413  0.00  0.00    -0.267 OA
HETATM   11  N   UNK N   1      32.882  14.697   7.765  0.00  0.00    -0.303 N 
HETATM   12  C   UNK N   1      33.103  13.383   8.367  0.00  0.00     0.161 C 
HETATM   13  C   UNK N   1      33.555  15.776   8.250  0.00  0.00     0.137 A 
HETATM   14  N   UNK N   1      34.411  15.630   9.278  0.00  0.00    -0.175 N 
ATOM     15  HN  UNK N   1      34.565  14.697   9.662  1.00  0.00     0.186 HD
HETATM   16  H   UNK N   1      36.232  17.178  11.501  0.00  0.00     0.184 HD
ENDROOT
BRANCH   1  17
HETATM   17  C   UNK N   1      36.389  15.109  11.161  0.00  0.00     0.050 A 
HETATM   18  C   UNK N   1      37.245  14.469  10.261  0.00  0.00     0.030 A 
HETATM   19  C   UNK N   1      37.768  13.206  10.576  0.00  0.00     0.004 A 
HETATM   20  C   UNK N   1      37.432  12.583  11.785  0.00  0.00     0.018 A 
HETATM   21  C   UNK N   1      36.565  13.216  12.680  0.00  0.00     0.002 A 
HETATM   22  C   UNK N   1      36.052  14.471  12.367  0.00  0.00     0.048 A 
BRANCH  21  23
HETATM   23  S   UNK N   1      36.100  12.432  14.220  0.00  0.00    -0.134 SA
HETATM   24  C   UNK N   1      36.785  13.773  15.233  0.00  0.00     0.095 C 
ENDBRANCH  21  23
ENDBRANCH   1  17
BRANCH   8  25
HETATM   25  C   UNK N   1      30.705  16.326   5.060  0.00  0.00     0.023 A 
HETATM   26  C   UNK N   1      29.366  16.700   5.409  0.00  0.00     0.046 A 
HETATM   27 Cl   UNK N   1      28.802  16.925   7.064  0.00  0.00    -0.083 Cl
HETATM   28  C   UNK N   1      28.397  16.860   4.419  0.00  0.00     0.025 A 
HETATM   29  C   UNK N   1      28.704  16.676   3.080  0.00  0.00     0.003 A 
HETATM   30  C   UNK N   1      30.001  16.354   2.709  0.00  0.00     0.025 A 
HETATM   31  C   UNK N   1      31.003  16.178   3.662  0.00  0.00     0.046 A 
HETATM   32 Cl   UNK N   1      32.614  15.910   2.998  0.00  0.00    -0.083 Cl
ENDBRANCH   8  25
TORSDOF 3
ENDMDL
MODEL 3
REMARK VINA RESULT:      -7.8      1.158      1.946
REMARK  3 active torsions:
REMARK  status: ('A' for Active; 'I' for Inactive)
REMARK    1  A    between atoms: S_2  and  C_3 
REMARK    2  A    between atoms: C_7  and  N_8 
REMARK       I    between atoms: N_8  and  C_9 
REMARK    3  A    between atoms: C_15  and  C_23 
ROOT
HETATM    1  N   UNK N   1      34.027  17.671   8.962  0.00  0.00    -0.192 N 
HETATM    2  C   UNK N   1      34.433  16.597   9.795  0.00  0.00     0.684 A 
HETATM    3  N   UNK N   1      35.165  16.807  10.924  0.00  0.00    -0.201 N 
ATOM      4  HN  UNK N   1      35.429  17.756  11.189  1.00  0.00     0.183 HD
HETATM    5  C   UNK N   1      35.548  15.751  11.701  0.00  0.00     0.121 A 
HETATM    6  C   UNK N   1      35.203  14.445  11.325  0.00  0.00     0.026 A 
HETATM    7  C   UNK N   1      35.595  13.336  12.064  0.00  0.00     0.034 A 
HETATM    8  C   UNK N   1      35.282  12.030  11.641  0.00  0.00     0.047 A 
HETATM    9  C   UNK N   1      34.557  11.891  10.424  0.00  0.00     0.260 A 
HETATM   10  O   UNK N   1      34.342  10.790   9.952  0.00  0.00    -0.267 OA
HETATM   11  N   UNK N   1      34.152  13.007   9.725  0.00  0.00    -0.303 N 
HETATM   12  C   UNK N   1      33.407  12.844   8.476  0.00  0.00     0.161 C 
HETATM   13  C   UNK N   1      34.471  14.258  10.154  0.00  0.00     0.137 A 
HETATM   14  N   UNK N   1      34.107  15.333   9.430  0.00  0.00    -0.175 N 
ATOM     15  HN  UNK N   1      33.566  15.191   8.577  1.00  0.00     0.186 HD
HETATM   16  H   UNK N   1      34.457  18.554   9.038  0.00  0.00     0.184 HD
ENDROOT
BRANCH   1  17
HETATM   17  C   UNK N   1      32.991  17.448   8.013  0.00  0.00     0.050 A 
HETATM   18  C   UNK N   1      31.653  17.401   8.418  0.00  0.00     0.030 A 
HETATM   19  C   UNK N   1      30.638  17.302   7.455  0.00  0.00     0.004 A 
HETATM   20  C   UNK N   1      30.960  17.243   6.092  0.00  0.00     0.018 A 
HETATM   21  C   UNK N   1      32.297  17.275   5.688  0.00  0.00     0.002 A 
HETATM   22  C   UNK N   1      33.301  17.380   6.644  0.00  0.00     0.048 A 
BRANCH  21  23
HETATM   23  S   UNK N   1      32.736  17.177   3.955  0.00  0.00    -0.134 SA
HETATM   24  C   UNK N   1      33.645  15.620   4.163  0.00  0.00     0.095 C 
ENDBRANCH  21  23
ENDBRANCH   1  17
BRANCH   8  25
HETATM   25  C   UNK N   1      35.799  10.844  12.430  0.00  0.00     0.023 A 
HETATM   26  C   UNK N   1      37.072  10.271  12.108  0.00  0.00     0.046 A 
HETATM   27 Cl   UNK N   1      38.122  10.857  10.818  0.00  0.00    -0.083 Cl
HETATM   28  C   UNK N   1      37.536   9.149  12.795  0.00  0.00     0.025 A 
HETATM   29  C   UNK N   1      36.788   8.570  13.808  0.00  0.00     0.003 A 
HETATM   30  C   UNK N   1      35.571   9.127  14.170  0.00  0.00     0.025 A 
HETATM   31  C   UNK N   1      35.062  10.245  13.509  0.00  0.00     0.046 A 
HETATM   32 Cl   UNK N   1      33.573  10.894  14.196  0.00  0.00    -0.083 Cl
ENDBRANCH   8  25
TORSDOF 3
ENDMDL
MODEL 4
REMARK VINA RESULT:      -7.4      3.740      8.183
REMARK  3 active torsions:
REMARK  status: ('A' for Active; 'I' for Inactive)
REMARK    1  A    between atoms: S_2  and  C_3 
REMARK    2  A    between atoms: C_7  and  N_8 
REMARK       I    between atoms: N_8  and  C_9 
REMARK    3  A    between atoms: C_15  and  C_23 
ROOT
HETATM    1  N   UNK N   1      35.472  13.792  13.202  0.00  0.00    -0.192 N 
HETATM    2  C   UNK N   1      35.183  14.414  11.960  0.00  0.00     0.684 A 
HETATM    3  N   UNK N   1      35.518  15.712  11.719  0.00  0.00    -0.201 N 
ATOM      4  HN  UNK N   1      35.994  16.257  12.438  1.00  0.00     0.183 HD
HETATM    5  C   UNK N   1      35.218  16.286  10.516  0.00  0.00     0.121 A 
HETATM    6  C   UNK N   1      34.546  15.544   9.535  0.00  0.00     0.026 A 
HETATM    7  C   UNK N   1      34.191  16.091   8.308  0.00  0.00     0.034 A 
HETATM    8  C   UNK N   1      33.471  15.342   7.357  0.00  0.00     0.047 A 
HETATM    9  C   UNK N   1      33.114  14.010   7.705  0.00  0.00     0.260 A 
HETATM   10  O   UNK N   1      32.407  13.345   6.970  0.00  0.00    -0.267 OA
HETATM   11  N   UNK N   1      33.505  13.478   8.914  0.00  0.00    -0.303 N 
HETATM   12  C   UNK N   1      33.129  12.106   9.254  0.00  0.00     0.161 C 
HETATM   13  C   UNK N   1      34.197  14.224   9.818  0.00  0.00     0.137 A 
HETATM   14  N   UNK N   1      34.527  13.701  11.013  0.00  0.00    -0.175 N 
ATOM     15  HN  UNK N   1      34.274  12.733  11.213  1.00  0.00     0.186 HD
HETATM   16  H   UNK N   1      35.697  14.332  13.993  0.00  0.00     0.184 HD
ENDROOT
BRANCH   1  17
HETATM   17  C   UNK N   1      35.427  12.372  13.282  0.00  0.00     0.050 A 
HETATM   18  C   UNK N   1      34.336  11.725  13.869  0.00  0.00     0.030 A 
HETATM   19  C   UNK N   1      34.254  10.325  13.831  0.00  0.00     0.004 A 
HETATM   20  C   UNK N   1      35.263   9.574  13.214  0.00  0.00     0.018 A 
HETATM   21  C   UNK N   1      36.362  10.219  12.640  0.00  0.00     0.002 A 
HETATM   22  C   UNK N   1      36.438  11.607  12.674  0.00  0.00     0.048 A 
BRANCH  21  23
HETATM   23  S   UNK N   1      37.676   9.282  11.867  0.00  0.00    -0.134 SA
HETATM   24  C   UNK N   1      38.053  10.594  10.671  0.00  0.00     0.095 C 
ENDBRANCH  21  23
ENDBRANCH   1  17
BRANCH   8  25
HETATM   25  C   UNK N   1      33.030  16.002   6.065  0.00  0.00     0.023 A 
HETATM   26  C   UNK N   1      33.716  15.710   4.843  0.00  0.00     0.046 A 
HETATM   27 Cl   UNK N   1      35.086  14.606   4.717  0.00  0.00    -0.083 Cl
HETATM   28  C   UNK N   1      33.351  16.348   3.657  0.00  0.00     0.025 A 
HETATM   29  C   UNK N   1      32.312  17.265   3.629  0.00  0.00     0.003 A 
HETATM   30  C   UNK N   1      31.602  17.538   4.789  0.00  0.00     0.025 A 
HETATM   31  C   UNK N   1      31.933  16.929   5.999  0.00  0.00     0.046 A 
HETATM   32 Cl   UNK N   1      30.836  17.291   7.331  0.00  0.00    -0.083 Cl
ENDBRANCH   8  25
TORSDOF 3
ENDMDL
MODEL 5
REMARK VINA RESULT:      -7.4      8.586     11.543
REMARK  3 active torsions:
REMARK  status: ('A' for Active; 'I' for Inactive)
REMARK    1  A    between atoms: S_2  and  C_3 
REMARK    2  A    between atoms: C_7  and  N_8 
REMARK       I    between atoms: N_8  and  C_9 
REMARK    3  A    between atoms: C_15  and  C_23 
ROOT
HETATM    1  N   UNK N   1      21.648  15.481   5.002  0.00  0.00    -0.192 N 
HETATM    2  C   UNK N   1      22.998  15.539   5.432  0.00  0.00     0.684 A 
HETATM    3  N   UNK N   1      23.518  14.607   6.277  0.00  0.00    -0.201 N 
ATOM      4  HN  UNK N   1      22.933  13.840   6.611  1.00  0.00     0.183 HD
HETATM    5  C   UNK N   1      24.820  14.695   6.681  0.00  0.00     0.121 A 
HETATM    6  C   UNK N   1      25.618  15.759   6.240  0.00  0.00     0.026 A 
HETATM    7  C   UNK N   1      26.938  15.911   6.646  0.00  0.00     0.034 A 
HETATM    8  C   UNK N   1      27.706  17.016   6.231  0.00  0.00     0.047 A 
HETATM    9  C   UNK N   1      27.075  17.974   5.388  0.00  0.00     0.260 A 
HETATM   10  O   UNK N   1      27.651  19.000   5.077  0.00  0.00    -0.267 OA
HETATM   11  N   UNK N   1      25.775  17.786   4.973  0.00  0.00    -0.303 N 
HETATM   12  C   UNK N   1      25.144  18.781   4.106  0.00  0.00     0.161 C 
HETATM   13  C   UNK N   1      25.054  16.711   5.391  0.00  0.00     0.137 A 
HETATM   14  N   UNK N   1      23.770  16.571   5.012  0.00  0.00    -0.175 N 
ATOM     15  HN  UNK N   1      23.363  17.267   4.386  1.00  0.00     0.186 HD
HETATM   16  H   UNK N   1      20.993  14.920   5.478  0.00  0.00     0.184 HD
ENDROOT
BRANCH   1  17
HETATM   17  C   UNK N   1      21.256  16.249   3.870  0.00  0.00     0.050 A 
HETATM   18  C   UNK N   1      20.962  15.626   2.654  0.00  0.00     0.030 A 
HETATM   19  C   UNK N   1      20.462  16.386   1.586  0.00  0.00     0.004 A 
HETATM   20  C   UNK N   1      20.263  17.766   1.731  0.00  0.00     0.018 A 
HETATM   21  C   UNK N   1      20.571  18.391   2.942  0.00  0.00     0.002 A 
HETATM   22  C   UNK N   1      21.061  17.635   4.001  0.00  0.00     0.048 A 
BRANCH  21  23
HETATM   23  S   UNK N   1      20.349  20.155   3.147  0.00  0.00    -0.134 SA
HETATM   24  C   UNK N   1      20.861  20.525   1.445  0.00  0.00     0.095 C 
ENDBRANCH  21  23
ENDBRANCH   1  17
BRANCH   8  25
HETATM   25  C   UNK N   1      29.115  17.190   6.763  0.00  0.00     0.023 A 
HETATM   26  C   UNK N   1      30.238  16.941   5.909  0.00  0.00     0.046 A 
HETATM   27 Cl   UNK N   1      30.106  16.426   4.228  0.00  0.00    -0.083 Cl
HETATM   28  C   UNK N   1      31.538  17.049   6.402  0.00  0.00     0.025 A 
HETATM   29  C   UNK N   1      31.776  17.411   7.718  0.00  0.00     0.003 A 
HETATM   30  C   UNK N   1      30.711  17.700   8.557  0.00  0.00     0.025 A 
HETATM   31  C   UNK N   1      29.392  17.600   8.113  0.00  0.00     0.046 A 
HETATM   32 Cl   UNK N   1      28.179  18.137   9.273  0.00  0.00    -0.083 Cl
ENDBRANCH   8  25
TORSDOF 3
ENDMDL
MODEL 6
REMARK VINA RESULT:      -7.3      7.207     10.478
REMARK  3 active torsions:
REMARK  status: ('A' for Active; 'I' for Inactive)
REMARK    1  A    between atoms: S_2  and  C_3 
REMARK    2  A    between atoms: C_7  and  N_8 
REMARK       I    between atoms: N_8  and  C_9 
REMARK    3  A    between atoms: C_15  and  C_23 
ROOT
HETATM    1  N   UNK N   1      23.147  18.209   4.825  0.00  0.00    -0.192 N 
HETATM    2  C   UNK N   1      24.544  18.299   5.051  0.00  0.00     0.684 A 
HETATM    3  N   UNK N   1      25.187  19.500   5.073  0.00  0.00    -0.201 N 
ATOM      4  HN  UNK N   1      24.660  20.361   4.930  1.00  0.00     0.183 HD
HETATM    5  C   UNK N   1      26.535  19.553   5.285  0.00  0.00     0.121 A 
HETATM    6  C   UNK N   1      27.263  18.368   5.460  0.00  0.00     0.026 A 
HETATM    7  C   UNK N   1      28.640  18.367   5.647  0.00  0.00     0.034 A 
HETATM    8  C   UNK N   1      29.357  17.161   5.770  0.00  0.00     0.047 A 
HETATM    9  C   UNK N   1      28.620  15.947   5.686  0.00  0.00     0.260 A 
HETATM   10  O   UNK N   1      29.192  14.873   5.685  0.00  0.00    -0.267 OA
HETATM   11  N   UNK N   1      27.252  15.974   5.532  0.00  0.00    -0.303 N 
HETATM   12  C   UNK N   1      26.511  14.715   5.449  0.00  0.00     0.161 C 
HETATM   13  C   UNK N   1      26.582  17.152   5.413  0.00  0.00     0.137 A 
HETATM   14  N   UNK N   1      25.251  17.154   5.214  0.00  0.00    -0.175 N 
ATOM     15  HN  UNK N   1      24.756  16.263   5.186  1.00  0.00     0.186 HD
HETATM   16  H   UNK N   1      22.650  18.970   4.444  0.00  0.00     0.184 HD
ENDROOT
BRANCH   1  17
HETATM   17  C   UNK N   1      22.476  16.999   5.156  0.00  0.00     0.050 A 
HETATM   18  C   UNK N   1      22.420  15.943   4.242  0.00  0.00     0.030 A 
HETATM   19  C   UNK N   1      21.861  14.716   4.630  0.00  0.00     0.004 A 
HETATM   20  C   UNK N   1      21.352  14.549   5.926  0.00  0.00     0.018 A 
HETATM   21  C   UNK N   1      21.395  15.609   6.835  0.00  0.00     0.002 A 
HETATM   22  C   UNK N   1      21.956  16.822   6.449  0.00  0.00     0.048 A 
BRANCH  21  23
HETATM   23  S   UNK N   1      20.732  15.429   8.487  0.00  0.00    -0.134 SA
HETATM   24  C   UNK N   1      19.975  17.079   8.479  0.00  0.00     0.095 C 
ENDBRANCH  21  23
ENDBRANCH   1  17
BRANCH   8  25
HETATM   25  C   UNK N   1      30.868  17.200   5.889  0.00  0.00     0.023 A 
HETATM   26  C   UNK N   1      31.482  17.306   7.179  0.00  0.00     0.046 A 
HETATM   27 Cl   UNK N   1      30.586  17.402   8.695  0.00  0.00    -0.083 Cl
HETATM   28  C   UNK N   1      32.869  17.392   7.297  0.00  0.00     0.025 A 
HETATM   29  C   UNK N   1      33.685  17.364   6.177  0.00  0.00     0.003 A 
HETATM   30  C   UNK N   1      33.123  17.220   4.918  0.00  0.00     0.025 A 
HETATM   31  C   UNK N   1      31.741  17.136   4.748  0.00  0.00     0.046 A 
HETATM   32 Cl   UNK N   1      31.218  16.818   3.095  0.00  0.00    -0.083 Cl
ENDBRANCH   8  25
TORSDOF 3
ENDMDL
MODEL 7
REMARK VINA RESULT:      -7.3      5.487     10.288
REMARK  3 active torsions:
REMARK  status: ('A' for Active; 'I' for Inactive)
REMARK    1  A    between atoms: S_2  and  C_3 
REMARK    2  A    between atoms: C_7  and  N_8 
REMARK       I    between atoms: N_8  and  C_9 
REMARK    3  A    between atoms: C_15  and  C_23 
ROOT
HETATM    1  N   UNK N   1      34.547  15.986   5.854  0.00  0.00    -0.192 N 
HETATM    2  C   UNK N   1      33.293  16.452   5.384  0.00  0.00     0.684 A 
HETATM    3  N   UNK N   1      33.096  16.775   4.076  0.00  0.00    -0.201 N 
ATOM      4  HN  UNK N   1      33.860  16.677   3.408  1.00  0.00     0.183 HD
HETATM    5  C   UNK N   1      31.878  17.230   3.656  0.00  0.00     0.121 A 
HETATM    6  C   UNK N   1      30.834  17.385   4.578  0.00  0.00     0.026 A 
HETATM    7  C   UNK N   1      29.587  17.874   4.208  0.00  0.00     0.034 A 
HETATM    8  C   UNK N   1      28.568  18.069   5.160  0.00  0.00     0.047 A 
HETATM    9  C   UNK N   1      28.868  17.756   6.516  0.00  0.00     0.260 A 
HETATM   10  O   UNK N   1      28.067  17.996   7.399  0.00  0.00    -0.267 OA
HETATM   11  N   UNK N   1      30.101  17.243   6.854  0.00  0.00    -0.303 N 
HETATM   12  C   UNK N   1      30.391  16.926   8.253  0.00  0.00     0.161 C 
HETATM   13  C   UNK N   1      31.070  17.066   5.915  0.00  0.00     0.137 A 
HETATM   14  N   UNK N   1      32.283  16.609   6.275  0.00  0.00    -0.175 N 
ATOM     15  HN  UNK N   1      32.449  16.372   7.254  1.00  0.00     0.186 HD
HETATM   16  H   UNK N   1      35.362  16.108   5.314  0.00  0.00     0.184 HD
ENDROOT
BRANCH   1  17
HETATM   17  C   UNK N   1      34.607  15.339   7.120  0.00  0.00     0.050 A 
HETATM   18  C   UNK N   1      34.441  13.955   7.221  0.00  0.00     0.030 A 
HETATM   19  C   UNK N   1      34.624  13.321   8.459  0.00  0.00     0.004 A 
HETATM   20  C   UNK N   1      34.965  14.070   9.594  0.00  0.00     0.018 A 
HETATM   21  C   UNK N   1      35.117  15.456   9.496  0.00  0.00     0.002 A 
HETATM   22  C   UNK N   1      34.941  16.081   8.266  0.00  0.00     0.048 A 
BRANCH  21  23
HETATM   23  S   UNK N   1      35.529  16.438  10.934  0.00  0.00    -0.134 SA
HETATM   24  C   UNK N   1      35.668  14.989  12.017  0.00  0.00     0.095 C 
ENDBRANCH  21  23
ENDBRANCH   1  17
BRANCH   8  25
HETATM   25  C   UNK N   1      27.250  18.683   4.730  0.00  0.00     0.023 A 
HETATM   26  C   UNK N   1      26.305  17.901   3.990  0.00  0.00     0.046 A 
HETATM   27 Cl   UNK N   1      26.564  16.221   3.521  0.00  0.00    -0.083 Cl
HETATM   28  C   UNK N   1      25.111  18.469   3.547  0.00  0.00     0.025 A 
HETATM   29  C   UNK N   1      24.805  19.793   3.819  0.00  0.00     0.003 A 
HETATM   30  C   UNK N   1      25.681  20.563   4.569  0.00  0.00     0.025 A 
HETATM   31  C   UNK N   1      26.890  20.041   5.029  0.00  0.00     0.046 A 
HETATM   32 Cl   UNK N   1      27.807  21.121   6.079  0.00  0.00    -0.083 Cl
ENDBRANCH   8  25
TORSDOF 3
ENDMDL
MODEL 8
REMARK VINA RESULT:      -7.3      3.719      8.136
REMARK  3 active torsions:
REMARK  status: ('A' for Active; 'I' for Inactive)
REMARK    1  A    between atoms: S_2  and  C_3 
REMARK    2  A    between atoms: C_7  and  N_8 
REMARK       I    between atoms: N_8  and  C_9 
REMARK    3  A    between atoms: C_15  and  C_23 
ROOT
HETATM    1  N   UNK N   1      35.852  15.121  12.520  0.00  0.00    -0.192 N 
HETATM    2  C   UNK N   1      35.334  15.525  11.263  0.00  0.00     0.684 A 
HETATM    3  N   UNK N   1      35.407  16.819  10.844  0.00  0.00    -0.201 N 
ATOM      4  HN  UNK N   1      35.849  17.521  11.438  1.00  0.00     0.183 HD
HETATM    5  C   UNK N   1      34.891  17.179   9.632  0.00  0.00     0.121 A 
HETATM    6  C   UNK N   1      34.265  16.219   8.826  0.00  0.00     0.026 A 
HETATM    7  C   UNK N   1      33.696  16.540   7.599  0.00  0.00     0.034 A 
HETATM    8  C   UNK N   1      33.027  15.569   6.829  0.00  0.00     0.047 A 
HETATM    9  C   UNK N   1      32.949  14.251   7.359  0.00  0.00     0.260 A 
HETATM   10  O   UNK N   1      32.300  13.392   6.792  0.00  0.00    -0.267 OA
HETATM   11  N   UNK N   1      33.548  13.949   8.562  0.00  0.00    -0.303 N 
HETATM   12  C   UNK N   1      33.458  12.588   9.091  0.00  0.00     0.161 C 
HETATM   13  C   UNK N   1      34.186  14.906   9.289  0.00  0.00     0.137 A 
HETATM   14  N   UNK N   1      34.722  14.600  10.485  0.00  0.00    -0.175 N 
ATOM     15  HN  UNK N   1      34.666  13.637  10.817  1.00  0.00     0.186 HD
HETATM   16  H   UNK N   1      36.058  15.788  13.215  0.00  0.00     0.184 HD
ENDROOT
BRANCH   1  17
HETATM   17  C   UNK N   1      36.069  13.735  12.758  0.00  0.00     0.050 A 
HETATM   18  C   UNK N   1      37.105  13.055  12.112  0.00  0.00     0.030 A 
HETATM   19  C   UNK N   1      37.378  11.721  12.450  0.00  0.00     0.004 A 
HETATM   20  C   UNK N   1      36.613  11.067  13.425  0.00  0.00     0.018 A 
HETATM   21  C   UNK N   1      35.567  11.743  14.060  0.00  0.00     0.002 A 
HETATM   22  C   UNK N   1      35.303  13.067  13.728  0.00  0.00     0.048 A 
BRANCH  21  23
HETATM   23  S   UNK N   1      34.560  10.923  15.292  0.00  0.00    -0.134 SA
HETATM   24  C   UNK N   1      35.124  12.011  16.632  0.00  0.00     0.095 C 
ENDBRANCH  21  23
ENDBRANCH   1  17
BRANCH   8  25
HETATM   25  C   UNK N   1      32.348  15.978   5.537  0.00  0.00     0.023 A 
HETATM   26  C   UNK N   1      32.930  15.620   4.278  0.00  0.00     0.046 A 
HETATM   27 Cl   UNK N   1      34.431  14.710   4.107  0.00  0.00    -0.083 Cl
HETATM   28  C   UNK N   1      32.340  16.032   3.084  0.00  0.00     0.025 A 
HETATM   29  C   UNK N   1      31.176  16.785   3.083  0.00  0.00     0.003 A 
HETATM   30  C   UNK N   1      30.566  17.112   4.285  0.00  0.00     0.025 A 
HETATM   31  C   UNK N   1      31.121  16.727   5.506  0.00  0.00     0.046 A 
HETATM   32 Cl   UNK N   1      30.137  17.111   6.917  0.00  0.00    -0.083 Cl
ENDBRANCH   8  25
TORSDOF 3
ENDMDL
MODEL 9
REMARK VINA RESULT:      -7.3      7.640     11.028
REMARK  3 active torsions:
REMARK  status: ('A' for Active; 'I' for Inactive)
REMARK    1  A    between atoms: S_2  and  C_3 
REMARK    2  A    between atoms: C_7  and  N_8 
REMARK       I    between atoms: N_8  and  C_9 
REMARK    3  A    between atoms: C_15  and  C_23 
ROOT
HETATM    1  N   UNK N   1      23.249  19.088   3.925  0.00  0.00    -0.192 N 
HETATM    2  C   UNK N   1      24.643  19.036   4.184  0.00  0.00     0.684 A 
HETATM    3  N   UNK N   1      25.446  20.118   3.986  0.00  0.00    -0.201 N 
ATOM      4  HN  UNK N   1      25.045  20.994   3.649  1.00  0.00     0.183 HD
HETATM    5  C   UNK N   1      26.786  20.033   4.236  0.00  0.00     0.121 A 
HETATM    6  C   UNK N   1      27.340  18.824   4.678  0.00  0.00     0.026 A 
HETATM    7  C   UNK N   1      28.701  18.678   4.916  0.00  0.00     0.034 A 
HETATM    8  C   UNK N   1      29.243  17.439   5.311  0.00  0.00     0.047 A 
HETATM    9  C   UNK N   1      28.345  16.344   5.447  0.00  0.00     0.260 A 
HETATM   10  O   UNK N   1      28.763  15.226   5.687  0.00  0.00    -0.267 OA
HETATM   11  N   UNK N   1      26.996  16.521   5.236  0.00  0.00    -0.303 N 
HETATM   12  C   UNK N   1      26.088  15.382   5.382  0.00  0.00     0.161 C 
HETATM   13  C   UNK N   1      26.497  17.727   4.852  0.00  0.00     0.137 A 
HETATM   14  N   UNK N   1      25.182  17.866   4.604  0.00  0.00    -0.175 N 
ATOM     15  HN  UNK N   1      24.569  17.062   4.739  1.00  0.00     0.186 HD
HETATM   16  H   UNK N   1      22.868  19.813   3.377  0.00  0.00     0.184 HD
ENDROOT
BRANCH   1  17
HETATM   17  C   UNK N   1      22.413  18.073   4.469  0.00  0.00     0.050 A 
HETATM   18  C   UNK N   1      22.081  18.077   5.826  0.00  0.00     0.030 A 
HETATM   19  C   UNK N   1      21.160  17.140   6.319  0.00  0.00     0.004 A 
HETATM   20  C   UNK N   1      20.578  16.199   5.458  0.00  0.00     0.018 A 
HETATM   21  C   UNK N   1      20.921  16.187   4.104  0.00  0.00     0.002 A 
HETATM   22  C   UNK N   1      21.830  17.120   3.616  0.00  0.00     0.048 A 
BRANCH  21  23
HETATM   23  S   UNK N   1      20.211  14.981   2.988  0.00  0.00    -0.134 SA
HETATM   24  C   UNK N   1      20.345  16.077   1.547  0.00  0.00     0.095 C 
ENDBRANCH  21  23
ENDBRANCH   1  17
BRANCH   8  25
HETATM   25  C   UNK N   1      30.743  17.299   5.479  0.00  0.00     0.023 A 
HETATM   26  C   UNK N   1      31.324  17.354   6.788  0.00  0.00     0.046 A 
HETATM   27 Cl   UNK N   1      30.399  17.582   8.271  0.00  0.00    -0.083 Cl
HETATM   28  C   UNK N   1      32.707  17.276   6.951  0.00  0.00     0.025 A 
HETATM   29  C   UNK N   1      33.549  17.132   5.859  0.00  0.00     0.003 A 
HETATM   30  C   UNK N   1      33.014  17.034   4.584  0.00  0.00     0.025 A 
HETATM   31  C   UNK N   1      31.638  17.113   4.369  0.00  0.00     0.046 A 
HETATM   32 Cl   UNK N   1      31.133  16.830   2.704  0.00  0.00    -0.083 Cl
ENDBRANCH   8  25
TORSDOF 3
ENDMDL
