MODEL 1
REMARK VINA RESULT:      -8.1      0.000      0.000
REMARK  14 active torsions:
REMARK  status: ('A' for Active; 'I' for Inactive)
REMARK    1  A    between atoms: C_8  and  C_7 
REMARK    2  A    between atoms: C_17  and  C_7 
REMARK    3  A    between atoms: C_18  and  C_8 
REMARK    4  A    between atoms: C_11  and  C_9 
REMARK    5  A    between atoms: C_14  and  C_9 
REMARK    6  A    between atoms: C_14  and  C_12 
REMARK    7  A    between atoms: C_19  and  C_13 
REMARK    8  A    between atoms: C_14  and  C_21 
REMARK    9  A    between atoms: C_22  and  C_17 
REMARK   10  A    between atoms: C_17  and  N_26 
REMARK   11  A    between atoms: O_31  and  C_18 
REMARK       I    between atoms: N_26  and  C_19 
REMARK   12  A    between atoms: O_33  and  C_20 
REMARK   13  A    between atoms: O_35  and  C_21 
REMARK   14  A    between atoms: O_37  and  C_22 
REMARK       I    between atoms: N_24  and  C_23 
ROOT
HETATM    1  C   UNK N   1      28.045  17.083   4.975  0.00  0.00     0.121 C 
ENDROOT
BRANCH   1   2
HETATM    2  C   UNK N   1      28.005  16.486   6.402  0.00  0.00     0.058 C 
BRANCH   2   3
HETATM    3  C   UNK N   1      29.266  16.819   7.111  0.00  0.00    -0.056 A 
HETATM    4  C   UNK N   1      29.221  17.448   8.358  0.00  0.00     0.009 A 
HETATM    5  C   UNK N   1      30.402  17.927   8.938  0.00  0.00     0.031 A 
HETATM    6  C   UNK N   1      31.612  17.808   8.245  0.00  0.00     0.063 A 
HETATM    7  C   UNK N   1      31.647  17.168   6.995  0.00  0.00     0.043 A 
HETATM    8  N   UNK N   1      32.751  18.337   8.759  0.00  0.00    -0.191 N 
HETATM    9  C   UNK N   1      30.482  16.663   6.444  0.00  0.00     0.025 A 
HETATM   10  C   UNK N   1      32.858  17.092   6.309  0.00  0.00     0.167 A 
HETATM   11  N   UNK N   1      33.971  17.641   6.859  0.00  0.00    -0.170 N 
HETATM   12  C   UNK N   1      33.921  18.259   8.071  0.00  0.00     0.678 A 
ATOM     13  HN  UNK N   1      34.856  17.591   6.356  1.00  0.00     0.186 HD
HETATM   14  N   UNK N   1      34.980  18.784   8.558  0.00  0.00    -0.234 N 
HETATM   15  H   UNK N   1      34.964  19.398   9.327  0.00  0.00     0.174 HD
ATOM     16  HN  UNK N   1      35.879  18.558   8.132  1.00  0.00     0.174 HD
HETATM   17  H   UNK N   1      32.729  18.782   9.637  0.00  0.00     0.184 HD
BRANCH  10  18
HETATM   18  O   UNK N   1      32.928  16.501   5.102  0.00  0.00    -0.345 OA
HETATM   19  H   UNK N   1      33.184  16.998   4.349  0.00  0.00     0.219 HD
ENDBRANCH  10  18
ENDBRANCH   2   3
ENDBRANCH   1   2
BRANCH   1  20
HETATM   20  C   UNK N   1      26.929  18.080   4.807  0.00  0.00    -0.044 A 
HETATM   21  C   UNK N   1      27.204  19.337   4.273  0.00  0.00     0.009 A 
HETATM   22  C   UNK N   1      26.177  20.137   3.829  0.00  0.00     0.017 A 
HETATM   23  C   UNK N   1      24.850  19.701   3.913  0.00  0.00     0.032 A 
HETATM   24  C   UNK N   1      24.549  18.499   4.556  0.00  0.00     0.017 A 
HETATM   25  C   UNK N   1      25.591  17.691   5.010  0.00  0.00     0.009 A 
BRANCH  23  26
HETATM   26  C   UNK N   1      23.903  20.277   2.961  0.00  0.00     0.252 C 
HETATM   27  N   UNK N   1      22.683  19.699   2.944  0.00  0.00    -0.343 N 
HETATM   28  H   UNK N   1      22.663  18.749   3.204  0.00  0.00     0.163 HD
HETATM   29  O   UNK N   1      24.099  21.375   2.463  0.00  0.00    -0.268 OA
BRANCH  27  30
HETATM   30  C   UNK N   1      21.410  20.265   2.600  0.00  0.00     0.183 C 
BRANCH  30  31
HETATM   31  C   UNK N   1      20.477  19.554   3.581  0.00  0.00     0.046 C 
BRANCH  31  32
HETATM   32  C   UNK N   1      20.872  18.214   4.144  0.00  0.00     0.112 C 
BRANCH  32  33
HETATM   33  C   UNK N   1      19.956  17.221   3.507  0.00  0.00     0.139 C 
HETATM   34  O   UNK N   1      20.209  16.786   2.396  0.00  0.00    -0.650 OA
BRANCH  33  35
HETATM   35  O   UNK N   1      18.881  16.758   4.178  0.00  0.00    -0.776 OA
HETATM   36  H   UNK N   1      18.840  15.994   4.718  0.00  0.00     0.167 HD
ENDBRANCH  33  35
ENDBRANCH  32  33
ENDBRANCH  31  32
ENDBRANCH  30  31
BRANCH  30  37
HETATM   37  C   UNK N   1      21.092  20.134   1.128  0.00  0.00     0.163 C 
HETATM   38  O   UNK N   1      21.392  21.034   0.362  0.00  0.00    -0.648 OA
BRANCH  37  39
HETATM   39  O   UNK N   1      20.428  19.068   0.651  0.00  0.00    -0.775 OA
HETATM   40  H   UNK N   1      19.674  18.720   1.087  0.00  0.00     0.167 HD
ENDBRANCH  37  39
ENDBRANCH  30  37
ENDBRANCH  27  30
ENDBRANCH  23  26
ENDBRANCH   1  20
BRANCH   1  41
HETATM   41  C   UNK N   1      27.953  15.933   3.970  0.00  0.00     0.148 C 
HETATM   42  O   UNK N   1      28.081  16.150   2.775  0.00  0.00    -0.649 OA
BRANCH  41  43
HETATM   43  O   UNK N   1      27.718  14.671   4.385  0.00  0.00    -0.776 OA
HETATM   44  H   UNK N   1      27.613  13.906   4.916  0.00  0.00     0.167 HD
ENDBRANCH  41  43
ENDBRANCH   1  41
TORSDOF 14
ENDMDL
MODEL 2
REMARK VINA RESULT:      -7.8     10.733     13.288
REMARK  14 active torsions:
REMARK  status: ('A' for Active; 'I' for Inactive)
REMARK    1  A    between atoms: C_8  and  C_7 
REMARK    2  A    between atoms: C_17  and  C_7 
REMARK    3  A    between atoms: C_18  and  C_8 
REMARK    4  A    between atoms: C_11  and  C_9 
REMARK    5  A    between atoms: C_14  and  C_9 
REMARK    6  A    between atoms: C_14  and  C_12 
REMARK    7  A    between atoms: C_19  and  C_13 
REMARK    8  A    between atoms: C_14  and  C_21 
REMARK    9  A    between atoms: C_22  and  C_17 
REMARK   10  A    between atoms: C_17  and  N_26 
REMARK   11  A    between atoms: O_31  and  C_18 
REMARK       I    between atoms: N_26  and  C_19 
REMARK   12  A    between atoms: O_33  and  C_20 
REMARK   13  A    between atoms: O_35  and  C_21 
REMARK   14  A    between atoms: O_37  and  C_22 
REMARK       I    between atoms: N_24  and  C_23 
ROOT
HETATM    1  C   UNK N   1      27.635  26.380  -3.880  0.00  0.00     0.121 C 
ENDROOT
BRANCH   1   2
HETATM    2  C   UNK N   1      28.967  26.734  -4.582  0.00  0.00     0.058 C 
BRANCH   2   3
HETATM    3  C   UNK N   1      29.784  25.504  -4.740  0.00  0.00    -0.056 A 
HETATM    4  C   UNK N   1      30.127  25.052  -6.017  0.00  0.00     0.009 A 
HETATM    5  C   UNK N   1      30.733  23.800  -6.171  0.00  0.00     0.031 A 
HETATM    6  C   UNK N   1      30.954  22.993  -5.049  0.00  0.00     0.063 A 
HETATM    7  C   UNK N   1      30.611  23.460  -3.769  0.00  0.00     0.043 A 
HETATM    8  N   UNK N   1      31.468  21.746  -5.191  0.00  0.00    -0.191 N 
HETATM    9  C   UNK N   1      30.046  24.715  -3.619  0.00  0.00     0.025 A 
HETATM   10  C   UNK N   1      30.809  22.625  -2.671  0.00  0.00     0.167 A 
HETATM   11  N   UNK N   1      31.320  21.383  -2.862  0.00  0.00    -0.170 N 
HETATM   12  C   UNK N   1      31.647  20.943  -4.108  0.00  0.00     0.678 A 
ATOM     13  HN  UNK N   1      31.460  20.769  -2.060  1.00  0.00     0.186 HD
HETATM   14  N   UNK N   1      32.110  19.762  -4.263  0.00  0.00    -0.234 N 
HETATM   15  H   UNK N   1      32.184  19.331  -5.144  0.00  0.00     0.174 HD
ATOM     16  HN  UNK N   1      32.415  19.245  -3.438  1.00  0.00     0.174 HD
HETATM   17  H   UNK N   1      31.714  21.419  -6.087  0.00  0.00     0.184 HD
BRANCH  10  18
HETATM   18  O   UNK N   1      30.477  23.031  -1.431  0.00  0.00    -0.345 OA
HETATM   19  H   UNK N   1      30.320  22.400  -0.756  0.00  0.00     0.219 HD
ENDBRANCH  10  18
ENDBRANCH   2   3
ENDBRANCH   1   2
BRANCH   1  20
HETATM   20  C   UNK N   1      26.733  25.646  -4.836  0.00  0.00    -0.044 A 
HETATM   21  C   UNK N   1      26.392  26.238  -6.052  0.00  0.00     0.009 A 
HETATM   22  C   UNK N   1      25.837  25.479  -7.056  0.00  0.00     0.017 A 
HETATM   23  C   UNK N   1      25.605  24.112  -6.868  0.00  0.00     0.032 A 
HETATM   24  C   UNK N   1      25.826  23.531  -5.618  0.00  0.00     0.017 A 
HETATM   25  C   UNK N   1      26.385  24.302  -4.599  0.00  0.00     0.009 A 
BRANCH  23  26
HETATM   26  C   UNK N   1      25.570  23.276  -8.065  0.00  0.00     0.252 C 
HETATM   27  N   UNK N   1      26.698  22.575  -8.310  0.00  0.00    -0.343 N 
HETATM   28  H   UNK N   1      27.528  22.982  -7.969  0.00  0.00     0.163 HD
HETATM   29  O   UNK N   1      24.513  22.998  -8.609  0.00  0.00    -0.268 OA
BRANCH  27  30
HETATM   30  C   UNK N   1      26.866  21.326  -8.994  0.00  0.00     0.183 C 
BRANCH  30  31
HETATM   31  C   UNK N   1      28.353  21.046  -8.775  0.00  0.00     0.046 C 
BRANCH  31  32
HETATM   32  C   UNK N   1      28.869  20.825  -7.377  0.00  0.00     0.112 C 
BRANCH  32  33
HETATM   33  C   UNK N   1      29.663  19.561  -7.433  0.00  0.00     0.139 C 
HETATM   34  O   UNK N   1      29.108  18.504  -7.679  0.00  0.00    -0.650 OA
BRANCH  33  35
HETATM   35  O   UNK N   1      31.002  19.591  -7.270  0.00  0.00    -0.776 OA
HETATM   36  H   UNK N   1      31.578  20.304  -7.464  0.00  0.00     0.167 HD
ENDBRANCH  33  35
ENDBRANCH  32  33
ENDBRANCH  31  32
ENDBRANCH  30  31
BRANCH  30  37
HETATM   37  C   UNK N   1      26.377  21.374 -10.424  0.00  0.00     0.163 C 
HETATM   38  O   UNK N   1      27.081  21.870 -11.287  0.00  0.00    -0.648 OA
BRANCH  37  39
HETATM   39  O   UNK N   1      25.152  20.934 -10.756  0.00  0.00    -0.775 OA
HETATM   40  H   UNK N   1      24.539  21.478 -11.212  0.00  0.00     0.167 HD
ENDBRANCH  37  39
ENDBRANCH  30  37
ENDBRANCH  27  30
ENDBRANCH  23  26
ENDBRANCH   1  20
BRANCH   1  41
HETATM   41  C   UNK N   1      27.004  27.675  -3.365  0.00  0.00     0.148 C 
HETATM   42  O   UNK N   1      25.948  27.642  -2.751  0.00  0.00    -0.649 OA
BRANCH  41  43
HETATM   43  O   UNK N   1      27.595  28.868  -3.589  0.00  0.00    -0.776 OA
HETATM   44  H   UNK N   1      28.171  29.539  -3.897  0.00  0.00     0.167 HD
ENDBRANCH  41  43
ENDBRANCH   1  41
TORSDOF 14
ENDMDL
MODEL 3
REMARK VINA RESULT:      -7.8      9.060     13.534
REMARK  14 active torsions:
REMARK  status: ('A' for Active; 'I' for Inactive)
REMARK    1  A    between atoms: C_8  and  C_7 
REMARK    2  A    between atoms: C_17  and  C_7 
REMARK    3  A    between atoms: C_18  and  C_8 
REMARK    4  A    between atoms: C_11  and  C_9 
REMARK    5  A    between atoms: C_14  and  C_9 
REMARK    6  A    between atoms: C_14  and  C_12 
REMARK    7  A    between atoms: C_19  and  C_13 
REMARK    8  A    between atoms: C_14  and  C_21 
REMARK    9  A    between atoms: C_22  and  C_17 
REMARK   10  A    between atoms: C_17  and  N_26 
REMARK   11  A    between atoms: O_31  and  C_18 
REMARK       I    between atoms: N_26  and  C_19 
REMARK   12  A    between atoms: O_33  and  C_20 
REMARK   13  A    between atoms: O_35  and  C_21 
REMARK   14  A    between atoms: O_37  and  C_22 
REMARK       I    between atoms: N_24  and  C_23 
ROOT
HETATM    1  C   UNK N   1      35.317  11.487  13.065  0.00  0.00     0.121 C 
ENDROOT
BRANCH   1   2
HETATM    2  C   UNK N   1      34.261  11.816  14.148  0.00  0.00     0.058 C 
BRANCH   2   3
HETATM    3  C   UNK N   1      34.743  11.337  15.468  0.00  0.00    -0.056 A 
HETATM    4  C   UNK N   1      34.774   9.968  15.746  0.00  0.00     0.009 A 
HETATM    5  C   UNK N   1      35.049   9.529  17.045  0.00  0.00     0.031 A 
HETATM    6  C   UNK N   1      35.250  10.465  18.066  0.00  0.00     0.063 A 
HETATM    7  C   UNK N   1      35.224  11.840  17.775  0.00  0.00     0.043 A 
HETATM    8  N   UNK N   1      35.440  10.056  19.345  0.00  0.00    -0.191 N 
HETATM    9  C   UNK N   1      34.988  12.267  16.479  0.00  0.00     0.025 A 
HETATM   10  C   UNK N   1      35.393  12.754  18.813  0.00  0.00     0.167 A 
HETATM   11  N   UNK N   1      35.573  12.298  20.079  0.00  0.00    -0.170 N 
HETATM   12  C   UNK N   1      35.596  10.963  20.346  0.00  0.00     0.678 A 
ATOM     13  HN  UNK N   1      35.692  12.965  20.840  1.00  0.00     0.186 HD
HETATM   14  N   UNK N   1      35.749  10.561  21.549  0.00  0.00    -0.234 N 
HETATM   15  H   UNK N   1      35.587   9.630  21.824  0.00  0.00     0.174 HD
ATOM     16  HN  UNK N   1      36.052  11.232  22.255  1.00  0.00     0.174 HD
HETATM   17  H   UNK N   1      35.464   9.094  19.551  0.00  0.00     0.184 HD
BRANCH  10  18
HETATM   18  O   UNK N   1      35.356  14.078  18.576  0.00  0.00    -0.345 OA
HETATM   19  H   UNK N   1      34.575  14.566  18.750  0.00  0.00     0.219 HD
ENDBRANCH  10  18
ENDBRANCH   2   3
ENDBRANCH   1   2
BRANCH   1  20
HETATM   20  C   UNK N   1      35.802  12.759  12.422  0.00  0.00    -0.044 A 
HETATM   21  C   UNK N   1      36.082  12.777  11.057  0.00  0.00     0.009 A 
HETATM   22  C   UNK N   1      36.225  13.976  10.398  0.00  0.00     0.017 A 
HETATM   23  C   UNK N   1      36.095  15.186  11.090  0.00  0.00     0.032 A 
HETATM   24  C   UNK N   1      35.938  15.185  12.477  0.00  0.00     0.017 A 
HETATM   25  C   UNK N   1      35.798  13.969  13.144  0.00  0.00     0.009 A 
BRANCH  23  26
HETATM   26  C   UNK N   1      35.692  16.353  10.310  0.00  0.00     0.252 C 
HETATM   27  N   UNK N   1      34.709  16.131   9.411  0.00  0.00    -0.343 N 
HETATM   28  H   UNK N   1      34.662  15.214   9.056  0.00  0.00     0.163 HD
HETATM   29  O   UNK N   1      35.994  17.483  10.663  0.00  0.00    -0.268 OA
BRANCH  27  30
HETATM   30  C   UNK N   1      33.724  17.037   8.893  0.00  0.00     0.183 C 
BRANCH  30  31
HETATM   31  C   UNK N   1      32.647  16.074   8.391  0.00  0.00     0.046 C 
BRANCH  31  32
HETATM   32  C   UNK N   1      32.857  14.589   8.528  0.00  0.00     0.112 C 
BRANCH  32  33
HETATM   33  C   UNK N   1      33.150  14.092   7.149  0.00  0.00     0.139 C 
HETATM   34  O   UNK N   1      32.442  13.237   6.648  0.00  0.00    -0.650 OA
BRANCH  33  35
HETATM   35  O   UNK N   1      34.161  14.629   6.434  0.00  0.00    -0.776 OA
HETATM   36  H   UNK N   1      34.285  14.577   5.507  0.00  0.00     0.167 HD
ENDBRANCH  33  35
ENDBRANCH  32  33
ENDBRANCH  31  32
ENDBRANCH  30  31
BRANCH  30  37
HETATM   37  C   UNK N   1      34.297  18.013   7.891  0.00  0.00     0.163 C 
HETATM   38  O   UNK N   1      34.228  17.766   6.699  0.00  0.00    -0.648 OA
BRANCH  37  39
HETATM   39  O   UNK N   1      34.939  19.124   8.290  0.00  0.00    -0.775 OA
HETATM   40  H   UNK N   1      35.750  19.084   8.759  0.00  0.00     0.167 HD
ENDBRANCH  37  39
ENDBRANCH  30  37
ENDBRANCH  27  30
ENDBRANCH  23  26
ENDBRANCH   1  20
BRANCH   1  41
HETATM   41  C   UNK N   1      34.685  10.529  12.053  0.00  0.00     0.148 C 
HETATM   42  O   UNK N   1      35.307   9.554  11.660  0.00  0.00    -0.649 OA
BRANCH  41  43
HETATM   43  O   UNK N   1      33.444  10.753  11.572  0.00  0.00    -0.776 OA
HETATM   44  H   UNK N   1      32.536  10.970  11.501  0.00  0.00     0.167 HD
ENDBRANCH  41  43
ENDBRANCH   1  41
TORSDOF 14
ENDMDL
MODEL 4
REMARK VINA RESULT:      -7.8      4.331      6.915
REMARK  14 active torsions:
REMARK  status: ('A' for Active; 'I' for Inactive)
REMARK    1  A    between atoms: C_8  and  C_7 
REMARK    2  A    between atoms: C_17  and  C_7 
REMARK    3  A    between atoms: C_18  and  C_8 
REMARK    4  A    between atoms: C_11  and  C_9 
REMARK    5  A    between atoms: C_14  and  C_9 
REMARK    6  A    between atoms: C_14  and  C_12 
REMARK    7  A    between atoms: C_19  and  C_13 
REMARK    8  A    between atoms: C_14  and  C_21 
REMARK    9  A    between atoms: C_22  and  C_17 
REMARK   10  A    between atoms: C_17  and  N_26 
REMARK   11  A    between atoms: O_31  and  C_18 
REMARK       I    between atoms: N_26  and  C_19 
REMARK   12  A    between atoms: O_33  and  C_20 
REMARK   13  A    between atoms: O_35  and  C_21 
REMARK   14  A    between atoms: O_37  and  C_22 
REMARK       I    between atoms: N_24  and  C_23 
ROOT
HETATM    1  C   UNK N   1      33.273  17.263   8.661  0.00  0.00     0.121 C 
ENDROOT
BRANCH   1   2
HETATM    2  C   UNK N   1      33.867  15.833   8.638  0.00  0.00     0.058 C 
BRANCH   2   3
HETATM    3  C   UNK N   1      34.458  15.523   9.963  0.00  0.00    -0.056 A 
HETATM    4  C   UNK N   1      35.262  16.467  10.608  0.00  0.00     0.009 A 
HETATM    5  C   UNK N   1      35.967  16.108  11.762  0.00  0.00     0.031 A 
HETATM    6  C   UNK N   1      35.895  14.794  12.238  0.00  0.00     0.063 A 
HETATM    7  C   UNK N   1      35.078  13.854  11.586  0.00  0.00     0.043 A 
HETATM    8  N   UNK N   1      36.633  14.410  13.308  0.00  0.00    -0.191 N 
HETATM    9  C   UNK N   1      34.353  14.226  10.466  0.00  0.00     0.025 A 
HETATM   10  C   UNK N   1      35.048  12.543  12.058  0.00  0.00     0.167 A 
HETATM   11  N   UNK N   1      35.810  12.203  13.129  0.00  0.00    -0.170 N 
HETATM   12  C   UNK N   1      36.596  13.124  13.750  0.00  0.00     0.678 A 
ATOM     13  HN  UNK N   1      35.793  11.244  13.473  1.00  0.00     0.186 HD
HETATM   14  N   UNK N   1      37.318  12.774  14.745  0.00  0.00    -0.234 N 
HETATM   15  H   UNK N   1      38.035  13.341  15.108  0.00  0.00     0.174 HD
ATOM     16  HN  UNK N   1      37.141  11.869  15.182  1.00  0.00     0.174 HD
HETATM   17  H   UNK N   1      37.202  15.068  13.770  0.00  0.00     0.184 HD
BRANCH  10  18
HETATM   18  O   UNK N   1      34.292  11.610  11.450  0.00  0.00    -0.345 OA
HETATM   19  H   UNK N   1      33.420  11.444  11.748  0.00  0.00     0.219 HD
ENDBRANCH  10  18
ENDBRANCH   2   3
ENDBRANCH   1   2
BRANCH   1  20
HETATM   20  C   UNK N   1      31.861  17.237   8.141  0.00  0.00    -0.044 A 
HETATM   21  C   UNK N   1      30.957  18.213   8.557  0.00  0.00     0.009 A 
HETATM   22  C   UNK N   1      29.776  18.395   7.875  0.00  0.00     0.017 A 
HETATM   23  C   UNK N   1      29.469  17.603   6.762  0.00  0.00     0.032 A 
HETATM   24  C   UNK N   1      30.305  16.542   6.408  0.00  0.00     0.017 A 
HETATM   25  C   UNK N   1      31.499  16.356   7.103  0.00  0.00     0.009 A 
BRANCH  23  26
HETATM   26  C   UNK N   1      28.555  18.173   5.777  0.00  0.00     0.252 C 
HETATM   27  N   UNK N   1      27.270  18.275   6.177  0.00  0.00    -0.343 N 
HETATM   28  H   UNK N   1      26.983  17.611   6.846  0.00  0.00     0.163 HD
HETATM   29  O   UNK N   1      28.975  18.788   4.809  0.00  0.00    -0.268 OA
BRANCH  27  30
HETATM   30  C   UNK N   1      26.258  19.208   5.770  0.00  0.00     0.183 C 
BRANCH  30  31
HETATM   31  C   UNK N   1      26.228  18.995   4.256  0.00  0.00     0.046 C 
BRANCH  31  32
HETATM   32  C   UNK N   1      24.927  19.142   3.511  0.00  0.00     0.112 C 
BRANCH  32  33
HETATM   33  C   UNK N   1      25.064  20.387   2.696  0.00  0.00     0.139 C 
HETATM   34  O   UNK N   1      24.081  20.886   2.178  0.00  0.00    -0.650 OA
BRANCH  33  35
HETATM   35  O   UNK N   1      26.263  20.994   2.580  0.00  0.00    -0.776 OA
HETATM   36  H   UNK N   1      27.006  20.889   3.141  0.00  0.00     0.167 HD
ENDBRANCH  33  35
ENDBRANCH  32  33
ENDBRANCH  31  32
ENDBRANCH  30  31
BRANCH  30  37
HETATM   37  C   UNK N   1      26.525  20.611   6.264  0.00  0.00     0.163 C 
HETATM   38  O   UNK N   1      26.979  21.445   5.499  0.00  0.00    -0.648 OA
BRANCH  37  39
HETATM   39  O   UNK N   1      26.330  20.946   7.551  0.00  0.00    -0.775 OA
HETATM   40  H   UNK N   1      26.836  20.564   8.242  0.00  0.00     0.167 HD
ENDBRANCH  37  39
ENDBRANCH  30  37
ENDBRANCH  27  30
ENDBRANCH  23  26
ENDBRANCH   1  20
BRANCH   1  41
HETATM   41  C   UNK N   1      34.182  18.174   7.833  0.00  0.00     0.148 C 
HETATM   42  O   UNK N   1      34.777  19.097   8.368  0.00  0.00    -0.649 OA
BRANCH  41  43
HETATM   43  O   UNK N   1      34.328  17.981   6.506  0.00  0.00    -0.776 OA
HETATM   44  H   UNK N   1      34.318  18.097   5.576  0.00  0.00     0.167 HD
ENDBRANCH  41  43
ENDBRANCH   1  41
TORSDOF 14
ENDMDL
MODEL 5
REMARK VINA RESULT:      -7.7     11.052     13.323
REMARK  14 active torsions:
REMARK  status: ('A' for Active; 'I' for Inactive)
REMARK    1  A    between atoms: C_8  and  C_7 
REMARK    2  A    between atoms: C_17  and  C_7 
REMARK    3  A    between atoms: C_18  and  C_8 
REMARK    4  A    between atoms: C_11  and  C_9 
REMARK    5  A    between atoms: C_14  and  C_9 
REMARK    6  A    between atoms: C_14  and  C_12 
REMARK    7  A    between atoms: C_19  and  C_13 
REMARK    8  A    between atoms: C_14  and  C_21 
REMARK    9  A    between atoms: C_22  and  C_17 
REMARK   10  A    between atoms: C_17  and  N_26 
REMARK   11  A    between atoms: O_31  and  C_18 
REMARK       I    between atoms: N_26  and  C_19 
REMARK   12  A    between atoms: O_33  and  C_20 
REMARK   13  A    between atoms: O_35  and  C_21 
REMARK   14  A    between atoms: O_37  and  C_22 
REMARK       I    between atoms: N_24  and  C_23 
ROOT
HETATM    1  C   UNK N   1      32.221  22.361  -3.958  0.00  0.00     0.121 C 
ENDROOT
BRANCH   1   2
HETATM    2  C   UNK N   1      31.078  22.713  -2.975  0.00  0.00     0.058 C 
BRANCH   2   3
HETATM    3  C   UNK N   1      30.333  23.891  -3.486  0.00  0.00    -0.056 A 
HETATM    4  C   UNK N   1      31.024  25.049  -3.854  0.00  0.00     0.009 A 
HETATM    5  C   UNK N   1      30.313  26.216  -4.155  0.00  0.00     0.031 A 
HETATM    6  C   UNK N   1      28.917  26.225  -4.047  0.00  0.00     0.063 A 
HETATM    7  C   UNK N   1      28.232  25.054  -3.683  0.00  0.00     0.043 A 
HETATM    8  N   UNK N   1      28.221  27.369  -4.260  0.00  0.00    -0.191 N 
HETATM    9  C   UNK N   1      28.939  23.892  -3.422  0.00  0.00     0.025 A 
HETATM   10  C   UNK N   1      26.846  25.097  -3.548  0.00  0.00     0.167 A 
HETATM   11  N   UNK N   1      26.191  26.266  -3.764  0.00  0.00    -0.170 N 
HETATM   12  C   UNK N   1      26.868  27.393  -4.116  0.00  0.00     0.678 A 
ATOM     13  HN  UNK N   1      25.178  26.300  -3.661  1.00  0.00     0.186 HD
HETATM   14  N   UNK N   1      26.230  28.485  -4.297  0.00  0.00    -0.234 N 
HETATM   15  H   UNK N   1      26.678  29.359  -4.366  0.00  0.00     0.174 HD
ATOM     16  HN  UNK N   1      25.213  28.450  -4.374  1.00  0.00     0.174 HD
HETATM   17  H   UNK N   1      28.698  28.190  -4.520  0.00  0.00     0.184 HD
BRANCH  10  18
HETATM   18  O   UNK N   1      26.156  23.999  -3.184  0.00  0.00    -0.345 OA
HETATM   19  H   UNK N   1      25.372  24.083  -2.678  0.00  0.00     0.219 HD
ENDBRANCH  10  18
ENDBRANCH   2   3
ENDBRANCH   1   2
BRANCH   1  20
HETATM   20  C   UNK N   1      31.646  21.774  -5.220  0.00  0.00    -0.044 A 
HETATM   21  C   UNK N   1      30.912  20.591  -5.156  0.00  0.00     0.009 A 
HETATM   22  C   UNK N   1      30.130  20.206  -6.220  0.00  0.00     0.017 A 
HETATM   23  C   UNK N   1      30.066  20.993  -7.375  0.00  0.00     0.032 A 
HETATM   24  C   UNK N   1      30.888  22.114  -7.504  0.00  0.00     0.017 A 
HETATM   25  C   UNK N   1      31.684  22.500  -6.426  0.00  0.00     0.009 A 
BRANCH  23  26
HETATM   26  C   UNK N   1      28.860  20.875  -8.190  0.00  0.00     0.252 C 
HETATM   27  N   UNK N   1      27.870  21.740  -7.878  0.00  0.00    -0.343 N 
HETATM   28  H   UNK N   1      27.850  22.036  -6.939  0.00  0.00     0.163 HD
HETATM   29  O   UNK N   1      28.871  20.271  -9.250  0.00  0.00    -0.268 OA
BRANCH  27  30
HETATM   30  C   UNK N   1      26.840  22.288  -8.714  0.00  0.00     0.183 C 
BRANCH  30  31
HETATM   31  C   UNK N   1      27.193  23.776  -8.708  0.00  0.00     0.046 C 
BRANCH  31  32
HETATM   32  C   UNK N   1      27.522  24.456  -7.405  0.00  0.00     0.112 C 
BRANCH  32  33
HETATM   33  C   UNK N   1      26.427  25.447  -7.177  0.00  0.00     0.139 C 
HETATM   34  O   UNK N   1      26.543  26.588  -7.588  0.00  0.00    -0.650 OA
BRANCH  33  35
HETATM   35  O   UNK N   1      25.284  25.068  -6.567  0.00  0.00    -0.776 OA
HETATM   36  H   UNK N   1      25.199  24.479  -5.845  0.00  0.00     0.167 HD
ENDBRANCH  33  35
ENDBRANCH  32  33
ENDBRANCH  31  32
ENDBRANCH  30  31
BRANCH  30  37
HETATM   37  C   UNK N   1      25.451  21.906  -8.255  0.00  0.00     0.163 C 
HETATM   38  O   UNK N   1      25.237  20.775  -7.853  0.00  0.00    -0.648 OA
BRANCH  37  39
HETATM   39  O   UNK N   1      24.428  22.773  -8.338  0.00  0.00    -0.775 OA
HETATM   40  H   UNK N   1      23.684  22.713  -7.770  0.00  0.00     0.167 HD
ENDBRANCH  37  39
ENDBRANCH  30  37
ENDBRANCH  27  30
ENDBRANCH  23  26
ENDBRANCH   1  20
BRANCH   1  41
HETATM   41  C   UNK N   1      33.182  21.401  -3.255  0.00  0.00     0.148 C 
HETATM   42  O   UNK N   1      34.155  20.962  -3.849  0.00  0.00    -0.649 OA
BRANCH  41  43
HETATM   43  O   UNK N   1      32.963  21.015  -1.980  0.00  0.00    -0.776 OA
HETATM   44  H   UNK N   1      33.039  20.895  -1.054  0.00  0.00     0.167 HD
ENDBRANCH  41  43
ENDBRANCH   1  41
TORSDOF 14
ENDMDL
MODEL 6
REMARK VINA RESULT:      -7.7      9.239     13.780
REMARK  14 active torsions:
REMARK  status: ('A' for Active; 'I' for Inactive)
REMARK    1  A    between atoms: C_8  and  C_7 
REMARK    2  A    between atoms: C_17  and  C_7 
REMARK    3  A    between atoms: C_18  and  C_8 
REMARK    4  A    between atoms: C_11  and  C_9 
REMARK    5  A    between atoms: C_14  and  C_9 
REMARK    6  A    between atoms: C_14  and  C_12 
REMARK    7  A    between atoms: C_19  and  C_13 
REMARK    8  A    between atoms: C_14  and  C_21 
REMARK    9  A    between atoms: C_22  and  C_17 
REMARK   10  A    between atoms: C_17  and  N_26 
REMARK   11  A    between atoms: O_31  and  C_18 
REMARK       I    between atoms: N_26  and  C_19 
REMARK   12  A    between atoms: O_33  and  C_20 
REMARK   13  A    between atoms: O_35  and  C_21 
REMARK   14  A    between atoms: O_37  and  C_22 
REMARK       I    between atoms: N_24  and  C_23 
ROOT
HETATM    1  C   UNK N   1      36.465  12.076  13.944  0.00  0.00     0.121 C 
ENDROOT
BRANCH   1   2
HETATM    2  C   UNK N   1      35.232  11.224  14.331  0.00  0.00     0.058 C 
BRANCH   2   3
HETATM    3  C   UNK N   1      35.342  10.815  15.754  0.00  0.00    -0.056 A 
HETATM    4  C   UNK N   1      35.208   9.469  16.106  0.00  0.00     0.009 A 
HETATM    5  C   UNK N   1      35.126   9.109  17.456  0.00  0.00     0.031 A 
HETATM    6  C   UNK N   1      35.138  10.103  18.441  0.00  0.00     0.063 A 
HETATM    7  C   UNK N   1      35.281  11.453  18.076  0.00  0.00     0.043 A 
HETATM    8  N   UNK N   1      34.981   9.776  19.747  0.00  0.00    -0.191 N 
HETATM    9  C   UNK N   1      35.399  11.799  16.741  0.00  0.00     0.025 A 
HETATM   10  C   UNK N   1      35.256  12.427  19.072  0.00  0.00     0.167 A 
HETATM   11  N   UNK N   1      35.089  12.054  20.366  0.00  0.00    -0.170 N 
HETATM   12  C   UNK N   1      34.952  10.742  20.704  0.00  0.00     0.678 A 
ATOM     13  HN  UNK N   1      35.065  12.766  21.095  1.00  0.00     0.186 HD
HETATM   14  N   UNK N   1      34.778  10.418  21.928  0.00  0.00    -0.234 N 
HETATM   15  H   UNK N   1      34.489   9.520  22.205  0.00  0.00     0.174 HD
ATOM     16  HN  UNK N   1      34.947  11.121  22.648  1.00  0.00     0.174 HD
HETATM   17  H   UNK N   1      34.887   8.831  20.006  0.00  0.00     0.184 HD
BRANCH  10  18
HETATM   18  O   UNK N   1      35.371  13.732  18.760  0.00  0.00    -0.345 OA
HETATM   19  H   UNK N   1      35.068  14.387  19.357  0.00  0.00     0.219 HD
ENDBRANCH  10  18
ENDBRANCH   2   3
ENDBRANCH   1   2
BRANCH   1  20
HETATM   20  C   UNK N   1      36.185  12.829  12.671  0.00  0.00    -0.044 A 
HETATM   21  C   UNK N   1      34.883  13.239  12.386  0.00  0.00     0.009 A 
HETATM   22  C   UNK N   1      34.655  14.177  11.406  0.00  0.00     0.017 A 
HETATM   23  C   UNK N   1      35.722  14.725  10.685  0.00  0.00     0.032 A 
HETATM   24  C   UNK N   1      37.016  14.237  10.873  0.00  0.00     0.017 A 
HETATM   25  C   UNK N   1      37.246  13.283  11.863  0.00  0.00     0.009 A 
BRANCH  23  26
HETATM   26  C   UNK N   1      35.518  16.051  10.109  0.00  0.00     0.252 C 
HETATM   27  N   UNK N   1      34.553  16.126   9.166  0.00  0.00    -0.343 N 
HETATM   28  H   UNK N   1      34.395  15.296   8.660  0.00  0.00     0.163 HD
HETATM   29  O   UNK N   1      35.958  17.051  10.655  0.00  0.00    -0.268 OA
BRANCH  27  30
HETATM   30  C   UNK N   1      33.726  17.237   8.793  0.00  0.00     0.183 C 
BRANCH  30  31
HETATM   31  C   UNK N   1      32.522  16.534   8.166  0.00  0.00     0.046 C 
BRANCH  31  32
HETATM   32  C   UNK N   1      31.271  16.334   8.981  0.00  0.00     0.112 C 
BRANCH  32  33
HETATM   33  C   UNK N   1      30.485  17.596   8.833  0.00  0.00     0.139 C 
HETATM   34  O   UNK N   1      30.104  17.949   7.731  0.00  0.00    -0.650 OA
BRANCH  33  35
HETATM   35  O   UNK N   1      30.145  18.317   9.922  0.00  0.00    -0.776 OA
HETATM   36  H   UNK N   1      30.085  18.010  10.805  0.00  0.00     0.167 HD
ENDBRANCH  33  35
ENDBRANCH  32  33
ENDBRANCH  31  32
ENDBRANCH  30  31
BRANCH  30  37
HETATM   37  C   UNK N   1      34.457  18.247   7.938  0.00  0.00     0.163 C 
HETATM   38  O   UNK N   1      34.386  18.175   6.723  0.00  0.00    -0.648 OA
BRANCH  37  39
HETATM   39  O   UNK N   1      35.238  19.192   8.489  0.00  0.00    -0.775 OA
HETATM   40  H   UNK N   1      34.878  19.897   8.991  0.00  0.00     0.167 HD
ENDBRANCH  37  39
ENDBRANCH  30  37
ENDBRANCH  27  30
ENDBRANCH  23  26
ENDBRANCH   1  20
BRANCH   1  41
HETATM   41  C   UNK N   1      37.672  11.144  13.814  0.00  0.00     0.148 C 
HETATM   42  O   UNK N   1      37.584  10.112  13.167  0.00  0.00    -0.649 OA
BRANCH  41  43
HETATM   43  O   UNK N   1      38.841  11.440  14.420  0.00  0.00    -0.776 OA
HETATM   44  H   UNK N   1      39.590  11.420  14.983  0.00  0.00     0.167 HD
ENDBRANCH  41  43
ENDBRANCH   1  41
TORSDOF 14
ENDMDL
MODEL 7
REMARK VINA RESULT:      -7.5      6.758     10.956
REMARK  14 active torsions:
REMARK  status: ('A' for Active; 'I' for Inactive)
REMARK    1  A    between atoms: C_8  and  C_7 
REMARK    2  A    between atoms: C_17  and  C_7 
REMARK    3  A    between atoms: C_18  and  C_8 
REMARK    4  A    between atoms: C_11  and  C_9 
REMARK    5  A    between atoms: C_14  and  C_9 
REMARK    6  A    between atoms: C_14  and  C_12 
REMARK    7  A    between atoms: C_19  and  C_13 
REMARK    8  A    between atoms: C_14  and  C_21 
REMARK    9  A    between atoms: C_22  and  C_17 
REMARK   10  A    between atoms: C_17  and  N_26 
REMARK   11  A    between atoms: O_31  and  C_18 
REMARK       I    between atoms: N_26  and  C_19 
REMARK   12  A    between atoms: O_33  and  C_20 
REMARK   13  A    between atoms: O_35  and  C_21 
REMARK   14  A    between atoms: O_37  and  C_22 
REMARK       I    between atoms: N_24  and  C_23 
ROOT
HETATM    1  C   UNK N   1      20.754  15.136   4.754  0.00  0.00     0.121 C 
ENDROOT
BRANCH   1   2
HETATM    2  C   UNK N   1      20.588  14.899   3.234  0.00  0.00     0.058 C 
BRANCH   2   3
HETATM    3  C   UNK N   1      20.367  16.200   2.553  0.00  0.00    -0.056 A 
HETATM    4  C   UNK N   1      20.238  16.248   1.163  0.00  0.00     0.009 A 
HETATM    5  C   UNK N   1      20.216  17.485   0.509  0.00  0.00     0.031 A 
HETATM    6  C   UNK N   1      20.366  18.663   1.249  0.00  0.00     0.063 A 
HETATM    7  C   UNK N   1      20.488  18.604   2.648  0.00  0.00     0.043 A 
HETATM    8  N   UNK N   1      20.425  19.864   0.622  0.00  0.00    -0.191 N 
HETATM    9  C   UNK N   1      20.471  17.379   3.293  0.00  0.00     0.025 A 
HETATM   10  C   UNK N   1      20.669  19.788   3.360  0.00  0.00     0.167 A 
HETATM   11  N   UNK N   1      20.731  20.966   2.689  0.00  0.00    -0.170 N 
HETATM   12  C   UNK N   1      20.611  21.008   1.334  0.00  0.00     0.678 A 
ATOM     13  HN  UNK N   1      20.868  21.833   3.208  1.00  0.00     0.186 HD
HETATM   14  N   UNK N   1      20.689  22.129   0.725  0.00  0.00    -0.234 N 
HETATM   15  H   UNK N   1      20.798  22.198  -0.250  0.00  0.00     0.174 HD
ATOM     16  HN  UNK N   1      20.637  22.988   1.273  1.00  0.00     0.174 HD
HETATM   17  H   UNK N   1      20.335  19.908  -0.357  0.00  0.00     0.184 HD
BRANCH  10  18
HETATM   18  O   UNK N   1      20.808  19.770   4.699  0.00  0.00    -0.345 OA
HETATM   19  H   UNK N   1      20.568  20.520   5.207  0.00  0.00     0.219 HD
ENDBRANCH  10  18
ENDBRANCH   2   3
ENDBRANCH   1   2
BRANCH   1  20
HETATM   20  C   UNK N   1      21.800  14.204   5.305  0.00  0.00    -0.044 A 
HETATM   21  C   UNK N   1      22.774  14.697   6.172  0.00  0.00     0.009 A 
HETATM   22  C   UNK N   1      23.536  13.829   6.918  0.00  0.00     0.017 A 
HETATM   23  C   UNK N   1      23.347  12.446   6.812  0.00  0.00     0.032 A 
HETATM   24  C   UNK N   1      22.464  11.933   5.860  0.00  0.00     0.017 A 
HETATM   25  C   UNK N   1      21.694  12.814   5.102  0.00  0.00     0.009 A 
BRANCH  23  26
HETATM   26  C   UNK N   1      23.729  11.637   7.966  0.00  0.00     0.252 C 
HETATM   27  N   UNK N   1      23.691  12.277   9.154  0.00  0.00    -0.343 N 
HETATM   28  H   UNK N   1      23.843  13.249   9.114  0.00  0.00     0.163 HD
HETATM   29  O   UNK N   1      23.770  10.418   7.895  0.00  0.00    -0.268 OA
BRANCH  27  30
HETATM   30  C   UNK N   1      23.465  11.748  10.469  0.00  0.00     0.183 C 
BRANCH  30  31
HETATM   31  C   UNK N   1      22.042  12.229  10.758  0.00  0.00     0.046 C 
BRANCH  31  32
HETATM   32  C   UNK N   1      21.576  13.547  10.198  0.00  0.00     0.112 C 
BRANCH  32  33
HETATM   33  C   UNK N   1      20.083  13.497  10.234  0.00  0.00     0.139 C 
HETATM   34  O   UNK N   1      19.519  12.655  10.911  0.00  0.00    -0.650 OA
BRANCH  33  35
HETATM   35  O   UNK N   1      19.356  14.418   9.567  0.00  0.00    -0.776 OA
HETATM   36  H   UNK N   1      19.052  15.241   9.894  0.00  0.00     0.167 HD
ENDBRANCH  33  35
ENDBRANCH  32  33
ENDBRANCH  31  32
ENDBRANCH  30  31
BRANCH  30  37
HETATM   37  C   UNK N   1      24.541  12.147  11.452  0.00  0.00     0.163 C 
HETATM   38  O   UNK N   1      24.435  11.832  12.625  0.00  0.00    -0.648 OA
BRANCH  37  39
HETATM   39  O   UNK N   1      25.589  12.897  11.071  0.00  0.00    -0.775 OA
HETATM   40  H   UNK N   1      26.203  13.238  11.692  0.00  0.00     0.167 HD
ENDBRANCH  37  39
ENDBRANCH  30  37
ENDBRANCH  27  30
ENDBRANCH  23  26
ENDBRANCH   1  20
BRANCH   1  41
HETATM   41  C   UNK N   1      19.391  14.940   5.423  0.00  0.00     0.148 C 
HETATM   42  O   UNK N   1      18.474  14.421   4.806  0.00  0.00    -0.649 OA
BRANCH  41  43
HETATM   43  O   UNK N   1      19.180  15.347   6.692  0.00  0.00    -0.776 OA
HETATM   44  H   UNK N   1      19.306  15.603   7.585  0.00  0.00     0.167 HD
ENDBRANCH  41  43
ENDBRANCH   1  41
TORSDOF 14
ENDMDL
MODEL 8
REMARK VINA RESULT:      -7.5      1.743      2.238
REMARK  14 active torsions:
REMARK  status: ('A' for Active; 'I' for Inactive)
REMARK    1  A    between atoms: C_8  and  C_7 
REMARK    2  A    between atoms: C_17  and  C_7 
REMARK    3  A    between atoms: C_18  and  C_8 
REMARK    4  A    between atoms: C_11  and  C_9 
REMARK    5  A    between atoms: C_14  and  C_9 
REMARK    6  A    between atoms: C_14  and  C_12 
REMARK    7  A    between atoms: C_19  and  C_13 
REMARK    8  A    between atoms: C_14  and  C_21 
REMARK    9  A    between atoms: C_22  and  C_17 
REMARK   10  A    between atoms: C_17  and  N_26 
REMARK   11  A    between atoms: O_31  and  C_18 
REMARK       I    between atoms: N_26  and  C_19 
REMARK   12  A    between atoms: O_33  and  C_20 
REMARK   13  A    between atoms: O_35  and  C_21 
REMARK   14  A    between atoms: O_37  and  C_22 
REMARK       I    between atoms: N_24  and  C_23 
ROOT
HETATM    1  C   UNK N   1      27.370  17.273   4.939  0.00  0.00     0.121 C 
ENDROOT
BRANCH   1   2
HETATM    2  C   UNK N   1      28.027  17.458   6.328  0.00  0.00     0.058 C 
BRANCH   2   3
HETATM    3  C   UNK N   1      29.500  17.326   6.198  0.00  0.00    -0.056 A 
HETATM    4  C   UNK N   1      30.109  17.490   4.951  0.00  0.00     0.009 A 
HETATM    5  C   UNK N   1      31.466  17.184   4.795  0.00  0.00     0.031 A 
HETATM    6  C   UNK N   1      32.192  16.677   5.879  0.00  0.00     0.063 A 
HETATM    7  C   UNK N   1      31.572  16.522   7.130  0.00  0.00     0.043 A 
HETATM    8  N   UNK N   1      33.486  16.302   5.722  0.00  0.00    -0.191 N 
HETATM    9  C   UNK N   1      30.239  16.863   7.288  0.00  0.00     0.025 A 
HETATM   10  C   UNK N   1      32.305  15.984   8.185  0.00  0.00     0.167 A 
HETATM   11  N   UNK N   1      33.596  15.616   7.980  0.00  0.00    -0.170 N 
HETATM   12  C   UNK N   1      34.183  15.772   6.762  0.00  0.00     0.678 A 
ATOM     13  HN  UNK N   1      34.132  15.218   8.750  1.00  0.00     0.186 HD
HETATM   14  N   UNK N   1      35.394  15.401   6.591  0.00  0.00    -0.234 N 
HETATM   15  H   UNK N   1      35.804  15.316   5.700  0.00  0.00     0.174 HD
ATOM     16  HN  UNK N   1      35.960  15.186   7.412  1.00  0.00     0.174 HD
HETATM   17  H   UNK N   1      33.924  16.415   4.848  0.00  0.00     0.184 HD
BRANCH  10  18
HETATM   18  O   UNK N   1      31.741  15.804   9.394  0.00  0.00    -0.345 OA
HETATM   19  H   UNK N   1      31.678  16.520   9.995  0.00  0.00     0.219 HD
ENDBRANCH  10  18
ENDBRANCH   2   3
ENDBRANCH   1   2
BRANCH   1  20
HETATM   20  C   UNK N   1      26.183  18.189   4.811  0.00  0.00    -0.044 A 
HETATM   21  C   UNK N   1      26.381  19.533   4.498  0.00  0.00     0.009 A 
HETATM   22  C   UNK N   1      25.325  20.306   4.077  0.00  0.00     0.017 A 
HETATM   23  C   UNK N   1      24.043  19.756   3.963  0.00  0.00     0.032 A 
HETATM   24  C   UNK N   1      23.804  18.449   4.389  0.00  0.00     0.017 A 
HETATM   25  C   UNK N   1      24.875  17.667   4.820  0.00  0.00     0.009 A 
BRANCH  23  26
HETATM   26  C   UNK N   1      23.131  20.395   3.018  0.00  0.00     0.252 C 
HETATM   27  N   UNK N   1      22.004  19.701   2.749  0.00  0.00    -0.343 N 
HETATM   28  H   UNK N   1      22.082  18.723   2.834  0.00  0.00     0.163 HD
HETATM   29  O   UNK N   1      23.232  21.581   2.748  0.00  0.00    -0.268 OA
BRANCH  27  30
HETATM   30  C   UNK N   1      20.710  20.179   2.355  0.00  0.00     0.183 C 
BRANCH  30  31
HETATM   31  C   UNK N   1      19.895  18.885   2.321  0.00  0.00     0.046 C 
BRANCH  31  32
HETATM   32  C   UNK N   1      20.604  17.566   2.164  0.00  0.00     0.112 C 
BRANCH  32  33
HETATM   33  C   UNK N   1      20.028  16.940   0.936  0.00  0.00     0.139 C 
HETATM   34  O   UNK N   1      20.364  17.338  -0.166  0.00  0.00    -0.650 OA
BRANCH  33  35
HETATM   35  O   UNK N   1      19.179  15.896   1.039  0.00  0.00    -0.776 OA
HETATM   36  H   UNK N   1      19.406  14.994   1.148  0.00  0.00     0.167 HD
ENDBRANCH  33  35
ENDBRANCH  32  33
ENDBRANCH  31  32
ENDBRANCH  30  31
BRANCH  30  37
HETATM   37  C   UNK N   1      20.752  21.000   1.087  0.00  0.00     0.163 C 
HETATM   38  O   UNK N   1      21.103  20.479   0.041  0.00  0.00    -0.648 OA
BRANCH  37  39
HETATM   39  O   UNK N   1      20.470  22.314   1.097  0.00  0.00    -0.775 OA
HETATM   40  H   UNK N   1      21.122  22.960   0.908  0.00  0.00     0.167 HD
ENDBRANCH  37  39
ENDBRANCH  30  37
ENDBRANCH  27  30
ENDBRANCH  23  26
ENDBRANCH   1  20
BRANCH   1  41
HETATM   41  C   UNK N   1      26.987  15.800   4.781  0.00  0.00     0.148 C 
HETATM   42  O   UNK N   1      26.822  15.099   5.767  0.00  0.00    -0.649 OA
BRANCH  41  43
HETATM   43  O   UNK N   1      26.839  15.253   3.556  0.00  0.00    -0.776 OA
HETATM   44  H   UNK N   1      26.769  15.134   2.629  0.00  0.00     0.167 HD
ENDBRANCH  41  43
ENDBRANCH   1  41
TORSDOF 14
ENDMDL
MODEL 9
REMARK VINA RESULT:      -7.5      4.108      6.929
REMARK  14 active torsions:
REMARK  status: ('A' for Active; 'I' for Inactive)
REMARK    1  A    between atoms: C_8  and  C_7 
REMARK    2  A    between atoms: C_17  and  C_7 
REMARK    3  A    between atoms: C_18  and  C_8 
REMARK    4  A    between atoms: C_11  and  C_9 
REMARK    5  A    between atoms: C_14  and  C_9 
REMARK    6  A    between atoms: C_14  and  C_12 
REMARK    7  A    between atoms: C_19  and  C_13 
REMARK    8  A    between atoms: C_14  and  C_21 
REMARK    9  A    between atoms: C_22  and  C_17 
REMARK   10  A    between atoms: C_17  and  N_26 
REMARK   11  A    between atoms: O_31  and  C_18 
REMARK       I    between atoms: N_26  and  C_19 
REMARK   12  A    between atoms: O_33  and  C_20 
REMARK   13  A    between atoms: O_35  and  C_21 
REMARK   14  A    between atoms: O_37  and  C_22 
REMARK       I    between atoms: N_24  and  C_23 
ROOT
HETATM    1  C   UNK N   1      33.470  16.674   7.781  0.00  0.00     0.121 C 
ENDROOT
BRANCH   1   2
HETATM    2  C   UNK N   1      33.765  15.232   8.258  0.00  0.00     0.058 C 
BRANCH   2   3
HETATM    3  C   UNK N   1      34.316  15.271   9.636  0.00  0.00    -0.056 A 
HETATM    4  C   UNK N   1      35.018  16.396  10.076  0.00  0.00     0.009 A 
HETATM    5  C   UNK N   1      35.694  16.359  11.301  0.00  0.00     0.031 A 
HETATM    6  C   UNK N   1      35.695  15.180  12.056  0.00  0.00     0.063 A 
HETATM    7  C   UNK N   1      34.980  14.057  11.608  0.00  0.00     0.043 A 
HETATM    8  N   UNK N   1      36.409  15.104  13.206  0.00  0.00    -0.191 N 
HETATM    9  C   UNK N   1      34.283  14.113  10.413  0.00  0.00     0.025 A 
HETATM   10  C   UNK N   1      35.024  12.885  12.360  0.00  0.00     0.167 A 
HETATM   11  N   UNK N   1      35.759  12.852  13.501  0.00  0.00    -0.170 N 
HETATM   12  C   UNK N   1      36.446  13.948  13.923  0.00  0.00     0.678 A 
ATOM     13  HN  UNK N   1      35.796  11.994  14.050  1.00  0.00     0.186 HD
HETATM   14  N   UNK N   1      37.144  13.886  14.992  0.00  0.00    -0.234 N 
HETATM   15  H   UNK N   1      37.801  14.576  15.239  0.00  0.00     0.174 HD
ATOM     16  HN  UNK N   1      37.014  13.089  15.615  1.00  0.00     0.174 HD
HETATM   17  H   UNK N   1      36.907  15.892  13.525  0.00  0.00     0.184 HD
BRANCH  10  18
HETATM   18  O   UNK N   1      34.367  11.782  11.954  0.00  0.00    -0.345 OA
HETATM   19  H   UNK N   1      34.412  11.511  11.058  0.00  0.00     0.219 HD
ENDBRANCH  10  18
ENDBRANCH   2   3
ENDBRANCH   1   2
BRANCH   1  20
HETATM   20  C   UNK N   1      31.986  16.925   7.800  0.00  0.00    -0.044 A 
HETATM   21  C   UNK N   1      31.458  17.862   8.687  0.00  0.00     0.009 A 
HETATM   22  C   UNK N   1      30.175  18.327   8.515  0.00  0.00     0.017 A 
HETATM   23  C   UNK N   1      29.387  17.863   7.455  0.00  0.00     0.032 A 
HETATM   24  C   UNK N   1      29.856  16.837   6.633  0.00  0.00     0.017 A 
HETATM   25  C   UNK N   1      31.155  16.363   6.811  0.00  0.00     0.009 A 
BRANCH  23  26
HETATM   26  C   UNK N   1      28.325  18.747   6.985  0.00  0.00     0.252 C 
HETATM   27  N   UNK N   1      27.996  18.608   5.682  0.00  0.00    -0.343 N 
HETATM   28  H   UNK N   1      28.721  18.291   5.097  0.00  0.00     0.163 HD
HETATM   29  O   UNK N   1      27.593  19.328   7.771  0.00  0.00    -0.268 OA
BRANCH  27  30
HETATM   30  C   UNK N   1      26.745  18.856   5.025  0.00  0.00     0.183 C 
BRANCH  30  31
HETATM   31  C   UNK N   1      26.805  17.872   3.856  0.00  0.00     0.046 C 
BRANCH  31  32
HETATM   32  C   UNK N   1      27.118  16.423   4.121  0.00  0.00     0.112 C 
BRANCH  32  33
HETATM   33  C   UNK N   1      28.323  16.111   3.294  0.00  0.00     0.139 C 
HETATM   34  O   UNK N   1      28.463  14.998   2.819  0.00  0.00    -0.650 OA
BRANCH  33  35
HETATM   35  O   UNK N   1      29.229  17.073   3.023  0.00  0.00    -0.776 OA
HETATM   36  H   UNK N   1      29.692  17.602   3.642  0.00  0.00     0.167 HD
ENDBRANCH  33  35
ENDBRANCH  32  33
ENDBRANCH  31  32
ENDBRANCH  30  31
BRANCH  30  37
HETATM   37  C   UNK N   1      26.542  20.316   4.688  0.00  0.00     0.163 C 
HETATM   38  O   UNK N   1      25.920  20.624   3.686  0.00  0.00    -0.648 OA
BRANCH  37  39
HETATM   39  O   UNK N   1      27.087  21.287   5.441  0.00  0.00    -0.775 OA
HETATM   40  H   UNK N   1      26.796  21.454   6.317  0.00  0.00     0.167 HD
ENDBRANCH  37  39
ENDBRANCH  30  37
ENDBRANCH  27  30
ENDBRANCH  23  26
ENDBRANCH   1  20
BRANCH   1  41
HETATM   41  C   UNK N   1      34.072  16.851   6.385  0.00  0.00     0.148 C 
HETATM   42  O   UNK N   1      34.150  17.964   5.887  0.00  0.00    -0.649 OA
BRANCH  41  43
HETATM   43  O   UNK N   1      34.510  15.786   5.682  0.00  0.00    -0.776 OA
HETATM   44  H   UNK N   1      34.956  15.003   5.424  0.00  0.00     0.167 HD
ENDBRANCH  41  43
ENDBRANCH   1  41
TORSDOF 14
ENDMDL
