MODEL 1
REMARK VINA RESULT:      -2.9      0.000      0.000
REMARK  0 active torsions:
REMARK  status: ('A' for Active; 'I' for Inactive)
REMARK       I    between atoms: C_2  and  N_3 
ROOT
HETATM    1  C   UNK N   1      33.955  17.639   7.049  0.00  0.00     0.117 C 
HETATM    2  C   UNK N   1      34.485  18.127   8.351  0.00  0.00     0.211 C 
HETATM    3  N   UNK N   1      34.283  17.408   9.471  0.00  0.00    -0.370 N 
HETATM    4  O   UNK N   1      35.101  19.178   8.403  0.00  0.00    -0.274 OA
HETATM    5  H   UNK N   1      34.632  17.729  10.333  0.00  0.00     0.159 HD
HETATM    6  H   UNK N   1      33.784  16.559   9.427  0.00  0.00     0.159 HD
ENDROOT
TORSDOF 0
ENDMDL
MODEL 2
REMARK VINA RESULT:      -2.9     18.091     18.105
REMARK  0 active torsions:
REMARK  status: ('A' for Active; 'I' for Inactive)
REMARK       I    between atoms: C_2  and  N_3 
ROOT
HETATM    1  C   UNK N   1      17.661  26.765   8.819  0.00  0.00     0.117 C 
HETATM    2  C   UNK N   1      18.680  26.770   9.903  0.00  0.00     0.211 C 
HETATM    3  N   UNK N   1      18.825  25.689  10.694  0.00  0.00    -0.370 N 
HETATM    4  O   UNK N   1      19.382  27.751  10.077  0.00  0.00    -0.274 OA
HETATM    5  H   UNK N   1      19.498  25.690  11.412  0.00  0.00     0.159 HD
HETATM    6  H   UNK N   1      18.257  24.897  10.553  0.00  0.00     0.159 HD
ENDROOT
TORSDOF 0
ENDMDL
MODEL 3
REMARK VINA RESULT:      -2.7     15.354     15.524
REMARK  0 active torsions:
REMARK  status: ('A' for Active; 'I' for Inactive)
REMARK       I    between atoms: C_2  and  N_3 
ROOT
HETATM    1  C   UNK N   1      21.158  20.847   2.541  0.00  0.00     0.117 C 
HETATM    2  C   UNK N   1      20.916  20.255   1.198  0.00  0.00     0.211 C 
HETATM    3  N   UNK N   1      20.287  19.068   1.089  0.00  0.00    -0.370 N 
HETATM    4  O   UNK N   1      21.287  20.842   0.196  0.00  0.00    -0.274 OA
HETATM    5  H   UNK N   1      20.127  18.675   0.202  0.00  0.00     0.159 HD
HETATM    6  H   UNK N   1      19.988  18.595   1.900  0.00  0.00     0.159 HD
ENDROOT
TORSDOF 0
ENDMDL
MODEL 4
REMARK VINA RESULT:      -2.7     11.452     11.476
REMARK  0 active torsions:
REMARK  status: ('A' for Active; 'I' for Inactive)
REMARK       I    between atoms: C_2  and  N_3 
ROOT
HETATM    1  C   UNK N   1      43.624  21.042   3.545  0.00  0.00     0.117 C 
HETATM    2  C   UNK N   1      44.390  22.022   4.363  0.00  0.00     0.211 C 
HETATM    3  N   UNK N   1      45.701  22.217   4.124  0.00  0.00    -0.370 N 
HETATM    4  O   UNK N   1      43.831  22.647   5.247  0.00  0.00    -0.274 OA
HETATM    5  H   UNK N   1      46.209  22.864   4.663  0.00  0.00     0.159 HD
HETATM    6  H   UNK N   1      46.151  21.711   3.408  0.00  0.00     0.159 HD
ENDROOT
TORSDOF 0
ENDMDL
MODEL 5
REMARK VINA RESULT:      -2.7     12.805     12.863
REMARK  0 active torsions:
REMARK  status: ('A' for Active; 'I' for Inactive)
REMARK       I    between atoms: C_2  and  N_3 
ROOT
HETATM    1  C   UNK N   1      22.501  11.966  11.088  0.00  0.00     0.117 C 
HETATM    2  C   UNK N   1      23.769  12.092  11.858  0.00  0.00     0.211 C 
HETATM    3  N   UNK N   1      24.929  12.311  11.210  0.00  0.00    -0.370 N 
HETATM    4  O   UNK N   1      23.756  11.998  13.073  0.00  0.00    -0.274 OA
HETATM    5  H   UNK N   1      25.768  12.395  11.717  0.00  0.00     0.159 HD
HETATM    6  H   UNK N   1      24.938  12.387  10.228  0.00  0.00     0.159 HD
ENDROOT
TORSDOF 0
ENDMDL
MODEL 6
REMARK VINA RESULT:      -2.5     18.015     18.152
REMARK  0 active torsions:
REMARK  status: ('A' for Active; 'I' for Inactive)
REMARK       I    between atoms: C_2  and  N_3 
ROOT
HETATM    1  C   UNK N   1      25.660  27.672  -5.109  0.00  0.00     0.117 C 
HETATM    2  C   UNK N   1      25.808  28.311  -3.773  0.00  0.00     0.211 C 
HETATM    3  N   UNK N   1      26.046  29.634  -3.684  0.00  0.00    -0.370 N 
HETATM    4  O   UNK N   1      25.713  27.639  -2.761  0.00  0.00    -0.274 OA
HETATM    5  H   UNK N   1      26.145  30.059  -2.802  0.00  0.00     0.159 HD
HETATM    6  H   UNK N   1      26.123  30.176  -4.503  0.00  0.00     0.159 HD
ENDROOT
TORSDOF 0
ENDMDL
MODEL 7
REMARK VINA RESULT:      -2.4      5.608      5.630
REMARK  0 active torsions:
REMARK  status: ('A' for Active; 'I' for Inactive)
REMARK       I    between atoms: C_2  and  N_3 
ROOT
HETATM    1  C   UNK N   1      29.835  17.673   8.188  0.00  0.00     0.117 C 
HETATM    2  C   UNK N   1      29.045  18.362   9.244  0.00  0.00     0.211 C 
HETATM    3  N   UNK N   1      27.708  18.470   9.120  0.00  0.00    -0.370 N 
HETATM    4  O   UNK N   1      29.607  18.827  10.221  0.00  0.00    -0.274 OA
HETATM    5  H   UNK N   1      27.184  18.925   9.817  0.00  0.00     0.159 HD
HETATM    6  H   UNK N   1      27.256  18.093   8.331  0.00  0.00     0.159 HD
ENDROOT
TORSDOF 0
ENDMDL
MODEL 8
REMARK VINA RESULT:      -2.4     10.848     11.045
REMARK  0 active torsions:
REMARK  status: ('A' for Active; 'I' for Inactive)
REMARK       I    between atoms: C_2  and  N_3 
ROOT
HETATM    1  C   UNK N   1      34.953  13.114  17.164  0.00  0.00     0.117 C 
HETATM    2  C   UNK N   1      35.270  13.849  18.418  0.00  0.00     0.211 C 
HETATM    3  N   UNK N   1      35.752  15.106  18.357  0.00  0.00    -0.370 N 
HETATM    4  O   UNK N   1      35.094  13.316  19.500  0.00  0.00    -0.274 OA
HETATM    5  H   UNK N   1      35.963  15.594  19.185  0.00  0.00     0.159 HD
HETATM    6  H   UNK N   1      35.894  15.536  17.482  0.00  0.00     0.159 HD
ENDROOT
TORSDOF 0
ENDMDL
MODEL 9
REMARK VINA RESULT:      -2.3     19.306     19.652
REMARK  0 active torsions:
REMARK  status: ('A' for Active; 'I' for Inactive)
REMARK       I    between atoms: C_2  and  N_3 
ROOT
HETATM    1  C   UNK N   1      48.153  30.341  18.070  0.00  0.00     0.117 C 
HETATM    2  C   UNK N   1      47.689  29.018  17.571  0.00  0.00     0.211 C 
HETATM    3  N   UNK N   1      47.232  28.898  16.310  0.00  0.00    -0.370 N 
HETATM    4  O   UNK N   1      47.723  28.044  18.303  0.00  0.00    -0.274 OA
HETATM    5  H   UNK N   1      46.924  28.024  15.978  0.00  0.00     0.159 HD
HETATM    6  H   UNK N   1      47.205  29.687  15.720  0.00  0.00     0.159 HD
ENDROOT
TORSDOF 0
ENDMDL
