MODEL 1
REMARK VINA RESULT:      -5.4      0.000      0.000
REMARK  8 active torsions:
REMARK  status: ('A' for Active; 'I' for Inactive)
REMARK    1  A    between atoms: C_2  and  C_1 
REMARK    2  A    between atoms: O_7  and  C_1 
REMARK    3  A    between atoms: C_3  and  O_8 
REMARK    4  A    between atoms: C_4  and  O_9 
REMARK    5  A    between atoms: C_5  and  O_15 
REMARK    6  A    between atoms: C_6  and  O_10 
REMARK    7  A    between atoms: S_16  and  O_11 
REMARK    8  A    between atoms: S_16  and  O_15 
ROOT
HETATM    1  C   UNK N   1      34.693  15.160  10.561  0.00  0.00     0.181 C 
HETATM    2  C   UNK N   1      33.028  14.725   8.727  0.00  0.00     0.184 C 
HETATM    3  C   UNK N   1      33.923  13.552   8.313  0.00  0.00     0.204 C 
HETATM    4  C   UNK N   1      33.884  15.811   9.409  0.00  0.00     0.206 C 
HETATM    5  C   UNK N   1      34.689  13.043   9.542  0.00  0.00     0.288 C 
HETATM    6  O   UNK N   1      35.490  14.083  10.096  0.00  0.00    -0.349 OA
ENDROOT
BRANCH   4   7
HETATM    7  O   UNK N   1      34.774  16.397   8.478  0.00  0.00    -0.253 OA
BRANCH   7   8
HETATM    8  S   UNK N   1      34.197  17.949   7.926  0.00  0.00     0.240 S 
HETATM    9  O   UNK N   1      34.333  18.015   6.398  0.00  0.00    -0.579 OA
HETATM   10  O   UNK N   1      35.061  19.121   8.425  0.00  0.00    -0.579 OA
BRANCH   8  11
HETATM   11  O   UNK N   1      32.564  18.286   8.331  0.00  0.00    -0.274 OA
HETATM   12  H   UNK N   1      31.840  17.641   8.364  0.00  0.00     0.234 HD
ENDBRANCH   8  11
ENDBRANCH   7   8
ENDBRANCH   4   7
BRANCH   1  13
HETATM   13  C   UNK N   1      35.627  16.181  11.213  0.00  0.00     0.199 C 
BRANCH  13  14
HETATM   14  O   UNK N   1      36.928  16.059  10.719  0.00  0.00    -0.398 OA
HETATM   15  H   UNK N   1      37.616  15.377  10.741  0.00  0.00     0.209 HD
ENDBRANCH  13  14
ENDBRANCH   1  13
BRANCH   2  16
HETATM   16  O   UNK N   1      32.360  15.244   7.616  0.00  0.00    -0.390 OA
HETATM   17  H   UNK N   1      32.317  14.735   6.791  0.00  0.00     0.210 HD
ENDBRANCH   2  16
BRANCH   3  18
HETATM   18  O   UNK N   1      33.149  12.521   7.766  0.00  0.00    -0.388 OA
HETATM   19  H   UNK N   1      32.954  12.450   6.819  0.00  0.00     0.210 HD
ENDBRANCH   3  18
BRANCH   5  20
HETATM   20  O   UNK N   1      33.824  12.510  10.506  0.00  0.00    -0.369 OA
HETATM   21  H   UNK N   1      33.604  12.342  11.436  0.00  0.00     0.212 HD
ENDBRANCH   5  20
TORSDOF 8
ENDMDL
MODEL 2
REMARK VINA RESULT:      -5.3     13.995     15.655
REMARK  8 active torsions:
REMARK  status: ('A' for Active; 'I' for Inactive)
REMARK    1  A    between atoms: C_2  and  C_1 
REMARK    2  A    between atoms: O_7  and  C_1 
REMARK    3  A    between atoms: C_3  and  O_8 
REMARK    4  A    between atoms: C_4  and  O_9 
REMARK    5  A    between atoms: C_5  and  O_15 
REMARK    6  A    between atoms: C_6  and  O_10 
REMARK    7  A    between atoms: S_16  and  O_11 
REMARK    8  A    between atoms: S_16  and  O_15 
ROOT
HETATM    1  C   UNK N   1      21.512  18.373   4.868  0.00  0.00     0.181 C 
HETATM    2  C   UNK N   1      20.529  17.942   2.594  0.00  0.00     0.184 C 
HETATM    3  C   UNK N   1      20.002  19.380   2.646  0.00  0.00     0.204 C 
HETATM    4  C   UNK N   1      20.659  17.388   4.027  0.00  0.00     0.206 C 
HETATM    5  C   UNK N   1      20.919  20.222   3.545  0.00  0.00     0.288 C 
HETATM    6  O   UNK N   1      20.959  19.680   4.862  0.00  0.00    -0.349 OA
ENDROOT
BRANCH   4   7
HETATM    7  O   UNK N   1      19.382  17.243   4.619  0.00  0.00    -0.253 OA
BRANCH   7   8
HETATM    8  S   UNK N   1      18.975  15.564   4.868  0.00  0.00     0.240 S 
HETATM    9  O   UNK N   1      17.609  15.481   5.563  0.00  0.00    -0.579 OA
HETATM   10  O   UNK N   1      19.930  14.854   5.845  0.00  0.00    -0.579 OA
BRANCH   8  11
HETATM   11  O   UNK N   1      18.899  14.631   3.430  0.00  0.00    -0.274 OA
HETATM   12  H   UNK N   1      18.101  14.233   3.049  0.00  0.00     0.234 HD
ENDBRANCH   8  11
ENDBRANCH   7   8
ENDBRANCH   4   7
BRANCH   1  13
HETATM   13  C   UNK N   1      21.595  17.913   6.325  0.00  0.00     0.199 C 
BRANCH  13  14
HETATM   14  O   UNK N   1      20.823  18.728   7.155  0.00  0.00    -0.398 OA
HETATM   15  H   UNK N   1      20.804  18.932   8.103  0.00  0.00     0.209 HD
ENDBRANCH  13  14
ENDBRANCH   1  13
BRANCH   2  16
HETATM   16  O   UNK N   1      19.681  17.140   1.827  0.00  0.00    -0.390 OA
HETATM   17  H   UNK N   1      20.050  16.452   1.251  0.00  0.00     0.210 HD
ENDBRANCH   2  16
BRANCH   3  18
HETATM   18  O   UNK N   1      19.956  19.927   1.358  0.00  0.00    -0.388 OA
HETATM   19  H   UNK N   1      20.384  19.514   0.591  0.00  0.00     0.210 HD
ENDBRANCH   3  18
BRANCH   5  20
HETATM   20  O   UNK N   1      22.208  20.332   3.009  0.00  0.00    -0.369 OA
HETATM   21  H   UNK N   1      23.160  20.159   3.070  0.00  0.00     0.212 HD
ENDBRANCH   5  20
TORSDOF 8
ENDMDL
MODEL 3
REMARK VINA RESULT:      -5.3      1.473      3.064
REMARK  8 active torsions:
REMARK  status: ('A' for Active; 'I' for Inactive)
REMARK    1  A    between atoms: C_2  and  C_1 
REMARK    2  A    between atoms: O_7  and  C_1 
REMARK    3  A    between atoms: C_3  and  O_8 
REMARK    4  A    between atoms: C_4  and  O_9 
REMARK    5  A    between atoms: C_5  and  O_15 
REMARK    6  A    between atoms: C_6  and  O_10 
REMARK    7  A    between atoms: S_16  and  O_11 
REMARK    8  A    between atoms: S_16  and  O_15 
ROOT
HETATM    1  C   UNK N   1      35.450  14.385   8.305  0.00  0.00     0.181 C 
HETATM    2  C   UNK N   1      35.422  15.717  10.437  0.00  0.00     0.184 C 
HETATM    3  C   UNK N   1      34.478  14.644  10.992  0.00  0.00     0.204 C 
HETATM    4  C   UNK N   1      35.262  15.802   8.906  0.00  0.00     0.206 C 
HETATM    5  C   UNK N   1      34.751  13.314  10.276  0.00  0.00     0.288 C 
HETATM    6  O   UNK N   1      34.544  13.452   8.873  0.00  0.00    -0.349 OA
ENDROOT
BRANCH   4   7
HETATM    7  O   UNK N   1      33.979  16.293   8.568  0.00  0.00    -0.253 OA
BRANCH   7   8
HETATM    8  S   UNK N   1      34.056  17.926   7.956  0.00  0.00     0.240 S 
HETATM    9  O   UNK N   1      32.688  18.596   8.153  0.00  0.00    -0.579 OA
HETATM   10  O   UNK N   1      34.281  17.986   6.435  0.00  0.00    -0.579 OA
BRANCH   8  11
HETATM   11  O   UNK N   1      35.244  18.911   8.706  0.00  0.00    -0.274 OA
HETATM   12  H   UNK N   1      35.117  19.454   9.500  0.00  0.00     0.234 HD
ENDBRANCH   8  11
ENDBRANCH   7   8
ENDBRANCH   4   7
BRANCH   1  13
HETATM   13  C   UNK N   1      35.212  14.400   6.794  0.00  0.00     0.199 C 
BRANCH  13  14
HETATM   14  O   UNK N   1      35.806  15.517   6.203  0.00  0.00    -0.398 OA
HETATM   15  H   UNK N   1      35.869  16.461   6.414  0.00  0.00     0.209 HD
ENDBRANCH  13  14
ENDBRANCH   1  13
BRANCH   2  16
HETATM   16  O   UNK N   1      35.157  16.952  11.033  0.00  0.00    -0.390 OA
HETATM   17  H   UNK N   1      34.418  17.046  11.654  0.00  0.00     0.210 HD
ENDBRANCH   2  16
BRANCH   3  18
HETATM   18  O   UNK N   1      34.670  14.496  12.371  0.00  0.00    -0.388 OA
HETATM   19  H   UNK N   1      33.989  14.712  13.027  0.00  0.00     0.210 HD
ENDBRANCH   3  18
BRANCH   5  20
HETATM   20  O   UNK N   1      36.038  12.834  10.547  0.00  0.00    -0.369 OA
HETATM   21  H   UNK N   1      36.957  12.692  10.271  0.00  0.00     0.212 HD
ENDBRANCH   5  20
TORSDOF 8
ENDMDL
MODEL 4
REMARK VINA RESULT:      -5.2     11.946     13.302
REMARK  8 active torsions:
REMARK  status: ('A' for Active; 'I' for Inactive)
REMARK    1  A    between atoms: C_2  and  C_1 
REMARK    2  A    between atoms: O_7  and  C_1 
REMARK    3  A    between atoms: C_3  and  O_8 
REMARK    4  A    between atoms: C_4  and  O_9 
REMARK    5  A    between atoms: C_5  and  O_15 
REMARK    6  A    between atoms: C_6  and  O_10 
REMARK    7  A    between atoms: S_16  and  O_11 
REMARK    8  A    between atoms: S_16  and  O_15 
ROOT
HETATM    1  C   UNK N   1      43.767  21.201   3.566  0.00  0.00     0.181 C 
HETATM    2  C   UNK N   1      41.907  22.605   2.620  0.00  0.00     0.184 C 
HETATM    3  C   UNK N   1      41.492  21.363   1.826  0.00  0.00     0.204 C 
HETATM    4  C   UNK N   1      43.423  22.557   2.896  0.00  0.00     0.206 C 
HETATM    5  C   UNK N   1      41.933  20.105   2.588  0.00  0.00     0.288 C 
HETATM    6  O   UNK N   1      43.346  20.104   2.771  0.00  0.00    -0.349 OA
ENDROOT
BRANCH   4   7
HETATM    7  O   UNK N   1      44.151  22.686   1.689  0.00  0.00    -0.253 OA
BRANCH   7   8
HETATM    8  S   UNK N   1      44.879  24.266   1.542  0.00  0.00     0.240 S 
HETATM    9  O   UNK N   1      45.060  24.863   2.945  0.00  0.00    -0.579 OA
HETATM   10  O   UNK N   1      43.971  25.280   0.824  0.00  0.00    -0.579 OA
BRANCH   8  11
HETATM   11  O   UNK N   1      46.405  24.274   0.758  0.00  0.00    -0.274 OA
HETATM   12  H   UNK N   1      46.554  24.287  -0.200  0.00  0.00     0.234 HD
ENDBRANCH   8  11
ENDBRANCH   7   8
ENDBRANCH   4   7
BRANCH   1  13
HETATM   13  C   UNK N   1      45.276  21.067   3.778  0.00  0.00     0.199 C 
BRANCH  13  14
HETATM   14  O   UNK N   1      45.827  22.264   4.241  0.00  0.00    -0.398 OA
HETATM   15  H   UNK N   1      45.678  23.206   4.070  0.00  0.00     0.209 HD
ENDBRANCH  13  14
ENDBRANCH   1  13
BRANCH   2  16
HETATM   16  O   UNK N   1      41.567  23.766   1.922  0.00  0.00    -0.390 OA
HETATM   17  H   UNK N   1      42.103  24.056   1.168  0.00  0.00     0.210 HD
ENDBRANCH   2  16
BRANCH   3  18
HETATM   18  O   UNK N   1      40.104  21.349   1.638  0.00  0.00    -0.388 OA
HETATM   19  H   UNK N   1      39.687  21.386   0.763  0.00  0.00     0.210 HD
ENDBRANCH   3  18
BRANCH   5  20
HETATM   20  O   UNK N   1      41.269  19.985   3.815  0.00  0.00    -0.369 OA
HETATM   21  H   UNK N   1      40.445  19.964   4.325  0.00  0.00     0.212 HD
ENDBRANCH   5  20
TORSDOF 8
ENDMDL
MODEL 5
REMARK VINA RESULT:      -5.1      4.039      6.364
REMARK  8 active torsions:
REMARK  status: ('A' for Active; 'I' for Inactive)
REMARK    1  A    between atoms: C_2  and  C_1 
REMARK    2  A    between atoms: O_7  and  C_1 
REMARK    3  A    between atoms: C_3  and  O_8 
REMARK    4  A    between atoms: C_4  and  O_9 
REMARK    5  A    between atoms: C_5  and  O_15 
REMARK    6  A    between atoms: C_6  and  O_10 
REMARK    7  A    between atoms: S_16  and  O_11 
REMARK    8  A    between atoms: S_16  and  O_15 
ROOT
HETATM    1  C   UNK N   1      28.936  17.170   6.725  0.00  0.00     0.181 C 
HETATM    2  C   UNK N   1      30.373  17.107   8.787  0.00  0.00     0.184 C 
HETATM    3  C   UNK N   1      29.819  18.499   9.108  0.00  0.00     0.204 C 
HETATM    4  C   UNK N   1      30.363  16.888   7.261  0.00  0.00     0.206 C 
HETATM    5  C   UNK N   1      28.426  18.645   8.480  0.00  0.00     0.288 C 
HETATM    6  O   UNK N   1      28.497  18.474   7.067  0.00  0.00    -0.349 OA
ENDROOT
BRANCH   4   7
HETATM    7  O   UNK N   1      31.285  17.756   6.630  0.00  0.00    -0.253 OA
BRANCH   7   8
HETATM    8  S   UNK N   1      32.657  16.885   5.992  0.00  0.00     0.240 S 
HETATM    9  O   UNK N   1      32.334  16.428   4.562  0.00  0.00    -0.579 OA
HETATM   10  O   UNK N   1      32.937  15.573   6.746  0.00  0.00    -0.579 OA
BRANCH   8  11
HETATM   11  O   UNK N   1      34.114  17.790   5.946  0.00  0.00    -0.274 OA
HETATM   12  H   UNK N   1      34.672  18.013   6.709  0.00  0.00     0.234 HD
ENDBRANCH   8  11
ENDBRANCH   7   8
ENDBRANCH   4   7
BRANCH   1  13
HETATM   13  C   UNK N   1      28.896  17.053   5.200  0.00  0.00     0.199 C 
BRANCH  13  14
HETATM   14  O   UNK N   1      29.546  18.131   4.596  0.00  0.00    -0.398 OA
HETATM   15  H   UNK N   1      30.171  18.813   4.886  0.00  0.00     0.209 HD
ENDBRANCH  13  14
ENDBRANCH   1  13
BRANCH   2  16
HETATM   16  O   UNK N   1      31.664  16.966   9.300  0.00  0.00    -0.390 OA
HETATM   17  H   UNK N   1      31.912  16.162   9.784  0.00  0.00     0.210 HD
ENDBRANCH   2  16
BRANCH   3  18
HETATM   18  O   UNK N   1      29.744  18.683  10.495  0.00  0.00    -0.388 OA
HETATM   19  H   UNK N   1      28.947  19.004  10.944  0.00  0.00     0.210 HD
ENDBRANCH   3  18
BRANCH   5  20
HETATM   20  O   UNK N   1      27.507  17.755   9.047  0.00  0.00    -0.369 OA
HETATM   21  H   UNK N   1      26.623  17.573   9.403  0.00  0.00     0.212 HD
ENDBRANCH   5  20
TORSDOF 8
ENDMDL
MODEL 6
REMARK VINA RESULT:      -4.9     12.898     14.869
REMARK  8 active torsions:
REMARK  status: ('A' for Active; 'I' for Inactive)
REMARK    1  A    between atoms: C_2  and  C_1 
REMARK    2  A    between atoms: O_7  and  C_1 
REMARK    3  A    between atoms: C_3  and  O_8 
REMARK    4  A    between atoms: C_4  and  O_9 
REMARK    5  A    between atoms: C_5  and  O_15 
REMARK    6  A    between atoms: C_6  and  O_10 
REMARK    7  A    between atoms: S_16  and  O_11 
REMARK    8  A    between atoms: S_16  and  O_15 
ROOT
HETATM    1  C   UNK N   1      22.238  19.010   3.184  0.00  0.00     0.181 C 
HETATM    2  C   UNK N   1      20.098  17.694   3.078  0.00  0.00     0.184 C 
HETATM    3  C   UNK N   1      19.374  19.044   3.019  0.00  0.00     0.204 C 
HETATM    4  C   UNK N   1      21.430  17.857   3.835  0.00  0.00     0.206 C 
HETATM    5  C   UNK N   1      20.307  20.090   2.393  0.00  0.00     0.288 C 
HETATM    6  O   UNK N   1      21.498  20.220   3.165  0.00  0.00    -0.349 OA
ENDROOT
BRANCH   4   7
HETATM    7  O   UNK N   1      21.193  18.157   5.197  0.00  0.00    -0.253 OA
BRANCH   7   8
HETATM    8  S   UNK N   1      21.631  16.823   6.236  0.00  0.00     0.240 S 
HETATM    9  O   UNK N   1      20.913  15.557   5.749  0.00  0.00    -0.579 OA
HETATM   10  O   UNK N   1      21.132  17.000   7.681  0.00  0.00    -0.579 OA
BRANCH   8  11
HETATM   11  O   UNK N   1      23.314  16.493   6.295  0.00  0.00    -0.274 OA
HETATM   12  H   UNK N   1      23.915  16.451   5.533  0.00  0.00     0.234 HD
ENDBRANCH   8  11
ENDBRANCH   7   8
ENDBRANCH   4   7
BRANCH   1  13
HETATM   13  C   UNK N   1      23.532  19.271   3.957  0.00  0.00     0.199 C 
BRANCH  13  14
HETATM   14  O   UNK N   1      24.262  18.093   4.129  0.00  0.00    -0.398 OA
HETATM   15  H   UNK N   1      24.635  17.613   4.884  0.00  0.00     0.209 HD
ENDBRANCH  13  14
ENDBRANCH   1  13
BRANCH   2  16
HETATM   16  O   UNK N   1      19.290  16.736   3.694  0.00  0.00    -0.390 OA
HETATM   17  H   UNK N   1      19.462  15.791   3.554  0.00  0.00     0.210 HD
ENDBRANCH   2  16
BRANCH   3  18
HETATM   18  O   UNK N   1      18.200  18.932   2.263  0.00  0.00    -0.388 OA
HETATM   19  H   UNK N   1      17.802  19.678   1.789  0.00  0.00     0.210 HD
ENDBRANCH   3  18
BRANCH   5  20
HETATM   20  O   UNK N   1      20.606  19.785   1.060  0.00  0.00    -0.369 OA
HETATM   21  H   UNK N   1      20.959  20.051   0.196  0.00  0.00     0.212 HD
ENDBRANCH   5  20
TORSDOF 8
ENDMDL
MODEL 7
REMARK VINA RESULT:      -4.8      4.035      6.327
REMARK  8 active torsions:
REMARK  status: ('A' for Active; 'I' for Inactive)
REMARK    1  A    between atoms: C_2  and  C_1 
REMARK    2  A    between atoms: O_7  and  C_1 
REMARK    3  A    between atoms: C_3  and  O_8 
REMARK    4  A    between atoms: C_4  and  O_9 
REMARK    5  A    between atoms: C_5  and  O_15 
REMARK    6  A    between atoms: C_6  and  O_10 
REMARK    7  A    between atoms: S_16  and  O_11 
REMARK    8  A    between atoms: S_16  and  O_15 
ROOT
HETATM    1  C   UNK N   1      29.724  16.880   5.864  0.00  0.00     0.181 C 
HETATM    2  C   UNK N   1      29.609  17.188   8.357  0.00  0.00     0.184 C 
HETATM    3  C   UNK N   1      28.805  18.461   8.075  0.00  0.00     0.204 C 
HETATM    4  C   UNK N   1      30.555  16.902   7.173  0.00  0.00     0.206 C 
HETATM    5  C   UNK N   1      28.074  18.309   6.733  0.00  0.00     0.288 C 
HETATM    6  O   UNK N   1      29.007  18.091   5.679  0.00  0.00    -0.349 OA
ENDROOT
BRANCH   4   7
HETATM    7  O   UNK N   1      31.552  17.902   7.084  0.00  0.00    -0.253 OA
BRANCH   7   8
HETATM    8  S   UNK N   1      33.141  17.256   7.411  0.00  0.00     0.240 S 
HETATM    9  O   UNK N   1      33.432  17.387   8.912  0.00  0.00    -0.579 OA
HETATM   10  O   UNK N   1      34.266  18.069   6.744  0.00  0.00    -0.579 OA
BRANCH   8  11
HETATM   11  O   UNK N   1      33.344  15.611   6.969  0.00  0.00    -0.274 OA
HETATM   12  H   UNK N   1      33.123  14.841   7.517  0.00  0.00     0.234 HD
ENDBRANCH   8  11
ENDBRANCH   7   8
ENDBRANCH   4   7
BRANCH   1  13
HETATM   13  C   UNK N   1      30.632  16.689   4.648  0.00  0.00     0.199 C 
BRANCH  13  14
HETATM   14  O   UNK N   1      31.095  17.916   4.168  0.00  0.00    -0.398 OA
HETATM   15  H   UNK N   1      31.001  18.417   3.343  0.00  0.00     0.209 HD
ENDBRANCH  13  14
ENDBRANCH   1  13
BRANCH   2  16
HETATM   16  O   UNK N   1      30.329  17.321   9.547  0.00  0.00    -0.390 OA
HETATM   17  H   UNK N   1      31.245  17.006   9.600  0.00  0.00     0.210 HD
ENDBRANCH   2  16
BRANCH   3  18
HETATM   18  O   UNK N   1      27.882  18.690   9.103  0.00  0.00    -0.388 OA
HETATM   19  H   UNK N   1      27.326  19.483   9.149  0.00  0.00     0.210 HD
ENDBRANCH   3  18
BRANCH   5  20
HETATM   20  O   UNK N   1      27.120  17.285   6.777  0.00  0.00    -0.369 OA
HETATM   21  H   UNK N   1      26.851  16.378   6.563  0.00  0.00     0.212 HD
ENDBRANCH   5  20
TORSDOF 8
ENDMDL
MODEL 8
REMARK VINA RESULT:      -4.7     11.587     13.068
REMARK  8 active torsions:
REMARK  status: ('A' for Active; 'I' for Inactive)
REMARK    1  A    between atoms: C_2  and  C_1 
REMARK    2  A    between atoms: O_7  and  C_1 
REMARK    3  A    between atoms: C_3  and  O_8 
REMARK    4  A    between atoms: C_4  and  O_9 
REMARK    5  A    between atoms: C_5  and  O_15 
REMARK    6  A    between atoms: C_6  and  O_10 
REMARK    7  A    between atoms: S_16  and  O_11 
REMARK    8  A    between atoms: S_16  and  O_15 
ROOT
HETATM    1  C   UNK N   1      44.335  20.750   2.236  0.00  0.00     0.181 C 
HETATM    2  C   UNK N   1      43.151  22.951   2.514  0.00  0.00     0.184 C 
HETATM    3  C   UNK N   1      43.346  22.765   4.023  0.00  0.00     0.204 C 
HETATM    4  C   UNK N   1      43.084  21.572   1.829  0.00  0.00     0.206 C 
HETATM    5  C   UNK N   1      44.591  21.901   4.268  0.00  0.00     0.288 C 
HETATM    6  O   UNK N   1      44.445  20.628   3.645  0.00  0.00    -0.349 OA
ENDROOT
BRANCH   4   7
HETATM    7  O   UNK N   1      41.915  20.880   2.224  0.00  0.00    -0.253 OA
BRANCH   7   8
HETATM    8  S   UNK N   1      40.726  20.844   0.946  0.00  0.00     0.240 S 
HETATM    9  O   UNK N   1      39.339  20.613   1.563  0.00  0.00    -0.579 OA
HETATM   10  O   UNK N   1      40.909  19.651  -0.010  0.00  0.00    -0.579 OA
BRANCH   8  11
HETATM   11  O   UNK N   1      40.657  22.274  -0.000  0.00  0.00    -0.274 OA
HETATM   12  H   UNK N   1      40.307  23.132   0.287  0.00  0.00     0.234 HD
ENDBRANCH   8  11
ENDBRANCH   7   8
ENDBRANCH   4   7
BRANCH   1  13
HETATM   13  C   UNK N   1      44.270  19.338   1.652  0.00  0.00     0.199 C 
BRANCH  13  14
HETATM   14  O   UNK N   1      43.853  19.363   0.320  0.00  0.00    -0.398 OA
HETATM   15  H   UNK N   1      44.201  19.728  -0.508  0.00  0.00     0.209 HD
ENDBRANCH  13  14
ENDBRANCH   1  13
BRANCH   2  16
HETATM   16  O   UNK N   1      41.993  23.689   2.261  0.00  0.00    -0.390 OA
HETATM   17  H   UNK N   1      42.015  24.434   1.639  0.00  0.00     0.210 HD
ENDBRANCH   2  16
BRANCH   3  18
HETATM   18  O   UNK N   1      43.493  24.009   4.650  0.00  0.00    -0.388 OA
HETATM   19  H   UNK N   1      43.105  24.215   5.515  0.00  0.00     0.210 HD
ENDBRANCH   3  18
BRANCH   5  20
HETATM   20  O   UNK N   1      45.759  22.540   3.832  0.00  0.00    -0.369 OA
HETATM   21  H   UNK N   1      46.194  23.296   3.407  0.00  0.00     0.212 HD
ENDBRANCH   5  20
TORSDOF 8
ENDMDL
MODEL 9
REMARK VINA RESULT:      -4.6     11.167     12.532
REMARK  8 active torsions:
REMARK  status: ('A' for Active; 'I' for Inactive)
REMARK    1  A    between atoms: C_2  and  C_1 
REMARK    2  A    between atoms: O_7  and  C_1 
REMARK    3  A    between atoms: C_3  and  O_8 
REMARK    4  A    between atoms: C_4  and  O_9 
REMARK    5  A    between atoms: C_5  and  O_15 
REMARK    6  A    between atoms: C_6  and  O_10 
REMARK    7  A    between atoms: S_16  and  O_11 
REMARK    8  A    between atoms: S_16  and  O_15 
ROOT
HETATM    1  C   UNK N   1      41.973  20.576   1.904  0.00  0.00     0.181 C 
HETATM    2  C   UNK N   1      44.337  19.769   2.195  0.00  0.00     0.184 C 
HETATM    3  C   UNK N   1      43.733  18.457   2.706  0.00  0.00     0.204 C 
HETATM    4  C   UNK N   1      43.366  20.931   2.486  0.00  0.00     0.206 C 
HETATM    5  C   UNK N   1      42.344  18.263   2.080  0.00  0.00     0.288 C 
HETATM    6  O   UNK N   1      41.487  19.348   2.423  0.00  0.00    -0.349 OA
ENDROOT
BRANCH   4   7
HETATM    7  O   UNK N   1      43.256  21.147   3.880  0.00  0.00    -0.253 OA
BRANCH   7   8
HETATM    8  S   UNK N   1      44.147  22.560   4.385  0.00  0.00     0.240 S 
HETATM    9  O   UNK N   1      43.806  22.867   5.849  0.00  0.00    -0.579 OA
HETATM   10  O   UNK N   1      43.725  23.835   3.632  0.00  0.00    -0.579 OA
BRANCH   8  11
HETATM   11  O   UNK N   1      45.851  22.409   4.254  0.00  0.00    -0.274 OA
HETATM   12  H   UNK N   1      46.441  23.004   3.764  0.00  0.00     0.234 HD
ENDBRANCH   8  11
ENDBRANCH   7   8
ENDBRANCH   4   7
BRANCH   1  13
HETATM   13  C   UNK N   1      40.949  21.660   2.247  0.00  0.00     0.199 C 
BRANCH  13  14
HETATM   14  O   UNK N   1      41.475  22.935   2.027  0.00  0.00    -0.398 OA
HETATM   15  H   UNK N   1      41.723  23.687   2.585  0.00  0.00     0.209 HD
ENDBRANCH  13  14
ENDBRANCH   1  13
BRANCH   2  16
HETATM   16  O   UNK N   1      45.578  19.999   2.791  0.00  0.00    -0.390 OA
HETATM   17  H   UNK N   1      45.939  19.361   3.427  0.00  0.00     0.210 HD
ENDBRANCH   2  16
BRANCH   3  18
HETATM   18  O   UNK N   1      44.564  17.379   2.376  0.00  0.00    -0.388 OA
HETATM   19  H   UNK N   1      44.603  16.561   2.895  0.00  0.00     0.210 HD
ENDBRANCH   3  18
BRANCH   5  20
HETATM   20  O   UNK N   1      42.420  18.105   0.691  0.00  0.00    -0.369 OA
HETATM   21  H   UNK N   1      42.441  17.528  -0.089  0.00  0.00     0.212 HD
ENDBRANCH   5  20
TORSDOF 8
ENDMDL
