REMARK  2 active torsions:
REMARK  status: ('A' for Active; 'I' for Inactive)
REMARK    1  A    between atoms: O_1  and  C_8 
REMARK    2  A    between atoms: C_4  and  C_8 
ROOT
HETATM    1  N   UNK N   1      19.135 -12.212   0.000  0.00  0.00    -0.408 N 
HETATM    2  C   UNK N   1      20.392 -11.490  -0.000  0.00  0.00     0.175 A 
HETATM    3  C   UNK N   1      18.100 -11.184  -0.000  0.00  0.00     0.115 A 
HETATM    4  C   UNK N   1      20.242  -9.997   0.000  0.00  0.00     0.037 A 
HETATM    5  C   UNK N   1      18.744  -9.800  -0.000  0.00  0.00     0.022 A 
HETATM    6  H   UNK N   1      19.002 -13.223   0.000  0.00  0.00     0.154 HD
ENDROOT
BRANCH   2   7
HETATM    7  C   UNK N   1      21.672 -12.271   0.000  0.00  0.00     0.163 C 
HETATM    8  O   UNK N   1      21.644 -13.485   0.000  0.00  0.00    -0.648 OA
BRANCH   7   9
HETATM    9  O   UNK N   1      22.859 -11.627   0.000  0.00  0.00    -0.775 OA
HETATM   10  H   UNK N   1      23.658 -12.117   0.000  0.00  0.00     0.167 HD
ENDBRANCH   7   9
ENDBRANCH   2   7
TORSDOF 2
