MODEL 1
REMARK VINA RESULT:      -4.8      0.000      0.000
REMARK  8 active torsions:
REMARK  status: ('A' for Active; 'I' for Inactive)
REMARK    1  A    between atoms: O_1  and  N_2 
REMARK    2  A    between atoms: N_2  and  C_3 
REMARK    3  A    between atoms: N_2  and  C_10 
REMARK    4  A    between atoms: C_3  and  C_4 
REMARK    5  A    between atoms: C_4  and  C_5 
REMARK    6  A    between atoms: C_5  and  P_6 
REMARK    7  A    between atoms: P_6  and  O_7 
REMARK    8  A    between atoms: P_6  and  O_8 
ROOT
HETATM    1  C   UNK N   1      31.736  17.692   8.237  0.00  0.00     0.034 C 
ENDROOT
BRANCH   1   2
HETATM    2  C   UNK N   1      32.789  16.722   8.746  0.00  0.00     0.159 C 
BRANCH   2   3
HETATM    3  N   UNK N   1      34.023  17.412   9.059  0.00  0.00    -0.236 N 
BRANCH   3   4
HETATM    4  O   UNK N   1      34.647  17.210  10.227  0.00  0.00    -0.285 OA
HETATM    5  H   UNK N   1      35.494  16.736  10.252  0.00  0.00     0.245 HD
ENDBRANCH   3   4
BRANCH   3   6
HETATM    6  C   UNK N   1      34.532  18.284   8.159  0.00  0.00     0.376 C 
HETATM    7  O   UNK N   1      35.255  19.199   8.528  0.00  0.00    -0.281 OA
ENDBRANCH   3   6
ENDBRANCH   2   3
ENDBRANCH   1   2
BRANCH   1   8
HETATM    8  C   UNK N   1      30.373  17.041   8.182  0.00  0.00     0.127 C 
BRANCH   8   9
HETATM    9  P   UNK N   1      29.196  18.089   9.163  0.00  0.00     0.235 P 
HETATM   10  O   UNK N   1      29.829  19.103  10.151  0.00  0.00    -0.653 OA
BRANCH   9  11
HETATM   11  O   UNK N   1      27.514  17.892   9.541  0.00  0.00    -0.329 OA
HETATM   12  H   UNK N   1      27.170  17.987  10.443  0.00  0.00     0.220 HD
ENDBRANCH   9  11
BRANCH   9  13
HETATM   13  O   UNK N   1      29.460  16.832  10.319  0.00  0.00    -0.329 OA
HETATM   14  H   UNK N   1      29.858  15.948  10.338  0.00  0.00     0.220 HD
ENDBRANCH   9  13
ENDBRANCH   8   9
ENDBRANCH   1   8
TORSDOF 8
ENDMDL
MODEL 2
REMARK VINA RESULT:      -4.7     10.179     11.147
REMARK  8 active torsions:
REMARK  status: ('A' for Active; 'I' for Inactive)
REMARK    1  A    between atoms: O_1  and  N_2 
REMARK    2  A    between atoms: N_2  and  C_3 
REMARK    3  A    between atoms: N_2  and  C_10 
REMARK    4  A    between atoms: C_3  and  C_4 
REMARK    5  A    between atoms: C_4  and  C_5 
REMARK    6  A    between atoms: C_5  and  P_6 
REMARK    7  A    between atoms: P_6  and  O_7 
REMARK    8  A    between atoms: P_6  and  O_8 
ROOT
HETATM    1  C   UNK N   1      22.738  13.157  10.089  0.00  0.00     0.034 C 
ENDROOT
BRANCH   1   2
HETATM    2  C   UNK N   1      22.940  11.817  10.778  0.00  0.00     0.159 C 
BRANCH   2   3
HETATM    3  N   UNK N   1      23.771  11.958  11.957  0.00  0.00    -0.236 N 
BRANCH   3   4
HETATM    4  O   UNK N   1      25.089  12.166  11.848  0.00  0.00    -0.285 OA
HETATM    5  H   UNK N   1      25.444  12.662  11.093  0.00  0.00     0.245 HD
ENDBRANCH   3   4
BRANCH   3   6
HETATM    6  C   UNK N   1      23.197  11.858  13.177  0.00  0.00     0.376 C 
HETATM    7  O   UNK N   1      23.741  12.348  14.157  0.00  0.00    -0.281 OA
ENDBRANCH   3   6
ENDBRANCH   2   3
ENDBRANCH   1   2
BRANCH   1   8
HETATM    8  C   UNK N   1      21.656  13.074   9.039  0.00  0.00     0.127 C 
BRANCH   8   9
HETATM    9  P   UNK N   1      20.605  14.598   9.175  0.00  0.00     0.235 P 
HETATM   10  O   UNK N   1      19.165  14.402   9.716  0.00  0.00    -0.653 OA
BRANCH   9  11
HETATM   11  O   UNK N   1      20.729  16.157   8.423  0.00  0.00    -0.329 OA
HETATM   12  H   UNK N   1      21.555  16.480   8.030  0.00  0.00     0.220 HD
ENDBRANCH   9  11
BRANCH   9  13
HETATM   13  O   UNK N   1      20.075  14.047   7.625  0.00  0.00    -0.329 OA
HETATM   14  H   UNK N   1      19.717  13.233   7.238  0.00  0.00     0.220 HD
ENDBRANCH   9  13
ENDBRANCH   8   9
ENDBRANCH   1   8
TORSDOF 8
ENDMDL
MODEL 3
REMARK VINA RESULT:      -4.6      3.546      4.598
REMARK  8 active torsions:
REMARK  status: ('A' for Active; 'I' for Inactive)
REMARK    1  A    between atoms: O_1  and  N_2 
REMARK    2  A    between atoms: N_2  and  C_3 
REMARK    3  A    between atoms: N_2  and  C_10 
REMARK    4  A    between atoms: C_3  and  C_4 
REMARK    5  A    between atoms: C_4  and  C_5 
REMARK    6  A    between atoms: C_5  and  P_6 
REMARK    7  A    between atoms: P_6  and  O_7 
REMARK    8  A    between atoms: P_6  and  O_8 
ROOT
HETATM    1  C   UNK N   1      34.000  15.014   8.429  0.00  0.00     0.034 C 
ENDROOT
BRANCH   1   2
HETATM    2  C   UNK N   1      34.988  14.561   9.491  0.00  0.00     0.159 C 
BRANCH   2   3
HETATM    3  N   UNK N   1      34.657  15.128  10.783  0.00  0.00    -0.236 N 
BRANCH   3   4
HETATM    4  O   UNK N   1      33.473  14.884  11.358  0.00  0.00    -0.285 OA
HETATM    5  H   UNK N   1      33.431  14.426  12.214  0.00  0.00     0.245 HD
ENDBRANCH   3   4
BRANCH   3   6
HETATM    6  C   UNK N   1      35.559  15.928  11.397  0.00  0.00     0.376 C 
HETATM    7  O   UNK N   1      36.536  16.339  10.785  0.00  0.00    -0.281 OA
ENDBRANCH   3   6
ENDBRANCH   2   3
ENDBRANCH   1   2
BRANCH   1   8
HETATM    8  C   UNK N   1      34.622  16.033   7.503  0.00  0.00     0.127 C 
BRANCH   8   9
HETATM    9  P   UNK N   1      34.238  17.723   8.169  0.00  0.00     0.235 P 
HETATM   10  O   UNK N   1      32.744  18.137   8.188  0.00  0.00    -0.653 OA
BRANCH   9  11
HETATM   11  O   UNK N   1      35.228  19.132   8.386  0.00  0.00    -0.329 OA
HETATM   12  H   UNK N   1      35.445  19.731   7.654  0.00  0.00     0.220 HD
ENDBRANCH   9  11
BRANCH   9  13
HETATM   13  O   UNK N   1      34.301  18.108   6.486  0.00  0.00    -0.329 OA
HETATM   14  H   UNK N   1      33.675  18.230   5.754  0.00  0.00     0.220 HD
ENDBRANCH   9  13
ENDBRANCH   8   9
ENDBRANCH   1   8
TORSDOF 8
ENDMDL
MODEL 4
REMARK VINA RESULT:      -4.5      4.286      5.180
REMARK  8 active torsions:
REMARK  status: ('A' for Active; 'I' for Inactive)
REMARK    1  A    between atoms: O_1  and  N_2 
REMARK    2  A    between atoms: N_2  and  C_3 
REMARK    3  A    between atoms: N_2  and  C_10 
REMARK    4  A    between atoms: C_3  and  C_4 
REMARK    5  A    between atoms: C_4  and  C_5 
REMARK    6  A    between atoms: C_5  and  P_6 
REMARK    7  A    between atoms: P_6  and  O_7 
REMARK    8  A    between atoms: P_6  and  O_8 
ROOT
HETATM    1  C   UNK N   1      33.971  14.849   9.449  0.00  0.00     0.034 C 
ENDROOT
BRANCH   1   2
HETATM    2  C   UNK N   1      34.790  15.809   8.601  0.00  0.00     0.159 C 
BRANCH   2   3
HETATM    3  N   UNK N   1      34.764  17.146   9.159  0.00  0.00    -0.236 N 
BRANCH   3   4
HETATM    4  O   UNK N   1      34.883  17.343  10.478  0.00  0.00    -0.285 OA
HETATM    5  H   UNK N   1      34.225  16.973  11.089  0.00  0.00     0.245 HD
ENDBRANCH   3   4
BRANCH   3   6
HETATM    6  C   UNK N   1      34.598  18.199   8.327  0.00  0.00     0.376 C 
HETATM    7  O   UNK N   1      35.276  19.207   8.464  0.00  0.00    -0.281 OA
ENDBRANCH   3   6
ENDBRANCH   2   3
ENDBRANCH   1   2
BRANCH   1   8
HETATM    8  C   UNK N   1      34.803  13.670   9.897  0.00  0.00     0.127 C 
BRANCH   8   9
HETATM    9  P   UNK N   1      35.348  13.982  11.644  0.00  0.00     0.235 P 
HETATM   10  O   UNK N   1      34.749  13.055  12.733  0.00  0.00    -0.653 OA
BRANCH   9  11
HETATM   11  O   UNK N   1      36.062  15.370  12.401  0.00  0.00    -0.329 OA
HETATM   12  H   UNK N   1      36.077  16.243  11.977  0.00  0.00     0.220 HD
ENDBRANCH   9  11
BRANCH   9  13
HETATM   13  O   UNK N   1      33.886  14.902  11.653  0.00  0.00    -0.329 OA
HETATM   14  H   UNK N   1      33.626  15.836  11.674  0.00  0.00     0.220 HD
ENDBRANCH   9  13
ENDBRANCH   8   9
ENDBRANCH   1   8
TORSDOF 8
ENDMDL
MODEL 5
REMARK VINA RESULT:      -4.5     10.553     12.112
REMARK  8 active torsions:
REMARK  status: ('A' for Active; 'I' for Inactive)
REMARK    1  A    between atoms: O_1  and  N_2 
REMARK    2  A    between atoms: N_2  and  C_3 
REMARK    3  A    between atoms: N_2  and  C_10 
REMARK    4  A    between atoms: C_3  and  C_4 
REMARK    5  A    between atoms: C_4  and  C_5 
REMARK    6  A    between atoms: C_5  and  P_6 
REMARK    7  A    between atoms: P_6  and  O_7 
REMARK    8  A    between atoms: P_6  and  O_8 
ROOT
HETATM    1  C   UNK N   1      20.788  18.598   3.419  0.00  0.00     0.034 C 
ENDROOT
BRANCH   1   2
HETATM    2  C   UNK N   1      20.519  20.087   3.563  0.00  0.00     0.159 C 
BRANCH   2   3
HETATM    3  N   UNK N   1      21.140  20.833   2.487  0.00  0.00    -0.236 N 
BRANCH   3   4
HETATM    4  O   UNK N   1      22.098  21.733   2.739  0.00  0.00    -0.285 OA
HETATM    5  H   UNK N   1      23.024  21.533   2.528  0.00  0.00     0.245 HD
ENDBRANCH   3   4
BRANCH   3   6
HETATM    6  C   UNK N   1      20.724  20.620   1.218  0.00  0.00     0.376 C 
HETATM    7  O   UNK N   1      21.495  20.775   0.281  0.00  0.00    -0.281 OA
ENDBRANCH   3   6
ENDBRANCH   2   3
ENDBRANCH   1   2
BRANCH   1   8
HETATM    8  C   UNK N   1      22.204  18.257   3.823  0.00  0.00     0.127 C 
BRANCH   8   9
HETATM    9  P   UNK N   1      22.167  17.620   5.566  0.00  0.00     0.235 P 
HETATM   10  O   UNK N   1      21.544  18.557   6.633  0.00  0.00    -0.653 OA
BRANCH   9  11
HETATM   11  O   UNK N   1      23.071  16.368   6.358  0.00  0.00    -0.329 OA
HETATM   12  H   UNK N   1      22.761  15.940   7.171  0.00  0.00     0.220 HD
ENDBRANCH   9  11
BRANCH   9  13
HETATM   13  O   UNK N   1      23.630  18.536   5.649  0.00  0.00    -0.329 OA
HETATM   14  H   UNK N   1      24.093  19.199   5.112  0.00  0.00     0.220 HD
ENDBRANCH   9  13
ENDBRANCH   8   9
ENDBRANCH   1   8
TORSDOF 8
ENDMDL
MODEL 6
REMARK VINA RESULT:      -4.5      5.024      6.904
REMARK  8 active torsions:
REMARK  status: ('A' for Active; 'I' for Inactive)
REMARK    1  A    between atoms: O_1  and  N_2 
REMARK    2  A    between atoms: N_2  and  C_3 
REMARK    3  A    between atoms: N_2  and  C_10 
REMARK    4  A    between atoms: C_3  and  C_4 
REMARK    5  A    between atoms: C_4  and  C_5 
REMARK    6  A    between atoms: C_5  and  P_6 
REMARK    7  A    between atoms: P_6  and  O_7 
REMARK    8  A    between atoms: P_6  and  O_8 
ROOT
HETATM    1  C   UNK N   1      35.681  13.007  10.779  0.00  0.00     0.034 C 
ENDROOT
BRANCH   1   2
HETATM    2  C   UNK N   1      35.270  14.110   9.817  0.00  0.00     0.159 C 
BRANCH   2   3
HETATM    3  N   UNK N   1      34.594  15.184  10.516  0.00  0.00    -0.236 N 
BRANCH   3   4
HETATM    4  O   UNK N   1      33.517  14.940  11.273  0.00  0.00    -0.285 OA
HETATM    5  H   UNK N   1      32.646  14.823  10.860  0.00  0.00     0.245 HD
ENDBRANCH   3   4
BRANCH   3   6
HETATM    6  C   UNK N   1      35.057  16.447  10.378  0.00  0.00     0.376 C 
HETATM    7  O   UNK N   1      36.205  16.722  10.698  0.00  0.00    -0.281 OA
ENDBRANCH   3   6
ENDBRANCH   2   3
ENDBRANCH   1   2
BRANCH   1   8
HETATM    8  C   UNK N   1      36.863  13.429  11.621  0.00  0.00     0.127 C 
BRANCH   8   9
HETATM    9  P   UNK N   1      36.349  13.371  13.403  0.00  0.00     0.235 P 
HETATM   10  O   UNK N   1      34.847  13.617  13.700  0.00  0.00    -0.653 OA
BRANCH   9  11
HETATM   11  O   UNK N   1      37.258  13.528  14.873  0.00  0.00    -0.329 OA
HETATM   12  H   UNK N   1      36.915  13.228  15.730  0.00  0.00     0.220 HD
ENDBRANCH   9  11
BRANCH   9  13
HETATM   13  O   UNK N   1      36.574  15.078  13.247  0.00  0.00    -0.329 OA
HETATM   14  H   UNK N   1      37.315  15.701  13.186  0.00  0.00     0.220 HD
ENDBRANCH   9  13
ENDBRANCH   8   9
ENDBRANCH   1   8
TORSDOF 8
ENDMDL
MODEL 7
REMARK VINA RESULT:      -4.5      1.269      1.527
REMARK  8 active torsions:
REMARK  status: ('A' for Active; 'I' for Inactive)
REMARK    1  A    between atoms: O_1  and  N_2 
REMARK    2  A    between atoms: N_2  and  C_3 
REMARK    3  A    between atoms: N_2  and  C_10 
REMARK    4  A    between atoms: C_3  and  C_4 
REMARK    5  A    between atoms: C_4  and  C_5 
REMARK    6  A    between atoms: C_5  and  P_6 
REMARK    7  A    between atoms: P_6  and  O_7 
REMARK    8  A    between atoms: P_6  and  O_8 
ROOT
HETATM    1  C   UNK N   1      31.148  18.031   8.579  0.00  0.00     0.034 C 
ENDROOT
BRANCH   1   2
HETATM    2  C   UNK N   1      32.199  16.937   8.490  0.00  0.00     0.159 C 
BRANCH   2   3
HETATM    3  N   UNK N   1      33.514  17.452   8.814  0.00  0.00    -0.236 N 
BRANCH   3   4
HETATM    4  O   UNK N   1      34.140  17.081   9.939  0.00  0.00    -0.285 OA
HETATM    5  H   UNK N   1      34.988  16.611   9.893  0.00  0.00     0.245 HD
ENDBRANCH   3   4
BRANCH   3   6
HETATM    6  C   UNK N   1      34.098  18.333   7.971  0.00  0.00     0.376 C 
HETATM    7  O   UNK N   1      34.978  19.082   8.373  0.00  0.00    -0.281 OA
ENDBRANCH   3   6
ENDBRANCH   2   3
ENDBRANCH   1   2
BRANCH   1   8
HETATM    8  C   UNK N   1      29.868  17.511   9.190  0.00  0.00     0.127 C 
BRANCH   8   9
HETATM    9  P   UNK N   1      28.489  17.819   7.985  0.00  0.00     0.235 P 
HETATM   10  O   UNK N   1      28.203  19.300   7.625  0.00  0.00    -0.653 OA
BRANCH   9  11
HETATM   11  O   UNK N   1      27.149  16.837   7.486  0.00  0.00    -0.329 OA
HETATM   12  H   UNK N   1      26.573  16.383   8.121  0.00  0.00     0.220 HD
ENDBRANCH   9  11
BRANCH   9  13
HETATM   13  O   UNK N   1      27.608  18.030   9.456  0.00  0.00    -0.329 OA
HETATM   14  H   UNK N   1      27.737  17.851  10.401  0.00  0.00     0.220 HD
ENDBRANCH   9  13
ENDBRANCH   8   9
ENDBRANCH   1   8
TORSDOF 8
ENDMDL
MODEL 8
REMARK VINA RESULT:      -4.4      1.221      1.511
REMARK  8 active torsions:
REMARK  status: ('A' for Active; 'I' for Inactive)
REMARK    1  A    between atoms: O_1  and  N_2 
REMARK    2  A    between atoms: N_2  and  C_3 
REMARK    3  A    between atoms: N_2  and  C_10 
REMARK    4  A    between atoms: C_3  and  C_4 
REMARK    5  A    between atoms: C_4  and  C_5 
REMARK    6  A    between atoms: C_5  and  P_6 
REMARK    7  A    between atoms: P_6  and  O_7 
REMARK    8  A    between atoms: P_6  and  O_8 
ROOT
HETATM    1  C   UNK N   1      31.480  17.522   8.208  0.00  0.00     0.034 C 
ENDROOT
BRANCH   1   2
HETATM    2  C   UNK N   1      32.415  16.990   7.134  0.00  0.00     0.159 C 
BRANCH   2   3
HETATM    3  N   UNK N   1      33.694  17.670   7.176  0.00  0.00    -0.236 N 
BRANCH   3   4
HETATM    4  O   UNK N   1      34.546  17.595   6.145  0.00  0.00    -0.285 OA
HETATM    5  H   UNK N   1      34.564  16.805   5.582  0.00  0.00     0.245 HD
ENDBRANCH   3   4
BRANCH   3   6
HETATM    6  C   UNK N   1      34.027  18.370   8.284  0.00  0.00     0.376 C 
HETATM    7  O   UNK N   1      35.012  19.095   8.283  0.00  0.00    -0.281 OA
ENDBRANCH   3   6
ENDBRANCH   2   3
ENDBRANCH   1   2
BRANCH   1   8
HETATM    8  C   UNK N   1      30.041  17.476   7.751  0.00  0.00     0.127 C 
BRANCH   8   9
HETATM    9  P   UNK N   1      29.008  18.358   9.017  0.00  0.00     0.235 P 
HETATM   10  O   UNK N   1      29.766  18.980  10.218  0.00  0.00    -0.653 OA
BRANCH   9  11
HETATM   11  O   UNK N   1      27.314  18.277   9.385  0.00  0.00    -0.329 OA
HETATM   12  H   UNK N   1      26.644  18.730   8.850  0.00  0.00     0.220 HD
ENDBRANCH   9  11
BRANCH   9  13
HETATM   13  O   UNK N   1      29.107  16.812   9.783  0.00  0.00    -0.329 OA
HETATM   14  H   UNK N   1      29.034  16.451  10.680  0.00  0.00     0.220 HD
ENDBRANCH   9  13
ENDBRANCH   8   9
ENDBRANCH   1   8
TORSDOF 8
ENDMDL
MODEL 9
REMARK VINA RESULT:      -4.3     14.733     16.277
REMARK  8 active torsions:
REMARK  status: ('A' for Active; 'I' for Inactive)
REMARK    1  A    between atoms: O_1  and  N_2 
REMARK    2  A    between atoms: N_2  and  C_3 
REMARK    3  A    between atoms: N_2  and  C_10 
REMARK    4  A    between atoms: C_3  and  C_4 
REMARK    5  A    between atoms: C_4  and  C_5 
REMARK    6  A    between atoms: C_5  and  P_6 
REMARK    7  A    between atoms: P_6  and  O_7 
REMARK    8  A    between atoms: P_6  and  O_8 
ROOT
HETATM    1  C   UNK N   1      43.456  23.729   1.356  0.00  0.00     0.034 C 
ENDROOT
BRANCH   1   2
HETATM    2  C   UNK N   1      42.932  22.781   2.423  0.00  0.00     0.159 C 
BRANCH   2   3
HETATM    3  N   UNK N   1      43.560  23.041   3.702  0.00  0.00    -0.236 N 
BRANCH   3   4
HETATM    4  O   UNK N   1      43.556  24.271   4.233  0.00  0.00    -0.285 OA
HETATM    5  H   UNK N   1      42.933  24.941   3.908  0.00  0.00     0.245 HD
ENDBRANCH   3   4
BRANCH   3   6
HETATM    6  C   UNK N   1      44.171  22.023   4.350  0.00  0.00     0.376 C 
HETATM    7  O   UNK N   1      45.388  21.911   4.314  0.00  0.00    -0.281 OA
ENDBRANCH   3   6
ENDBRANCH   2   3
ENDBRANCH   1   2
BRANCH   1   8
HETATM    8  C   UNK N   1      44.950  23.582   1.183  0.00  0.00     0.127 C 
BRANCH   8   9
HETATM    9  P   UNK N   1      45.729  25.238   1.495  0.00  0.00     0.235 P 
HETATM   10  O   UNK N   1      47.199  25.411   1.030  0.00  0.00    -0.653 OA
BRANCH   9  11
HETATM   11  O   UNK N   1      45.317  26.522   2.587  0.00  0.00    -0.329 OA
HETATM   12  H   UNK N   1      44.726  27.248   2.335  0.00  0.00     0.220 HD
ENDBRANCH   9  11
BRANCH   9  13
HETATM   13  O   UNK N   1      46.295  24.409   2.901  0.00  0.00    -0.329 OA
HETATM   14  H   UNK N   1      46.945  23.722   3.116  0.00  0.00     0.220 HD
ENDBRANCH   9  13
ENDBRANCH   8   9
ENDBRANCH   1   8
TORSDOF 8
ENDMDL
