MODEL 1
REMARK VINA RESULT:      -4.3      0.000      0.000
REMARK  2 active torsions:
REMARK  status: ('A' for Active; 'I' for Inactive)
REMARK    1  A    between atoms: O_1  and  C_8 
REMARK    2  A    between atoms: C_4  and  C_8 
ROOT
HETATM    1  N   UNK N   1      35.357  17.160  10.427  0.00  0.00    -0.408 N 
HETATM    2  C   UNK N   1      34.628  17.117   9.175  0.00  0.00     0.175 A 
HETATM    3  C   UNK N   1      35.010  15.922  11.118  0.00  0.00     0.115 A 
HETATM    4  C   UNK N   1      33.793  15.884   8.993  0.00  0.00     0.037 A 
HETATM    5  C   UNK N   1      34.044  15.106  10.263  0.00  0.00     0.022 A 
HETATM    6  H   UNK N   1      35.981  17.897  10.756  0.00  0.00     0.154 HD
ENDROOT
BRANCH   2   7
HETATM    7  C   UNK N   1      34.772  18.263   8.218  0.00  0.00     0.163 C 
HETATM    8  O   UNK N   1      35.294  19.297   8.582  0.00  0.00    -0.648 OA
BRANCH   7   9
HETATM    9  O   UNK N   1      34.322  18.148   6.951  0.00  0.00    -0.775 OA
HETATM   10  H   UNK N   1      34.181  17.299   6.578  0.00  0.00     0.167 HD
ENDBRANCH   7   9
ENDBRANCH   2   7
TORSDOF 2
ENDMDL
MODEL 2
REMARK VINA RESULT:      -4.2     12.021     12.719
REMARK  2 active torsions:
REMARK  status: ('A' for Active; 'I' for Inactive)
REMARK    1  A    between atoms: O_1  and  C_8 
REMARK    2  A    between atoms: C_4  and  C_8 
ROOT
HETATM    1  N   UNK N   1      24.908  12.610  11.171  0.00  0.00    -0.408 N 
HETATM    2  C   UNK N   1      23.567  12.179  11.514  0.00  0.00     0.175 A 
HETATM    3  C   UNK N   1      24.884  12.832   9.729  0.00  0.00     0.115 A 
HETATM    4  C   UNK N   1      22.629  12.102  10.345  0.00  0.00     0.037 A 
HETATM    5  C   UNK N   1      23.492  12.529   9.180  0.00  0.00     0.022 A 
HETATM    6  H   UNK N   1      25.699  12.731  11.802  0.00  0.00     0.154 HD
ENDROOT
BRANCH   2   7
HETATM    7  C   UNK N   1      23.255  11.864  12.946  0.00  0.00     0.163 C 
HETATM    8  O   UNK N   1      23.951  12.313  13.833  0.00  0.00    -0.648 OA
BRANCH   7   9
HETATM    9  O   UNK N   1      22.199  11.080  13.253  0.00  0.00    -0.775 OA
HETATM   10  H   UNK N   1      22.100  10.245  12.841  0.00  0.00     0.167 HD
ENDBRANCH   7   9
ENDBRANCH   2   7
TORSDOF 2
ENDMDL
MODEL 3
REMARK VINA RESULT:      -4.2     15.833     16.231
REMARK  2 active torsions:
REMARK  status: ('A' for Active; 'I' for Inactive)
REMARK    1  A    between atoms: O_1  and  C_8 
REMARK    2  A    between atoms: C_4  and  C_8 
ROOT
HETATM    1  N   UNK N   1      20.242  18.195   0.781  0.00  0.00    -0.408 N 
HETATM    2  C   UNK N   1      20.555  19.243   1.733  0.00  0.00     0.175 A 
HETATM    3  C   UNK N   1      19.936  17.020   1.589  0.00  0.00     0.115 A 
HETATM    4  C   UNK N   1      20.469  18.813   3.168  0.00  0.00     0.037 A 
HETATM    5  C   UNK N   1      20.065  17.361   3.071  0.00  0.00     0.022 A 
HETATM    6  H   UNK N   1      20.238  18.265  -0.236  0.00  0.00     0.154 HD
ENDROOT
BRANCH   2   7
HETATM    7  C   UNK N   1      20.919  20.602   1.216  0.00  0.00     0.163 C 
HETATM    8  O   UNK N   1      21.079  20.777   0.025  0.00  0.00    -0.648 OA
BRANCH   7   9
HETATM    9  O   UNK N   1      21.071  21.635   2.072  0.00  0.00    -0.775 OA
HETATM   10  H   UNK N   1      21.215  22.501   1.742  0.00  0.00     0.167 HD
ENDBRANCH   7   9
ENDBRANCH   2   7
TORSDOF 2
ENDMDL
MODEL 4
REMARK VINA RESULT:      -4.1     12.335     13.001
REMARK  2 active torsions:
REMARK  status: ('A' for Active; 'I' for Inactive)
REMARK    1  A    between atoms: O_1  and  C_8 
REMARK    2  A    between atoms: C_4  and  C_8 
ROOT
HETATM    1  N   UNK N   1      22.131  11.836  11.502  0.00  0.00    -0.408 N 
HETATM    2  C   UNK N   1      22.853  12.688  10.578  0.00  0.00     0.175 A 
HETATM    3  C   UNK N   1      20.726  12.197  11.341  0.00  0.00     0.115 A 
HETATM    4  C   UNK N   1      21.978  13.621   9.792  0.00  0.00     0.037 A 
HETATM    5  C   UNK N   1      20.590  13.297  10.293  0.00  0.00     0.022 A 
HETATM    6  H   UNK N   1      22.521  11.134  12.130  0.00  0.00     0.154 HD
ENDROOT
BRANCH   2   7
HETATM    7  C   UNK N   1      24.345  12.564  10.498  0.00  0.00     0.163 C 
HETATM    8  O   UNK N   1      24.912  12.723   9.436  0.00  0.00    -0.648 OA
BRANCH   7   9
HETATM    9  O   UNK N   1      25.061  12.274  11.605  0.00  0.00    -0.775 OA
HETATM   10  H   UNK N   1      25.314  11.389  11.782  0.00  0.00     0.167 HD
ENDBRANCH   7   9
ENDBRANCH   2   7
TORSDOF 2
ENDMDL
MODEL 5
REMARK VINA RESULT:      -4.0      2.293      3.080
REMARK  2 active torsions:
REMARK  status: ('A' for Active; 'I' for Inactive)
REMARK    1  A    between atoms: O_1  and  C_8 
REMARK    2  A    between atoms: C_4  and  C_8 
ROOT
HETATM    1  N   UNK N   1      32.466  17.174   8.986  0.00  0.00    -0.408 N 
HETATM    2  C   UNK N   1      33.549  17.663   8.154  0.00  0.00     0.175 A 
HETATM    3  C   UNK N   1      31.430  16.741   8.055  0.00  0.00     0.115 A 
HETATM    4  C   UNK N   1      33.278  17.575   6.681  0.00  0.00     0.037 A 
HETATM    5  C   UNK N   1      31.893  16.973   6.619  0.00  0.00     0.022 A 
HETATM    6  H   UNK N   1      32.436  17.140  10.004  0.00  0.00     0.154 HD
ENDROOT
BRANCH   2   7
HETATM    7  C   UNK N   1      34.786  18.189   8.817  0.00  0.00     0.163 C 
HETATM    8  O   UNK N   1      35.292  19.223   8.430  0.00  0.00    -0.648 OA
BRANCH   7   9
HETATM    9  O   UNK N   1      35.343  17.514   9.847  0.00  0.00    -0.775 OA
HETATM   10  H   UNK N   1      36.218  17.712  10.118  0.00  0.00     0.167 HD
ENDBRANCH   7   9
ENDBRANCH   2   7
TORSDOF 2
ENDMDL
MODEL 6
REMARK VINA RESULT:      -3.9     12.875     13.581
REMARK  2 active torsions:
REMARK  status: ('A' for Active; 'I' for Inactive)
REMARK    1  A    between atoms: O_1  and  C_8 
REMARK    2  A    between atoms: C_4  and  C_8 
ROOT
HETATM    1  N   UNK N   1      22.800  13.229   9.570  0.00  0.00    -0.408 N 
HETATM    2  C   UNK N   1      22.292  12.516  10.726  0.00  0.00     0.175 A 
HETATM    3  C   UNK N   1      24.248  13.058   9.618  0.00  0.00     0.115 A 
HETATM    4  C   UNK N   1      23.355  11.863  11.560  0.00  0.00     0.037 A 
HETATM    5  C   UNK N   1      24.631  12.219  10.834  0.00  0.00     0.022 A 
HETATM    6  H   UNK N   1      22.260  13.741   8.873  0.00  0.00     0.154 HD
ENDROOT
BRANCH   2   7
HETATM    7  C   UNK N   1      20.812  12.498  10.969  0.00  0.00     0.163 C 
HETATM    8  O   UNK N   1      20.073  13.165  10.274  0.00  0.00    -0.648 OA
BRANCH   7   9
HETATM    9  O   UNK N   1      20.297  11.739  11.961  0.00  0.00    -0.775 OA
HETATM   10  H   UNK N   1      19.392  11.817  12.188  0.00  0.00     0.167 HD
ENDBRANCH   7   9
ENDBRANCH   2   7
TORSDOF 2
ENDMDL
MODEL 7
REMARK VINA RESULT:      -3.8      7.719      8.469
REMARK  2 active torsions:
REMARK  status: ('A' for Active; 'I' for Inactive)
REMARK    1  A    between atoms: O_1  and  C_8 
REMARK    2  A    between atoms: C_4  and  C_8 
ROOT
HETATM    1  N   UNK N   1      26.676  20.557   7.865  0.00  0.00    -0.408 N 
HETATM    2  C   UNK N   1      27.634  19.603   7.342  0.00  0.00     0.175 A 
HETATM    3  C   UNK N   1      26.296  21.385   6.726  0.00  0.00     0.115 A 
HETATM    4  C   UNK N   1      27.917  19.759   5.876  0.00  0.00     0.037 A 
HETATM    5  C   UNK N   1      27.042  20.924   5.477  0.00  0.00     0.022 A 
HETATM    6  H   UNK N   1      26.340  20.633   8.825  0.00  0.00     0.154 HD
ENDROOT
BRANCH   2   7
HETATM    7  C   UNK N   1      28.228  18.591   8.275  0.00  0.00     0.163 C 
HETATM    8  O   UNK N   1      29.351  18.172   8.084  0.00  0.00    -0.648 OA
BRANCH   7   9
HETATM    9  O   UNK N   1      27.515  18.143   9.332  0.00  0.00    -0.775 OA
HETATM   10  H   UNK N   1      26.678  17.742   9.197  0.00  0.00     0.167 HD
ENDBRANCH   7   9
ENDBRANCH   2   7
TORSDOF 2
ENDMDL
MODEL 8
REMARK VINA RESULT:      -3.8     16.001     16.460
REMARK  2 active torsions:
REMARK  status: ('A' for Active; 'I' for Inactive)
REMARK    1  A    between atoms: O_1  and  C_8 
REMARK    2  A    between atoms: C_4  and  C_8 
ROOT
HETATM    1  N   UNK N   1      20.517  19.698   1.170  0.00  0.00    -0.408 N 
HETATM    2  C   UNK N   1      20.342  18.399   1.789  0.00  0.00     0.175 A 
HETATM    3  C   UNK N   1      20.790  20.616   2.270  0.00  0.00     0.115 A 
HETATM    4  C   UNK N   1      20.488  18.406   3.282  0.00  0.00     0.037 A 
HETATM    5  C   UNK N   1      20.781  19.855   3.594  0.00  0.00     0.022 A 
HETATM    6  H   UNK N   1      20.461  19.923   0.177  0.00  0.00     0.154 HD
ENDROOT
BRANCH   2   7
HETATM    7  C   UNK N   1      20.043  17.218   0.914  0.00  0.00     0.163 C 
HETATM    8  O   UNK N   1      20.346  17.239  -0.261  0.00  0.00    -0.648 OA
BRANCH   7   9
HETATM    9  O   UNK N   1      19.437  16.128   1.432  0.00  0.00    -0.775 OA
HETATM   10  H   UNK N   1      19.886  15.305   1.447  0.00  0.00     0.167 HD
ENDBRANCH   7   9
ENDBRANCH   2   7
TORSDOF 2
ENDMDL
MODEL 9
REMARK VINA RESULT:      -3.7     11.270     11.997
REMARK  2 active torsions:
REMARK  status: ('A' for Active; 'I' for Inactive)
REMARK    1  A    between atoms: O_1  and  C_8 
REMARK    2  A    between atoms: C_4  and  C_8 
ROOT
HETATM    1  N   UNK N   1      42.384  23.747   2.356  0.00  0.00    -0.408 N 
HETATM    2  C   UNK N   1      42.829  22.542   3.029  0.00  0.00     0.175 A 
HETATM    3  C   UNK N   1      41.201  23.351   1.601  0.00  0.00     0.115 A 
HETATM    4  C   UNK N   1      41.982  21.336   2.752  0.00  0.00     0.037 A 
HETATM    5  C   UNK N   1      40.919  21.867   1.819  0.00  0.00     0.022 A 
HETATM    6  H   UNK N   1      42.807  24.673   2.402  0.00  0.00     0.154 HD
ENDROOT
BRANCH   2   7
HETATM    7  C   UNK N   1      44.046  22.613   3.903  0.00  0.00     0.163 C 
HETATM    8  O   UNK N   1      43.935  22.517   5.108  0.00  0.00    -0.648 OA
BRANCH   7   9
HETATM    9  O   UNK N   1      45.267  22.782   3.352  0.00  0.00    -0.775 OA
HETATM   10  H   UNK N   1      45.402  23.450   2.709  0.00  0.00     0.167 HD
ENDBRANCH   7   9
ENDBRANCH   2   7
TORSDOF 2
ENDMDL
