MODEL 1
REMARK VINA RESULT:      -7.4      0.000      0.000
REMARK WARNING: 32 MAX_TORS EXCEEDED!!!
REMARK  54 active torsions:
REMARK  status: ('A' for Active; 'I' for Inactive)
REMARK    1  A    between atoms: C_5  and  C_1 
REMARK    2  A    between atoms: C_13  and  C_1 
REMARK    3  A    between atoms: C_6  and  C_2 
REMARK    4  A    between atoms: C_14  and  C_2 
REMARK    5  A    between atoms: C_7  and  C_3 
REMARK    6  A    between atoms: C_15  and  C_3 
REMARK    7  A    between atoms: C_8  and  C_4 
REMARK    8  A    between atoms: C_16  and  C_4 
REMARK    9  A    between atoms: N_65  and  C_5 
REMARK   10  A    between atoms: N_66  and  C_6 
REMARK   11  A    between atoms: N_69  and  C_7 
REMARK   12  A    between atoms: N_71  and  C_8 
REMARK   13  A    between atoms: C_11  and  C_9 
REMARK   14  A    between atoms: N_67  and  C_9 
REMARK   15  A    between atoms: C_12  and  C_10 
REMARK   16  A    between atoms: N_68  and  C_10 
REMARK   17  A    between atoms: N_73  and  C_11 
REMARK   18  A    between atoms: N_75  and  C_12 
REMARK   19  A    between atoms: N_77  and  C_13 
REMARK   20  A    between atoms: N_78  and  C_14 
REMARK   21  A    between atoms: N_79  and  C_15 
REMARK   22  A    between atoms: N_80  and  C_16 
REMARK   23  A    between atoms: C_42  and  C_31 
REMARK   24  A    between atoms: O_83  and  C_31 
REMARK   25  A    between atoms: C_43  and  C_32 
REMARK   26  A    between atoms: O_84  and  C_32 
REMARK   27  A    between atoms: C_37  and  C_33 
REMARK   28  A    between atoms: O_103  and  C_33 
REMARK   29  A    between atoms: C_37  and  C_34 
REMARK   30  A    between atoms: O_104  and  C_34 
REMARK   31  A    between atoms: C_58  and  C_35 
REMARK   32  A    between atoms: C_59  and  C_36 
REMARK   33  A    between atoms: N_64  and  C_37 
REMARK   34  A    between atoms: N_81  and  C_38 
REMARK   35  A    between atoms: N_82  and  C_39 
REMARK   36  A    between atoms: O_105  and  C_40 
REMARK   37  A    between atoms: O_106  and  C_41 
REMARK   38  A    between atoms: N_65  and  C_44 
REMARK   39  A    between atoms: N_66  and  C_45 
REMARK   40  A    between atoms: N_67  and  C_46 
REMARK   41  A    between atoms: N_68  and  C_47 
REMARK   42  A    between atoms: C_48  and  O_85 
REMARK   43  A    between atoms: O_86  and  C_49 
REMARK   44  A    between atoms: C_54  and  O_91 
REMARK   45  A    between atoms: O_92  and  C_55 
REMARK   46  A    between atoms: O_94  and  C_57 
REMARK   47  A    between atoms: O_95  and  C_58 
REMARK   48  A    between atoms: O_96  and  C_59 
REMARK   49  A    between atoms: C_60  and  O_105 
REMARK   50  A    between atoms: O_106  and  C_61 
REMARK   51  A    between atoms: O_97  and  C_62 
REMARK   52  A    between atoms: O_103  and  C_62 
REMARK   53  A    between atoms: O_98  and  C_63 
REMARK   54  A    between atoms: O_104  and  C_63 
ROOT
HETATM    1  C   UNK N   1      36.453  13.606  14.413  0.00  0.00     0.179 C 
HETATM    2  C   UNK N   1      36.887  12.193  14.859  0.00  0.00     0.180 C 
HETATM    3  C   UNK N   1      36.785  11.254  13.643  0.00  0.00     0.183 C 
HETATM    4  C   UNK N   1      35.370  11.329  13.052  0.00  0.00     0.205 C 
HETATM    5  C   UNK N   1      35.009  12.829  12.774  0.00  0.00     0.298 C 
HETATM    6  O   UNK N   1      34.445  10.789  13.947  0.00  0.00    -0.388 OA
HETATM    7  O   UNK N   1      35.114  13.596  13.950  0.00  0.00    -0.348 OA
HETATM    8  H   UNK N   1      33.709  10.487  14.503  0.00  0.00     0.210 HD
ENDROOT
BRANCH   3   9
HETATM    9  O   UNK N   1      37.100   9.941  14.007  0.00  0.00    -0.390 OA
HETATM   10  H   UNK N   1      37.560   9.301  13.441  0.00  0.00     0.210 HD
ENDBRANCH   3   9
BRANCH   5  11
HETATM   11  O   UNK N   1      35.754  13.427  11.754  0.00  0.00    -0.318 OA
BRANCH  11  12
HETATM   12  C   UNK N   1      35.161  13.561  10.569  0.00  0.00     0.075 A 
HETATM   13  C   UNK N   1      34.682  14.810  10.213  0.00  0.00     0.052 A 
HETATM   14  C   UNK N   1      33.677  14.923   9.265  0.00  0.00     0.019 A 
HETATM   15  C   UNK N   1      33.097  13.753   8.736  0.00  0.00     0.052 A 
HETATM   16  C   UNK N   1      33.634  12.494   9.065  0.00  0.00     0.106 A 
HETATM   17  C   UNK N   1      34.690  12.420   9.955  0.00  0.00     0.073 A 
BRANCH  14  18
HETATM   18  C   UNK N   1      33.095  16.245   9.035  0.00  0.00     0.146 C 
HETATM   19  N   UNK N   1      31.891  16.342   8.615  0.00  0.00    -0.370 N 
ATOM     20  HN  UNK N   1      31.394  15.507   8.303  1.00  0.00     0.161 HD
BRANCH  19  21
HETATM   21  C   UNK N   1      31.236  17.613   8.577  0.00  0.00     0.123 C 
BRANCH  21  22
HETATM   22  C   UNK N   1      30.021  17.430   7.679  0.00  0.00     0.050 C 
BRANCH  22  23
HETATM   23  C   UNK N   1      28.937  18.499   7.844  0.00  0.00     0.274 C 
BRANCH  23  24
HETATM   24  N   UNK N   1      27.908  18.479   6.805  0.00  0.00     0.091 N 
HETATM   25  C   UNK N   1      27.175  19.759   6.868  0.00  0.00     0.302 C 
HETATM   26  C   UNK N   1      26.798  20.370   5.512  0.00  0.00     0.302 C 
HETATM   27  N   UNK N   1      26.656  19.358   4.477  0.00  0.00     0.091 N 
HETATM   28  C   UNK N   1      27.982  18.771   4.290  0.00  0.00     0.302 C 
HETATM   29  C   UNK N   1      28.466  18.004   5.522  0.00  0.00     0.302 C 
BRANCH  27  30
HETATM   30  C   UNK N   1      25.620  18.398   4.890  0.00  0.00     0.274 C 
BRANCH  30  31
HETATM   31  C   UNK N   1      24.228  18.974   4.778  0.00  0.00     0.050 C 
BRANCH  31  32
HETATM   32  C   UNK N   1      23.266  18.014   4.064  0.00  0.00     0.121 C 
BRANCH  32  33
HETATM   33  N   UNK N   1      21.937  18.584   4.087  0.00  0.00    -0.385 N 
HETATM   34  H   UNK N   1      21.350  18.453   4.866  0.00  0.00     0.159 HD
BRANCH  33  35
HETATM   35  C   UNK N   1      21.498  19.333   2.971  0.00  0.00     0.114 A 
HETATM   36  C   UNK N   1      20.687  19.105   1.910  0.00  0.00     0.114 A 
HETATM   37  C   UNK N   1      21.105  20.356   1.278  0.00  0.00     0.252 A 
HETATM   38  C   UNK N   1      21.963  20.601   2.412  0.00  0.00     0.252 A 
HETATM   39  O   UNK N   1      20.925  20.884   0.195  0.00  0.00    -0.281 OA
HETATM   40  O   UNK N   1      22.815  21.422   2.710  0.00  0.00    -0.281 OA
BRANCH  36  41
HETATM   41  N   UNK N   1      19.865  18.047   1.421  0.00  0.00    -0.383 N 
HETATM   42  H   UNK N   1      18.891  18.165   1.493  0.00  0.00     0.159 HD
BRANCH  41  43
HETATM   43  C   UNK N   1      20.340  16.823   0.829  0.00  0.00     0.139 C 
BRANCH  43  44
HETATM   44  C   UNK N   1      19.971  15.627   1.655  0.00  0.00     0.143 C 
BRANCH  44  45
HETATM   45  N   UNK N   1      19.616  15.959   3.008  0.00  0.00    -0.349 N 
HETATM   46  C   UNK N   1      20.366  15.611   3.995  0.00  0.00     0.258 C 
ATOM     47  HN  UNK N   1      18.757  16.480   3.188  1.00  0.00     0.163 HD
BRANCH  46  48
HETATM   48  O   UNK N   1      21.441  14.832   3.800  0.00  0.00    -0.327 OA
HETATM   49  H   UNK N   1      22.300  15.149   3.996  0.00  0.00     0.221 HD
ENDBRANCH  46  48
BRANCH  46  50
HETATM   50  O   UNK N   1      20.257  16.283   5.153  0.00  0.00    -0.315 OA
BRANCH  50  51
HETATM   51  C   UNK N   1      19.164  15.997   5.958  0.00  0.00     0.206 C 
BRANCH  51  52
HETATM   52  C   UNK N   1      19.512  16.230   7.456  0.00  0.00     0.123 C 
BRANCH  52  53
HETATM   53  C   UNK N   1      20.203  15.017   8.110  0.00  0.00     0.206 C 
BRANCH  53  54
HETATM   54  O   UNK N   1      21.552  15.252   8.327  0.00  0.00    -0.315 OA
BRANCH  54  55
HETATM   55  C   UNK N   1      22.614  14.925   7.539  0.00  0.00     0.258 C 
HETATM   56  N   UNK N   1      23.439  13.965   7.812  0.00  0.00    -0.349 N 
ATOM     57  HN  UNK N   1      24.188  13.787   7.143  1.00  0.00     0.163 HD
BRANCH  56  58
HETATM   58  C   UNK N   1      23.386  13.125   8.989  0.00  0.00     0.143 C 
BRANCH  58  59
HETATM   59  C   UNK N   1      24.233  11.868   8.798  0.00  0.00     0.139 C 
BRANCH  59  60
HETATM   60  N   UNK N   1      23.403  10.819   8.284  0.00  0.00    -0.383 N 
HETATM   61  H   UNK N   1      23.163  10.057   8.861  0.00  0.00     0.159 HD
BRANCH  60  62
HETATM   62  C   UNK N   1      22.929  10.870   6.957  0.00  0.00     0.114 A 
HETATM   63  C   UNK N   1      23.518  10.521   5.809  0.00  0.00     0.114 A 
HETATM   64  C   UNK N   1      22.356  10.925   5.019  0.00  0.00     0.252 A 
HETATM   65  C   UNK N   1      21.711  11.308   6.264  0.00  0.00     0.252 A 
HETATM   66  O   UNK N   1      22.080  10.974   3.831  0.00  0.00    -0.281 OA
HETATM   67  O   UNK N   1      20.664  11.852   6.574  0.00  0.00    -0.281 OA
BRANCH  63  68
HETATM   68  N   UNK N   1      24.792   9.988   5.497  0.00  0.00    -0.385 N 
HETATM   69  H   UNK N   1      25.202   9.341   6.115  0.00  0.00     0.159 HD
BRANCH  68  70
HETATM   70  C   UNK N   1      25.510  10.362   4.301  0.00  0.00     0.121 C 
BRANCH  70  71
HETATM   71  C   UNK N   1      26.770  11.177   4.611  0.00  0.00     0.050 C 
BRANCH  71  72
HETATM   72  C   UNK N   1      26.567  12.697   4.701  0.00  0.00     0.274 C 
BRANCH  72  73
HETATM   73  N   UNK N   1      27.593  13.446   3.971  0.00  0.00     0.091 N 
HETATM   74  C   UNK N   1      27.751  12.909   2.620  0.00  0.00     0.302 C 
HETATM   75  C   UNK N   1      28.927  13.606   1.934  0.00  0.00     0.302 C 
HETATM   76  N   UNK N   1      28.969  15.053   2.189  0.00  0.00     0.091 N 
HETATM   77  C   UNK N   1      27.688  15.594   2.669  0.00  0.00     0.302 C 
HETATM   78  C   UNK N   1      27.151  14.844   3.907  0.00  0.00     0.302 C 
BRANCH  76  79
HETATM   79  C   UNK N   1      30.017  15.331   3.162  0.00  0.00     0.274 C 
BRANCH  79  80
HETATM   80  C   UNK N   1      30.695  16.648   2.841  0.00  0.00     0.050 C 
BRANCH  80  81
HETATM   81  C   UNK N   1      32.180  16.602   3.179  0.00  0.00     0.123 C 
BRANCH  81  82
HETATM   82  N   UNK N   1      32.540  17.444   4.305  0.00  0.00    -0.370 N 
HETATM   83  C   UNK N   1      33.279  17.053   5.288  0.00  0.00     0.146 C 
ATOM     84  HN  UNK N   1      32.189  18.402   4.320  1.00  0.00     0.161 HD
BRANCH  83  85
HETATM   85  C   UNK N   1      33.792  15.684   5.367  0.00  0.00     0.019 A 
HETATM   86  C   UNK N   1      33.007  14.571   5.011  0.00  0.00     0.052 A 
HETATM   87  C   UNK N   1      33.522  13.269   5.157  0.00  0.00     0.106 A 
HETATM   88  C   UNK N   1      34.809  13.110   5.666  0.00  0.00     0.073 A 
HETATM   89  C   UNK N   1      35.547  14.220   6.070  0.00  0.00     0.075 A 
HETATM   90  C   UNK N   1      35.040  15.496   5.925  0.00  0.00     0.052 A 
BRANCH  87  91
HETATM   91  N   UNK N   1      32.712  12.119   4.934  0.00  0.00    -0.116 N 
HETATM   92  O   UNK N   1      31.721  11.951   5.581  0.00  0.00    -0.532 OA
HETATM   93  O   UNK N   1      32.942  11.391   4.017  0.00  0.00    -0.532 OA
ENDBRANCH  87  91
BRANCH  89  94
HETATM   94  O   UNK N   1      36.594  14.056   6.879  0.00  0.00    -0.318 OA
BRANCH  94  95
HETATM   95  C   UNK N   1      37.412  12.961   6.624  0.00  0.00     0.298 C 
HETATM   96  C   UNK N   1      38.576  13.315   5.662  0.00  0.00     0.205 C 
HETATM   97  C   UNK N   1      39.457  14.357   6.365  0.00  0.00     0.183 C 
HETATM   98  C   UNK N   1      39.925  13.789   7.715  0.00  0.00     0.180 C 
HETATM   99  C   UNK N   1      38.689  13.339   8.539  0.00  0.00     0.179 C 
HETATM  100  O   UNK N   1      37.895  12.408   7.827  0.00  0.00    -0.348 OA
BRANCH  96 101
HETATM  101  O   UNK N   1      39.301  12.161   5.356  0.00  0.00    -0.388 OA
HETATM  102  H   UNK N   1      39.972  11.484   5.531  0.00  0.00     0.210 HD
ENDBRANCH  96 101
BRANCH  97 103
HETATM  103  O   UNK N   1      40.545  14.704   5.562  0.00  0.00    -0.390 OA
HETATM  104  H   UNK N   1      40.733  14.230   4.736  0.00  0.00     0.210 HD
ENDBRANCH  97 103
BRANCH  98 105
HETATM  105  O   UNK N   1      40.786  12.710   7.497  0.00  0.00    -0.390 OA
HETATM  106  H   UNK N   1      40.924  11.750   7.543  0.00  0.00     0.210 HD
ENDBRANCH  98 105
BRANCH  99 107
HETATM  107  C   UNK N   1      39.092  12.681   9.853  0.00  0.00     0.198 C 
BRANCH 107 108
HETATM  108  O   UNK N   1      38.585  13.403  10.940  0.00  0.00    -0.398 OA
HETATM  109  H   UNK N   1      38.454  13.646  11.870  0.00  0.00     0.209 HD
ENDBRANCH 107 108
ENDBRANCH  99 107
ENDBRANCH  94  95
ENDBRANCH  89  94
ENDBRANCH  83  85
BRANCH  83 110
HETATM  110  O   UNK N   1      33.674  17.950   6.214  0.00  0.00    -0.346 OA
HETATM  111  H   UNK N   1      33.608  18.571   6.912  0.00  0.00     0.219 HD
ENDBRANCH  83 110
ENDBRANCH  81  82
ENDBRANCH  80  81
ENDBRANCH  79  80
ENDBRANCH  76  79
ENDBRANCH  72  73
ENDBRANCH  71  72
ENDBRANCH  70  71
ENDBRANCH  68  70
ENDBRANCH  63  68
ENDBRANCH  60  62
ENDBRANCH  59  60
ENDBRANCH  58  59
ENDBRANCH  56  58
BRANCH  55 112
HETATM  112  O   UNK N   1      22.808  15.642   6.415  0.00  0.00    -0.327 OA
HETATM  113  H   UNK N   1      22.738  16.103   5.603  0.00  0.00     0.221 HD
ENDBRANCH  55 112
ENDBRANCH  54  55
ENDBRANCH  53  54
ENDBRANCH  52  53
BRANCH  52 114
HETATM  114  N   UNK N   1      20.319  17.426   7.613  0.00  0.00    -0.422 N 
HETATM  115  H   UNK N   1      20.004  18.393   7.687  0.00  0.00     0.150 HD
HETATM  116  H   UNK N   1      21.328  17.281   7.654  0.00  0.00     0.150 HD
ENDBRANCH  52 114
ENDBRANCH  51  52
ENDBRANCH  50  51
ENDBRANCH  46  50
ENDBRANCH  44  45
ENDBRANCH  43  44
ENDBRANCH  41  43
ENDBRANCH  36  41
ENDBRANCH  33  35
ENDBRANCH  32  33
ENDBRANCH  31  32
ENDBRANCH  30  31
ENDBRANCH  27  30
ENDBRANCH  23  24
ENDBRANCH  22  23
ENDBRANCH  21  22
ENDBRANCH  19  21
BRANCH  18 117
HETATM  117  O   UNK N   1      33.791  17.353   9.381  0.00  0.00    -0.346 OA
HETATM  118  H   UNK N   1      33.414  17.996   9.948  0.00  0.00     0.219 HD
ENDBRANCH  18 117
ENDBRANCH  14  18
BRANCH  16 119
HETATM  119  N   UNK N   1      32.973  11.288   8.742  0.00  0.00    -0.116 N 
HETATM  120  O   UNK N   1      33.485  10.511   8.003  0.00  0.00    -0.532 OA
HETATM  121  O   UNK N   1      32.113  10.902   9.468  0.00  0.00    -0.532 OA
ENDBRANCH  16 119
ENDBRANCH  11  12
ENDBRANCH   5  11
BRANCH   2 122
HETATM  122  O   UNK N   1      36.063  11.737  15.894  0.00  0.00    -0.390 OA
HETATM  123  H   UNK N   1      35.618  11.192  16.562  0.00  0.00     0.210 HD
ENDBRANCH   2 122
BRANCH   1 124
HETATM  124  C   UNK N   1      36.564  14.641  15.522  0.00  0.00     0.198 C 
BRANCH 124 125
HETATM  125  O   UNK N   1      37.897  14.988  15.747  0.00  0.00    -0.398 OA
HETATM  126  H   UNK N   1      38.666  15.451  16.116  0.00  0.00     0.209 HD
ENDBRANCH 124 125
ENDBRANCH   1 124
TORSDOF 54
ENDMDL
MODEL 2
REMARK VINA RESULT:      -7.3      2.716      9.634
REMARK WARNING: 32 MAX_TORS EXCEEDED!!!
REMARK  54 active torsions:
REMARK  status: ('A' for Active; 'I' for Inactive)
REMARK    1  A    between atoms: C_5  and  C_1 
REMARK    2  A    between atoms: C_13  and  C_1 
REMARK    3  A    between atoms: C_6  and  C_2 
REMARK    4  A    between atoms: C_14  and  C_2 
REMARK    5  A    between atoms: C_7  and  C_3 
REMARK    6  A    between atoms: C_15  and  C_3 
REMARK    7  A    between atoms: C_8  and  C_4 
REMARK    8  A    between atoms: C_16  and  C_4 
REMARK    9  A    between atoms: N_65  and  C_5 
REMARK   10  A    between atoms: N_66  and  C_6 
REMARK   11  A    between atoms: N_69  and  C_7 
REMARK   12  A    between atoms: N_71  and  C_8 
REMARK   13  A    between atoms: C_11  and  C_9 
REMARK   14  A    between atoms: N_67  and  C_9 
REMARK   15  A    between atoms: C_12  and  C_10 
REMARK   16  A    between atoms: N_68  and  C_10 
REMARK   17  A    between atoms: N_73  and  C_11 
REMARK   18  A    between atoms: N_75  and  C_12 
REMARK   19  A    between atoms: N_77  and  C_13 
REMARK   20  A    between atoms: N_78  and  C_14 
REMARK   21  A    between atoms: N_79  and  C_15 
REMARK   22  A    between atoms: N_80  and  C_16 
REMARK   23  A    between atoms: C_42  and  C_31 
REMARK   24  A    between atoms: O_83  and  C_31 
REMARK   25  A    between atoms: C_43  and  C_32 
REMARK   26  A    between atoms: O_84  and  C_32 
REMARK   27  A    between atoms: C_37  and  C_33 
REMARK   28  A    between atoms: O_103  and  C_33 
REMARK   29  A    between atoms: C_37  and  C_34 
REMARK   30  A    between atoms: O_104  and  C_34 
REMARK   31  A    between atoms: C_58  and  C_35 
REMARK   32  A    between atoms: C_59  and  C_36 
REMARK   33  A    between atoms: N_64  and  C_37 
REMARK   34  A    between atoms: N_81  and  C_38 
REMARK   35  A    between atoms: N_82  and  C_39 
REMARK   36  A    between atoms: O_105  and  C_40 
REMARK   37  A    between atoms: O_106  and  C_41 
REMARK   38  A    between atoms: N_65  and  C_44 
REMARK   39  A    between atoms: N_66  and  C_45 
REMARK   40  A    between atoms: N_67  and  C_46 
REMARK   41  A    between atoms: N_68  and  C_47 
REMARK   42  A    between atoms: C_48  and  O_85 
REMARK   43  A    between atoms: O_86  and  C_49 
REMARK   44  A    between atoms: C_54  and  O_91 
REMARK   45  A    between atoms: O_92  and  C_55 
REMARK   46  A    between atoms: O_94  and  C_57 
REMARK   47  A    between atoms: O_95  and  C_58 
REMARK   48  A    between atoms: O_96  and  C_59 
REMARK   49  A    between atoms: C_60  and  O_105 
REMARK   50  A    between atoms: O_106  and  C_61 
REMARK   51  A    between atoms: O_97  and  C_62 
REMARK   52  A    between atoms: O_103  and  C_62 
REMARK   53  A    between atoms: O_98  and  C_63 
REMARK   54  A    between atoms: O_104  and  C_63 
ROOT
HETATM    1  C   UNK N   1      29.785  18.033   8.205  0.00  0.00     0.179 C 
HETATM    2  C   UNK N   1      31.253  17.703   8.555  0.00  0.00     0.180 C 
HETATM    3  C   UNK N   1      32.027  17.500   7.240  0.00  0.00     0.183 C 
HETATM    4  C   UNK N   1      31.320  16.436   6.386  0.00  0.00     0.205 C 
HETATM    5  C   UNK N   1      29.811  16.826   6.225  0.00  0.00     0.298 C 
HETATM    6  O   UNK N   1      31.410  15.187   7.003  0.00  0.00    -0.388 OA
HETATM    7  O   UNK N   1      29.192  16.969   7.482  0.00  0.00    -0.348 OA
HETATM    8  H   UNK N   1      31.366  14.284   7.357  0.00  0.00     0.210 HD
ENDROOT
BRANCH   3   9
HETATM    9  O   UNK N   1      33.349  17.129   7.497  0.00  0.00    -0.390 OA
HETATM   10  H   UNK N   1      33.805  16.374   7.093  0.00  0.00     0.210 HD
ENDBRANCH   3   9
BRANCH   5  11
HETATM   11  O   UNK N   1      29.585  17.973   5.458  0.00  0.00    -0.318 OA
BRANCH  11  12
HETATM   12  C   UNK N   1      28.662  17.891   4.503  0.00  0.00     0.075 A 
HETATM   13  C   UNK N   1      27.705  18.890   4.428  0.00  0.00     0.052 A 
HETATM   14  C   UNK N   1      26.489  18.641   3.811  0.00  0.00     0.019 A 
HETATM   15  C   UNK N   1      26.211  17.343   3.339  0.00  0.00     0.052 A 
HETATM   16  C   UNK N   1      27.214  16.356   3.370  0.00  0.00     0.106 A 
HETATM   17  C   UNK N   1      28.445  16.659   3.922  0.00  0.00     0.073 A 
BRANCH  14  18
HETATM   18  C   UNK N   1      25.454  19.671   3.893  0.00  0.00     0.146 C 
HETATM   19  N   UNK N   1      24.678  19.868   2.896  0.00  0.00    -0.370 N 
ATOM     20  HN  UNK N   1      24.874  19.415   2.003  1.00  0.00     0.161 HD
BRANCH  19  21
HETATM   21  C   UNK N   1      23.536  20.720   3.023  0.00  0.00     0.123 C 
BRANCH  21  22
HETATM   22  C   UNK N   1      22.325  19.842   2.739  0.00  0.00     0.050 C 
BRANCH  22  23
HETATM   23  C   UNK N   1      21.665  19.239   3.983  0.00  0.00     0.274 C 
BRANCH  23  24
HETATM   24  N   UNK N   1      22.415  18.141   4.590  0.00  0.00     0.091 N 
HETATM   25  C   UNK N   1      21.945  17.986   5.981  0.00  0.00     0.302 C 
HETATM   26  C   UNK N   1      21.806  16.539   6.472  0.00  0.00     0.302 C 
HETATM   27  N   UNK N   1      22.706  15.635   5.772  0.00  0.00     0.091 N 
HETATM   28  C   UNK N   1      22.270  15.620   4.375  0.00  0.00     0.302 C 
HETATM   29  C   UNK N   1      22.461  16.973   3.686  0.00  0.00     0.302 C 
BRANCH  27  30
HETATM   30  C   UNK N   1      24.090  16.093   5.971  0.00  0.00     0.274 C 
BRANCH  30  31
HETATM   31  C   UNK N   1      24.998  14.982   6.446  0.00  0.00     0.050 C 
BRANCH  31  32
HETATM   32  C   UNK N   1      24.261  13.989   7.357  0.00  0.00     0.121 C 
BRANCH  32  33
HETATM   33  N   UNK N   1      24.841  12.677   7.181  0.00  0.00    -0.385 N 
HETATM   34  H   UNK N   1      25.240  12.200   7.943  0.00  0.00     0.159 HD
BRANCH  33  35
HETATM   35  C   UNK N   1      24.824  12.092   5.893  0.00  0.00     0.114 A 
HETATM   36  C   UNK N   1      25.758  11.730   4.982  0.00  0.00     0.114 A 
HETATM   37  C   UNK N   1      24.728  11.490   3.970  0.00  0.00     0.252 A 
HETATM   38  C   UNK N   1      23.734  11.870   4.945  0.00  0.00     0.252 A 
HETATM   39  O   UNK N   1      24.724  11.233   2.780  0.00  0.00    -0.281 OA
HETATM   40  O   UNK N   1      22.529  12.068   4.943  0.00  0.00    -0.281 OA
BRANCH  36  41
HETATM   41  N   UNK N   1      27.180  11.718   4.878  0.00  0.00    -0.383 N 
HETATM   42  H   UNK N   1      27.653  12.556   5.084  0.00  0.00     0.159 HD
BRANCH  41  43
HETATM   43  C   UNK N   1      27.983  10.584   4.499  0.00  0.00     0.139 C 
BRANCH  43  44
HETATM   44  C   UNK N   1      29.448  10.882   4.597  0.00  0.00     0.143 C 
BRANCH  44  45
HETATM   45  N   UNK N   1      29.875  11.931   3.712  0.00  0.00    -0.349 N 
HETATM   46  C   UNK N   1      30.814  12.745   4.051  0.00  0.00     0.258 C 
ATOM     47  HN  UNK N   1      29.428  12.033   2.801  1.00  0.00     0.163 HD
BRANCH  46  48
HETATM   48  O   UNK N   1      31.344  12.707   5.283  0.00  0.00    -0.327 OA
HETATM   49  H   UNK N   1      32.159  12.271   5.438  0.00  0.00     0.221 HD
ENDBRANCH  46  48
BRANCH  46  50
HETATM   50  O   UNK N   1      31.475  13.403   3.084  0.00  0.00    -0.315 OA
BRANCH  50  51
HETATM   51  C   UNK N   1      31.702  14.758   3.275  0.00  0.00     0.206 C 
BRANCH  51  52
HETATM   52  C   UNK N   1      33.189  15.110   2.979  0.00  0.00     0.123 C 
BRANCH  52  53
HETATM   53  C   UNK N   1      34.027  15.304   4.258  0.00  0.00     0.206 C 
BRANCH  53  54
HETATM   54  O   UNK N   1      33.799  14.293   5.178  0.00  0.00    -0.315 OA
BRANCH  54  55
HETATM   55  C   UNK N   1      34.541  13.943   6.266  0.00  0.00     0.258 C 
HETATM   56  N   UNK N   1      35.436  13.006   6.251  0.00  0.00    -0.349 N 
ATOM     57  HN  UNK N   1      35.953  12.839   7.113  1.00  0.00     0.163 HD
BRANCH  56  58
HETATM   58  C   UNK N   1      35.759  12.176   5.111  0.00  0.00     0.143 C 
BRANCH  58  59
HETATM   59  C   UNK N   1      34.952  10.877   5.138  0.00  0.00     0.139 C 
BRANCH  59  60
HETATM   60  N   UNK N   1      35.164  10.222   6.395  0.00  0.00    -0.383 N 
HETATM   61  H   UNK N   1      36.054   9.861   6.615  0.00  0.00     0.159 HD
BRANCH  60  62
HETATM   62  C   UNK N   1      34.107  10.092   7.319  0.00  0.00     0.114 A 
HETATM   63  C   UNK N   1      33.217   9.108   7.490  0.00  0.00     0.114 A 
HETATM   64  C   UNK N   1      32.552   9.818   8.582  0.00  0.00     0.252 A 
HETATM   65  C   UNK N   1      33.515  10.891   8.399  0.00  0.00     0.252 A 
HETATM   66  O   UNK N   1      31.578   9.617   9.289  0.00  0.00    -0.281 OA
HETATM   67  O   UNK N   1      33.681  12.005   8.868  0.00  0.00    -0.281 OA
BRANCH  63  68
HETATM   68  N   UNK N   1      33.004   7.871   6.836  0.00  0.00    -0.385 N 
HETATM   69  H   UNK N   1      32.712   7.873   5.896  0.00  0.00     0.159 HD
BRANCH  68  70
HETATM   70  C   UNK N   1      33.204   6.605   7.502  0.00  0.00     0.121 C 
BRANCH  70  71
HETATM   71  C   UNK N   1      34.488   6.584   8.337  0.00  0.00     0.050 C 
BRANCH  71  72
HETATM   72  C   UNK N   1      34.305   6.230   9.821  0.00  0.00     0.274 C 
BRANCH  72  73
HETATM   73  N   UNK N   1      34.680   7.331  10.713  0.00  0.00     0.091 N 
HETATM   74  C   UNK N   1      35.264   6.809  11.948  0.00  0.00     0.302 C 
HETATM   75  C   UNK N   1      35.507   7.965  12.920  0.00  0.00     0.302 C 
HETATM   76  N   UNK N   1      36.052   9.162  12.266  0.00  0.00     0.091 N 
HETATM   77  C   UNK N   1      36.640   8.886  10.946  0.00  0.00     0.302 C 
HETATM   78  C   UNK N   1      35.665   8.152  10.001  0.00  0.00     0.302 C 
BRANCH  76  79
HETATM   79  C   UNK N   1      34.992  10.153  12.134  0.00  0.00     0.274 C 
BRANCH  79  80
HETATM   80  C   UNK N   1      34.448  10.525  13.499  0.00  0.00     0.050 C 
BRANCH  80  81
HETATM   81  C   UNK N   1      34.508  12.031  13.727  0.00  0.00     0.123 C 
BRANCH  81  82
HETATM   82  N   UNK N   1      35.633  12.444  14.544  0.00  0.00    -0.370 N 
HETATM   83  C   UNK N   1      36.592  13.197  14.121  0.00  0.00     0.146 C 
ATOM     84  HN  UNK N   1      35.669  12.121  15.511  1.00  0.00     0.161 HD
BRANCH  83  85
HETATM   85  C   UNK N   1      36.642  13.673  12.737  0.00  0.00     0.019 A 
HETATM   86  C   UNK N   1      35.935  14.814  12.314  0.00  0.00     0.052 A 
HETATM   87  C   UNK N   1      35.967  15.202  10.961  0.00  0.00     0.106 A 
HETATM   88  C   UNK N   1      36.699  14.433  10.060  0.00  0.00     0.073 A 
HETATM   89  C   UNK N   1      37.341  13.272  10.486  0.00  0.00     0.075 A 
HETATM   90  C   UNK N   1      37.309  12.895  11.814  0.00  0.00     0.052 A 
BRANCH  87  91
HETATM   91  N   UNK N   1      35.160  16.270  10.475  0.00  0.00    -0.116 N 
HETATM   92  O   UNK N   1      35.582  17.388  10.476  0.00  0.00    -0.532 OA
HETATM   93  O   UNK N   1      34.115  16.040   9.944  0.00  0.00    -0.532 OA
ENDBRANCH  87  91
BRANCH  89  94
HETATM   94  O   UNK N   1      37.716  12.360   9.589  0.00  0.00    -0.318 OA
BRANCH  94  95
HETATM   95  C   UNK N   1      39.082  12.230   9.367  0.00  0.00     0.298 C 
HETATM   96  C   UNK N   1      39.453  10.821   8.835  0.00  0.00     0.205 C 
HETATM   97  C   UNK N   1      38.777  10.650   7.467  0.00  0.00     0.183 C 
HETATM   98  C   UNK N   1      39.219  11.795   6.542  0.00  0.00     0.180 C 
HETATM   99  C   UNK N   1      38.929  13.154   7.231  0.00  0.00     0.179 C 
HETATM  100  O   UNK N   1      39.546  13.241   8.502  0.00  0.00    -0.348 OA
BRANCH  96 101
HETATM  101  O   UNK N   1      40.842  10.708   8.730  0.00  0.00    -0.388 OA
HETATM  102  H   UNK N   1      41.752  10.890   9.009  0.00  0.00     0.210 HD
ENDBRANCH  96 101
BRANCH  97 103
HETATM  103  O   UNK N   1      39.091   9.407   6.915  0.00  0.00    -0.390 OA
HETATM  104  H   UNK N   1      38.471   8.946   6.327  0.00  0.00     0.210 HD
ENDBRANCH  97 103
BRANCH  98 105
HETATM  105  O   UNK N   1      40.583  11.671   6.261  0.00  0.00    -0.390 OA
HETATM  106  H   UNK N   1      41.276  11.595   5.587  0.00  0.00     0.210 HD
ENDBRANCH  98 105
BRANCH  99 107
HETATM  107  C   UNK N   1      39.430  14.330   6.401  0.00  0.00     0.198 C 
BRANCH 107 108
HETATM  108  O   UNK N   1      40.795  14.542   6.621  0.00  0.00    -0.398 OA
HETATM  109  H   UNK N   1      41.593  14.815   7.102  0.00  0.00     0.209 HD
ENDBRANCH 107 108
ENDBRANCH  99 107
ENDBRANCH  94  95
ENDBRANCH  89  94
ENDBRANCH  83  85
BRANCH  83 110
HETATM  110  O   UNK N   1      37.518  13.642  14.995  0.00  0.00    -0.346 OA
HETATM  111  H   UNK N   1      38.258  14.117  15.316  0.00  0.00     0.219 HD
ENDBRANCH  83 110
ENDBRANCH  81  82
ENDBRANCH  80  81
ENDBRANCH  79  80
ENDBRANCH  76  79
ENDBRANCH  72  73
ENDBRANCH  71  72
ENDBRANCH  70  71
ENDBRANCH  68  70
ENDBRANCH  63  68
ENDBRANCH  60  62
ENDBRANCH  59  60
ENDBRANCH  58  59
ENDBRANCH  56  58
BRANCH  55 112
HETATM  112  O   UNK N   1      34.331  14.615   7.414  0.00  0.00    -0.327 OA
HETATM  113  H   UNK N   1      34.232  14.897   8.302  0.00  0.00     0.221 HD
ENDBRANCH  55 112
ENDBRANCH  54  55
ENDBRANCH  53  54
ENDBRANCH  52  53
BRANCH  52 114
HETATM  114  N   UNK N   1      33.790  14.107   2.120  0.00  0.00    -0.422 N 
HETATM  115  H   UNK N   1      34.590  14.210   1.495  0.00  0.00     0.150 HD
HETATM  116  H   UNK N   1      33.360  13.182   2.145  0.00  0.00     0.150 HD
ENDBRANCH  52 114
ENDBRANCH  51  52
ENDBRANCH  50  51
ENDBRANCH  46  50
ENDBRANCH  44  45
ENDBRANCH  43  44
ENDBRANCH  41  43
ENDBRANCH  36  41
ENDBRANCH  33  35
ENDBRANCH  32  33
ENDBRANCH  31  32
ENDBRANCH  30  31
ENDBRANCH  27  30
ENDBRANCH  23  24
ENDBRANCH  22  23
ENDBRANCH  21  22
ENDBRANCH  19  21
BRANCH  18 117
HETATM  117  O   UNK N   1      25.248  20.323   5.061  0.00  0.00    -0.346 OA
HETATM  118  H   UNK N   1      24.766  21.127   5.080  0.00  0.00     0.219 HD
ENDBRANCH  18 117
ENDBRANCH  14  18
BRANCH  16 119
HETATM  119  N   UNK N   1      26.937  14.995   3.113  0.00  0.00    -0.116 N 
HETATM  120  O   UNK N   1      27.703  14.158   3.462  0.00  0.00    -0.532 OA
HETATM  121  O   UNK N   1      25.811  14.680   2.889  0.00  0.00    -0.532 OA
ENDBRANCH  16 119
ENDBRANCH  11  12
ENDBRANCH   5  11
BRANCH   2 122
HETATM  122  O   UNK N   1      31.316  16.545   9.339  0.00  0.00    -0.390 OA
HETATM  123  H   UNK N   1      31.442  15.636   9.652  0.00  0.00     0.210 HD
ENDBRANCH   2 122
BRANCH   1 124
HETATM  124  C   UNK N   1      28.929  18.310   9.431  0.00  0.00     0.198 C 
BRANCH 124 125
HETATM  125  O   UNK N   1      29.722  18.681  10.518  0.00  0.00    -0.398 OA
HETATM  126  H   UNK N   1      30.216  18.606  11.350  0.00  0.00     0.209 HD
ENDBRANCH 124 125
ENDBRANCH   1 124
TORSDOF 54
ENDMDL
MODEL 3
REMARK VINA RESULT:      -7.2      3.878      7.956
REMARK WARNING: 32 MAX_TORS EXCEEDED!!!
REMARK  54 active torsions:
REMARK  status: ('A' for Active; 'I' for Inactive)
REMARK    1  A    between atoms: C_5  and  C_1 
REMARK    2  A    between atoms: C_13  and  C_1 
REMARK    3  A    between atoms: C_6  and  C_2 
REMARK    4  A    between atoms: C_14  and  C_2 
REMARK    5  A    between atoms: C_7  and  C_3 
REMARK    6  A    between atoms: C_15  and  C_3 
REMARK    7  A    between atoms: C_8  and  C_4 
REMARK    8  A    between atoms: C_16  and  C_4 
REMARK    9  A    between atoms: N_65  and  C_5 
REMARK   10  A    between atoms: N_66  and  C_6 
REMARK   11  A    between atoms: N_69  and  C_7 
REMARK   12  A    between atoms: N_71  and  C_8 
REMARK   13  A    between atoms: C_11  and  C_9 
REMARK   14  A    between atoms: N_67  and  C_9 
REMARK   15  A    between atoms: C_12  and  C_10 
REMARK   16  A    between atoms: N_68  and  C_10 
REMARK   17  A    between atoms: N_73  and  C_11 
REMARK   18  A    between atoms: N_75  and  C_12 
REMARK   19  A    between atoms: N_77  and  C_13 
REMARK   20  A    between atoms: N_78  and  C_14 
REMARK   21  A    between atoms: N_79  and  C_15 
REMARK   22  A    between atoms: N_80  and  C_16 
REMARK   23  A    between atoms: C_42  and  C_31 
REMARK   24  A    between atoms: O_83  and  C_31 
REMARK   25  A    between atoms: C_43  and  C_32 
REMARK   26  A    between atoms: O_84  and  C_32 
REMARK   27  A    between atoms: C_37  and  C_33 
REMARK   28  A    between atoms: O_103  and  C_33 
REMARK   29  A    between atoms: C_37  and  C_34 
REMARK   30  A    between atoms: O_104  and  C_34 
REMARK   31  A    between atoms: C_58  and  C_35 
REMARK   32  A    between atoms: C_59  and  C_36 
REMARK   33  A    between atoms: N_64  and  C_37 
REMARK   34  A    between atoms: N_81  and  C_38 
REMARK   35  A    between atoms: N_82  and  C_39 
REMARK   36  A    between atoms: O_105  and  C_40 
REMARK   37  A    between atoms: O_106  and  C_41 
REMARK   38  A    between atoms: N_65  and  C_44 
REMARK   39  A    between atoms: N_66  and  C_45 
REMARK   40  A    between atoms: N_67  and  C_46 
REMARK   41  A    between atoms: N_68  and  C_47 
REMARK   42  A    between atoms: C_48  and  O_85 
REMARK   43  A    between atoms: O_86  and  C_49 
REMARK   44  A    between atoms: C_54  and  O_91 
REMARK   45  A    between atoms: O_92  and  C_55 
REMARK   46  A    between atoms: O_94  and  C_57 
REMARK   47  A    between atoms: O_95  and  C_58 
REMARK   48  A    between atoms: O_96  and  C_59 
REMARK   49  A    between atoms: C_60  and  O_105 
REMARK   50  A    between atoms: O_106  and  C_61 
REMARK   51  A    between atoms: O_97  and  C_62 
REMARK   52  A    between atoms: O_103  and  C_62 
REMARK   53  A    between atoms: O_98  and  C_63 
REMARK   54  A    between atoms: O_104  and  C_63 
ROOT
HETATM    1  C   UNK N   1      33.627  14.530   5.476  0.00  0.00     0.179 C 
HETATM    2  C   UNK N   1      34.635  15.003   6.546  0.00  0.00     0.180 C 
HETATM    3  C   UNK N   1      33.885  15.899   7.549  0.00  0.00     0.183 C 
HETATM    4  C   UNK N   1      33.177  17.033   6.795  0.00  0.00     0.205 C 
HETATM    5  C   UNK N   1      32.296  16.420   5.653  0.00  0.00     0.298 C 
HETATM    6  O   UNK N   1      34.118  17.902   6.237  0.00  0.00    -0.388 OA
HETATM    7  O   UNK N   1      33.077  15.637   4.782  0.00  0.00    -0.348 OA
HETATM    8  H   UNK N   1      34.673  18.542   5.764  0.00  0.00     0.210 HD
ENDROOT
BRANCH   3   9
HETATM    9  O   UNK N   1      34.766  16.414   8.504  0.00  0.00    -0.390 OA
HETATM   10  H   UNK N   1      35.695  16.640   8.341  0.00  0.00     0.210 HD
ENDBRANCH   3   9
BRANCH   5  11
HETATM   11  O   UNK N   1      31.201  15.676   6.100  0.00  0.00    -0.318 OA
BRANCH  11  12
HETATM   12  C   UNK N   1      30.107  16.353   6.444  0.00  0.00     0.075 A 
HETATM   13  C   UNK N   1      29.481  17.122   5.477  0.00  0.00     0.052 A 
HETATM   14  C   UNK N   1      28.670  18.182   5.851  0.00  0.00     0.019 A 
HETATM   15  C   UNK N   1      28.560  18.514   7.216  0.00  0.00     0.052 A 
HETATM   16  C   UNK N   1      29.155  17.689   8.188  0.00  0.00     0.106 A 
HETATM   17  C   UNK N   1      29.894  16.592   7.785  0.00  0.00     0.073 A 
BRANCH  14  18
HETATM   18  C   UNK N   1      28.157  19.059   4.799  0.00  0.00     0.146 C 
HETATM   19  N   UNK N   1      26.982  18.867   4.332  0.00  0.00    -0.370 N 
ATOM     20  HN  UNK N   1      26.467  18.022   4.586  1.00  0.00     0.161 HD
BRANCH  19  21
HETATM   21  C   UNK N   1      26.382  19.826   3.457  0.00  0.00     0.123 C 
BRANCH  21  22
HETATM   22  C   UNK N   1      25.015  20.137   4.051  0.00  0.00     0.050 C 
BRANCH  22  23
HETATM   23  C   UNK N   1      24.043  20.827   3.090  0.00  0.00     0.274 C 
BRANCH  23  24
HETATM   24  N   UNK N   1      22.875  20.022   2.735  0.00  0.00     0.091 N 
HETATM   25  C   UNK N   1      22.698  18.994   3.779  0.00  0.00     0.302 C 
HETATM   26  C   UNK N   1      21.246  18.706   4.182  0.00  0.00     0.302 C 
HETATM   27  N   UNK N   1      20.312  18.994   3.105  0.00  0.00     0.091 N 
HETATM   28  C   UNK N   1      20.379  20.437   2.875  0.00  0.00     0.302 C 
HETATM   29  C   UNK N   1      21.742  20.885   2.342  0.00  0.00     0.302 C 
BRANCH  27  30
HETATM   30  C   UNK N   1      20.670  18.176   1.935  0.00  0.00     0.274 C 
BRANCH  30  31
HETATM   31  C   UNK N   1      19.637  17.113   1.642  0.00  0.00     0.050 C 
BRANCH  31  32
HETATM   32  C   UNK N   1      19.955  15.792   2.357  0.00  0.00     0.121 C 
BRANCH  32  33
HETATM   33  N   UNK N   1      19.218  15.747   3.600  0.00  0.00    -0.385 N 
HETATM   34  H   UNK N   1      18.520  16.414   3.793  0.00  0.00     0.159 HD
BRANCH  33  35
HETATM   35  C   UNK N   1      19.518  14.726   4.533  0.00  0.00     0.114 A 
HETATM   36  C   UNK N   1      20.529  14.471   5.397  0.00  0.00     0.114 A 
HETATM   37  C   UNK N   1      20.012  13.127   5.658  0.00  0.00     0.252 A 
HETATM   38  C   UNK N   1      18.932  13.403   4.742  0.00  0.00     0.252 A 
HETATM   39  O   UNK N   1      20.408  12.148   6.265  0.00  0.00    -0.281 OA
HETATM   40  O   UNK N   1      18.018  12.769   4.241  0.00  0.00    -0.281 OA
BRANCH  36  41
HETATM   41  N   UNK N   1      21.738  15.098   5.819  0.00  0.00    -0.383 N 
HETATM   42  H   UNK N   1      22.580  14.747   5.449  0.00  0.00     0.159 HD
BRANCH  41  43
HETATM   43  C   UNK N   1      21.832  16.202   6.739  0.00  0.00     0.139 C 
BRANCH  43  44
HETATM   44  C   UNK N   1      20.982  15.986   7.955  0.00  0.00     0.143 C 
BRANCH  44  45
HETATM   45  N   UNK N   1      21.351  14.817   8.705  0.00  0.00    -0.349 N 
HETATM   46  C   UNK N   1      20.467  14.130   9.342  0.00  0.00     0.258 C 
ATOM     47  HN  UNK N   1      22.329  14.526   8.733  1.00  0.00     0.163 HD
BRANCH  46  48
HETATM   48  O   UNK N   1      19.195  14.548   9.415  0.00  0.00    -0.327 OA
HETATM   49  H   UNK N   1      18.930  15.153  10.079  0.00  0.00     0.221 HD
ENDBRANCH  46  48
BRANCH  46  50
HETATM   50  O   UNK N   1      20.746  12.852   9.650  0.00  0.00    -0.315 OA
BRANCH  50  51
HETATM   51  C   UNK N   1      21.231  12.594  10.924  0.00  0.00     0.206 C 
BRANCH  51  52
HETATM   52  C   UNK N   1      22.576  11.815  10.850  0.00  0.00     0.123 C 
BRANCH  52  53
HETATM   53  C   UNK N   1      23.727  12.658  10.266  0.00  0.00     0.206 C 
BRANCH  53  54
HETATM   54  O   UNK N   1      23.755  12.596   8.882  0.00  0.00    -0.315 OA
BRANCH  54  55
HETATM   55  C   UNK N   1      24.575  13.252   8.014  0.00  0.00     0.258 C 
HETATM   56  N   UNK N   1      24.556  13.065   6.732  0.00  0.00    -0.349 N 
ATOM     57  HN  UNK N   1      25.196  13.624   6.168  1.00  0.00     0.163 HD
BRANCH  56  58
HETATM   58  C   UNK N   1      23.704  12.126   6.035  0.00  0.00     0.143 C 
BRANCH  58  59
HETATM   59  C   UNK N   1      24.335  10.734   6.011  0.00  0.00     0.139 C 
BRANCH  59  60
HETATM   60  N   UNK N   1      23.686   9.911   6.989  0.00  0.00    -0.383 N 
HETATM   61  H   UNK N   1      23.386  10.306   7.840  0.00  0.00     0.159 HD
BRANCH  60  62
HETATM   62  C   UNK N   1      23.475   8.539   6.740  0.00  0.00     0.114 A 
HETATM   63  C   UNK N   1      22.454   7.909   6.150  0.00  0.00     0.114 A 
HETATM   64  C   UNK N   1      23.064   6.597   6.358  0.00  0.00     0.252 A 
HETATM   65  C   UNK N   1      24.177   7.276   7.003  0.00  0.00     0.252 A 
HETATM   66  O   UNK N   1      22.745   5.440   6.138  0.00  0.00    -0.281 OA
HETATM   67  O   UNK N   1      25.186   6.931   7.593  0.00  0.00    -0.281 OA
BRANCH  63  68
HETATM   68  N   UNK N   1      21.243   8.359   5.571  0.00  0.00    -0.385 N 
HETATM   69  H   UNK N   1      20.464   8.510   6.154  0.00  0.00     0.159 HD
BRANCH  68  70
HETATM   70  C   UNK N   1      21.113   8.605   4.154  0.00  0.00     0.121 C 
BRANCH  70  71
HETATM   71  C   UNK N   1      21.482  10.044   3.778  0.00  0.00     0.050 C 
BRANCH  71  72
HETATM   72  C   UNK N   1      21.322  10.400   2.292  0.00  0.00     0.274 C 
BRANCH  72  73
HETATM   73  N   UNK N   1      22.399  11.265   1.802  0.00  0.00     0.091 N 
HETATM   74  C   UNK N   1      22.825  10.842   0.468  0.00  0.00     0.302 C 
HETATM   75  C   UNK N   1      24.045  11.661   0.044  0.00  0.00     0.302 C 
HETATM   76  N   UNK N   1      23.933  13.085   0.392  0.00  0.00     0.091 N 
HETATM   77  C   UNK N   1      22.552  13.505   0.674  0.00  0.00     0.302 C 
HETATM   78  C   UNK N   1      21.870  12.632   1.749  0.00  0.00     0.302 C 
BRANCH  76  79
HETATM   79  C   UNK N   1      24.776  13.355   1.549  0.00  0.00     0.274 C 
BRANCH  79  80
HETATM   80  C   UNK N   1      25.124  14.829   1.612  0.00  0.00     0.050 C 
BRANCH  80  81
HETATM   81  C   UNK N   1      26.418  15.059   2.384  0.00  0.00     0.123 C 
BRANCH  81  82
HETATM   82  N   UNK N   1      26.204  15.384   3.782  0.00  0.00    -0.370 N 
HETATM   83  C   UNK N   1      26.804  14.791   4.758  0.00  0.00     0.146 C 
ATOM     84  HN  UNK N   1      25.541  16.126   4.006  1.00  0.00     0.161 HD
BRANCH  83  85
HETATM   85  C   UNK N   1      27.741  13.689   4.529  0.00  0.00     0.019 A 
HETATM   86  C   UNK N   1      28.985  13.886   3.899  0.00  0.00     0.052 A 
HETATM   87  C   UNK N   1      29.829  12.788   3.648  0.00  0.00     0.106 A 
HETATM   88  C   UNK N   1      29.406  11.516   4.026  0.00  0.00     0.073 A 
HETATM   89  C   UNK N   1      28.146  11.334   4.592  0.00  0.00     0.075 A 
HETATM   90  C   UNK N   1      27.320  12.413   4.838  0.00  0.00     0.052 A 
BRANCH  87  91
HETATM   91  N   UNK N   1      31.030  12.931   2.896  0.00  0.00    -0.116 N 
HETATM   92  O   UNK N   1      31.333  13.997   2.449  0.00  0.00    -0.532 OA
HETATM   93  O   UNK N   1      31.803  12.025   2.820  0.00  0.00    -0.532 OA
ENDBRANCH  87  91
BRANCH  89  94
HETATM   94  O   UNK N   1      27.603  10.117   4.609  0.00  0.00    -0.318 OA
BRANCH  94  95
HETATM   95  C   UNK N   1      27.917   9.279   3.546  0.00  0.00     0.298 C 
HETATM   96  C   UNK N   1      28.607   7.972   4.018  0.00  0.00     0.205 C 
HETATM   97  C   UNK N   1      27.601   7.206   4.888  0.00  0.00     0.183 C 
HETATM   98  C   UNK N   1      26.317   6.966   4.078  0.00  0.00     0.180 C 
HETATM   99  C   UNK N   1      25.790   8.322   3.537  0.00  0.00     0.179 C 
HETATM  100  O   UNK N   1      26.771   9.000   2.775  0.00  0.00    -0.348 OA
BRANCH  96 101
HETATM  101  O   UNK N   1      28.995   7.218   2.909  0.00  0.00    -0.388 OA
HETATM  102  H   UNK N   1      29.365   7.105   2.020  0.00  0.00     0.210 HD
ENDBRANCH  96 101
BRANCH  97 103
HETATM  103  O   UNK N   1      28.150   6.000   5.329  0.00  0.00    -0.390 OA
HETATM  104  H   UNK N   1      29.098   5.814   5.235  0.00  0.00     0.210 HD
ENDBRANCH  97 103
BRANCH  98 105
HETATM  105  O   UNK N   1      26.586   6.090   3.022  0.00  0.00    -0.390 OA
HETATM  106  H   UNK N   1      27.061   5.932   2.191  0.00  0.00     0.210 HD
ENDBRANCH  98 105
BRANCH  99 107
HETATM  107  C   UNK N   1      24.566   8.140   2.647  0.00  0.00     0.198 C 
BRANCH 107 108
HETATM  108  O   UNK N   1      23.915   6.938   2.945  0.00  0.00    -0.398 OA
HETATM  109  H   UNK N   1      23.208   6.361   3.276  0.00  0.00     0.209 HD
ENDBRANCH 107 108
ENDBRANCH  99 107
ENDBRANCH  94  95
ENDBRANCH  89  94
ENDBRANCH  83  85
BRANCH  83 110
HETATM  110  O   UNK N   1      26.645  15.259   6.013  0.00  0.00    -0.346 OA
HETATM  111  H   UNK N   1      26.207  15.538   6.792  0.00  0.00     0.219 HD
ENDBRANCH  83 110
ENDBRANCH  81  82
ENDBRANCH  80  81
ENDBRANCH  79  80
ENDBRANCH  76  79
ENDBRANCH  72  73
ENDBRANCH  71  72
ENDBRANCH  70  71
ENDBRANCH  68  70
ENDBRANCH  63  68
ENDBRANCH  60  62
ENDBRANCH  59  60
ENDBRANCH  58  59
ENDBRANCH  56  58
BRANCH  55 112
HETATM  112  O   UNK N   1      25.447  14.143   8.522  0.00  0.00    -0.327 OA
HETATM  113  H   UNK N   1      26.197  14.643   8.777  0.00  0.00     0.221 HD
ENDBRANCH  55 112
ENDBRANCH  54  55
ENDBRANCH  53  54
ENDBRANCH  52  53
BRANCH  52 114
HETATM  114  N   UNK N   1      22.935  11.291  12.154  0.00  0.00    -0.422 N 
HETATM  115  H   UNK N   1      22.714  10.376  12.547  0.00  0.00     0.150 HD
HETATM  116  H   UNK N   1      23.475  11.915  12.753  0.00  0.00     0.150 HD
ENDBRANCH  52 114
ENDBRANCH  51  52
ENDBRANCH  50  51
ENDBRANCH  46  50
ENDBRANCH  44  45
ENDBRANCH  43  44
ENDBRANCH  41  43
ENDBRANCH  36  41
ENDBRANCH  33  35
ENDBRANCH  32  33
ENDBRANCH  31  32
ENDBRANCH  30  31
ENDBRANCH  27  30
ENDBRANCH  23  24
ENDBRANCH  22  23
ENDBRANCH  21  22
ENDBRANCH  19  21
BRANCH  18 117
HETATM  117  O   UNK N   1      28.878  20.137   4.413  0.00  0.00    -0.346 OA
HETATM  118  H   UNK N   1      29.230  20.729   5.049  0.00  0.00     0.219 HD
ENDBRANCH  18 117
ENDBRANCH  14  18
BRANCH  16 119
HETATM  119  N   UNK N   1      29.262  18.079   9.542  0.00  0.00    -0.116 N 
HETATM  120  O   UNK N   1      28.936  17.329  10.402  0.00  0.00    -0.532 OA
HETATM  121  O   UNK N   1      29.993  18.978   9.815  0.00  0.00    -0.532 OA
ENDBRANCH  16 119
ENDBRANCH  11  12
ENDBRANCH   5  11
BRANCH   2 122
HETATM  122  O   UNK N   1      35.680  15.715   5.947  0.00  0.00    -0.390 OA
HETATM  123  H   UNK N   1      36.545  15.998   5.612  0.00  0.00     0.210 HD
ENDBRANCH   2 122
BRANCH   1 124
HETATM  124  C   UNK N   1      34.243  13.588   4.453  0.00  0.00     0.198 C 
BRANCH 124 125
HETATM  125  O   UNK N   1      34.201  14.146   3.174  0.00  0.00    -0.398 OA
HETATM  126  H   UNK N   1      34.298  14.801   2.464  0.00  0.00     0.209 HD
ENDBRANCH 124 125
ENDBRANCH   1 124
TORSDOF 54
ENDMDL
MODEL 4
REMARK VINA RESULT:      -7.1      2.981      6.718
REMARK WARNING: 32 MAX_TORS EXCEEDED!!!
REMARK  54 active torsions:
REMARK  status: ('A' for Active; 'I' for Inactive)
REMARK    1  A    between atoms: C_5  and  C_1 
REMARK    2  A    between atoms: C_13  and  C_1 
REMARK    3  A    between atoms: C_6  and  C_2 
REMARK    4  A    between atoms: C_14  and  C_2 
REMARK    5  A    between atoms: C_7  and  C_3 
REMARK    6  A    between atoms: C_15  and  C_3 
REMARK    7  A    between atoms: C_8  and  C_4 
REMARK    8  A    between atoms: C_16  and  C_4 
REMARK    9  A    between atoms: N_65  and  C_5 
REMARK   10  A    between atoms: N_66  and  C_6 
REMARK   11  A    between atoms: N_69  and  C_7 
REMARK   12  A    between atoms: N_71  and  C_8 
REMARK   13  A    between atoms: C_11  and  C_9 
REMARK   14  A    between atoms: N_67  and  C_9 
REMARK   15  A    between atoms: C_12  and  C_10 
REMARK   16  A    between atoms: N_68  and  C_10 
REMARK   17  A    between atoms: N_73  and  C_11 
REMARK   18  A    between atoms: N_75  and  C_12 
REMARK   19  A    between atoms: N_77  and  C_13 
REMARK   20  A    between atoms: N_78  and  C_14 
REMARK   21  A    between atoms: N_79  and  C_15 
REMARK   22  A    between atoms: N_80  and  C_16 
REMARK   23  A    between atoms: C_42  and  C_31 
REMARK   24  A    between atoms: O_83  and  C_31 
REMARK   25  A    between atoms: C_43  and  C_32 
REMARK   26  A    between atoms: O_84  and  C_32 
REMARK   27  A    between atoms: C_37  and  C_33 
REMARK   28  A    between atoms: O_103  and  C_33 
REMARK   29  A    between atoms: C_37  and  C_34 
REMARK   30  A    between atoms: O_104  and  C_34 
REMARK   31  A    between atoms: C_58  and  C_35 
REMARK   32  A    between atoms: C_59  and  C_36 
REMARK   33  A    between atoms: N_64  and  C_37 
REMARK   34  A    between atoms: N_81  and  C_38 
REMARK   35  A    between atoms: N_82  and  C_39 
REMARK   36  A    between atoms: O_105  and  C_40 
REMARK   37  A    between atoms: O_106  and  C_41 
REMARK   38  A    between atoms: N_65  and  C_44 
REMARK   39  A    between atoms: N_66  and  C_45 
REMARK   40  A    between atoms: N_67  and  C_46 
REMARK   41  A    between atoms: N_68  and  C_47 
REMARK   42  A    between atoms: C_48  and  O_85 
REMARK   43  A    between atoms: O_86  and  C_49 
REMARK   44  A    between atoms: C_54  and  O_91 
REMARK   45  A    between atoms: O_92  and  C_55 
REMARK   46  A    between atoms: O_94  and  C_57 
REMARK   47  A    between atoms: O_95  and  C_58 
REMARK   48  A    between atoms: O_96  and  C_59 
REMARK   49  A    between atoms: C_60  and  O_105 
REMARK   50  A    between atoms: O_106  and  C_61 
REMARK   51  A    between atoms: O_97  and  C_62 
REMARK   52  A    between atoms: O_103  and  C_62 
REMARK   53  A    between atoms: O_98  and  C_63 
REMARK   54  A    between atoms: O_104  and  C_63 
ROOT
HETATM    1  C   UNK N   1      32.862  16.084   9.065  0.00  0.00     0.179 C 
HETATM    2  C   UNK N   1      34.144  16.946   9.068  0.00  0.00     0.180 C 
HETATM    3  C   UNK N   1      33.822  18.289   8.389  0.00  0.00     0.183 C 
HETATM    4  C   UNK N   1      33.230  18.032   6.996  0.00  0.00     0.205 C 
HETATM    5  C   UNK N   1      32.025  17.038   7.124  0.00  0.00     0.298 C 
HETATM    6  O   UNK N   1      34.199  17.478   6.156  0.00  0.00    -0.388 OA
HETATM    7  O   UNK N   1      32.429  15.837   7.738  0.00  0.00    -0.348 OA
HETATM    8  H   UNK N   1      34.768  17.046   5.500  0.00  0.00     0.210 HD
ENDROOT
BRANCH   3   9
HETATM    9  O   UNK N   1      34.967  19.085   8.301  0.00  0.00    -0.390 OA
HETATM   10  H   UNK N   1      35.159  19.850   8.866  0.00  0.00     0.210 HD
ENDBRANCH   3   9
BRANCH   5  11
HETATM   11  O   UNK N   1      30.912  17.557   7.792  0.00  0.00    -0.318 OA
BRANCH  11  12
HETATM   12  C   UNK N   1      29.758  17.566   7.129  0.00  0.00     0.075 A 
HETATM   13  C   UNK N   1      29.662  16.817   5.968  0.00  0.00     0.052 A 
HETATM   14  C   UNK N   1      28.714  17.140   5.010  0.00  0.00     0.019 A 
HETATM   15  C   UNK N   1      27.910  18.283   5.196  0.00  0.00     0.052 A 
HETATM   16  C   UNK N   1      27.980  18.998   6.407  0.00  0.00     0.106 A 
HETATM   17  C   UNK N   1      28.884  18.603   7.376  0.00  0.00     0.073 A 
BRANCH  14  18
HETATM   18  C   UNK N   1      28.751  16.423   3.736  0.00  0.00     0.146 C 
HETATM   19  N   UNK N   1      27.888  15.510   3.497  0.00  0.00    -0.370 N 
ATOM     20  HN  UNK N   1      27.273  15.186   4.245  1.00  0.00     0.161 HD
BRANCH  19  21
HETATM   21  C   UNK N   1      27.776  14.941   2.190  0.00  0.00     0.123 C 
BRANCH  21  22
HETATM   22  C   UNK N   1      26.286  14.752   1.943  0.00  0.00     0.050 C 
BRANCH  22  23
HETATM   23  C   UNK N   1      25.565  13.902   2.994  0.00  0.00     0.274 C 
BRANCH  23  24
HETATM   24  N   UNK N   1      24.618  14.646   3.822  0.00  0.00     0.091 N 
HETATM   25  C   UNK N   1      25.054  14.528   5.228  0.00  0.00     0.302 C 
HETATM   26  C   UNK N   1      24.908  15.800   6.072  0.00  0.00     0.302 C 
HETATM   27  N   UNK N   1      23.846  16.664   5.581  0.00  0.00     0.091 N 
HETATM   28  C   UNK N   1      24.265  17.117   4.254  0.00  0.00     0.302 C 
HETATM   29  C   UNK N   1      24.340  15.975   3.239  0.00  0.00     0.302 C 
BRANCH  27  30
HETATM   30  C   UNK N   1      22.579  15.916   5.595  0.00  0.00     0.274 C 
BRANCH  30  31
HETATM   31  C   UNK N   1      21.463  16.693   6.253  0.00  0.00     0.050 C 
BRANCH  31  32
HETATM   32  C   UNK N   1      21.140  16.157   7.655  0.00  0.00     0.121 C 
BRANCH  32  33
HETATM   33  N   UNK N   1      21.779  14.871   7.820  0.00  0.00    -0.385 N 
HETATM   34  H   UNK N   1      22.333  14.491   7.101  0.00  0.00     0.159 HD
BRANCH  33  35
HETATM   35  C   UNK N   1      21.592  14.168   9.034  0.00  0.00     0.114 A 
HETATM   36  C   UNK N   1      22.335  13.323   9.787  0.00  0.00     0.114 A 
HETATM   37  C   UNK N   1      21.181  13.003  10.627  0.00  0.00     0.252 A 
HETATM   38  C   UNK N   1      20.392  13.909   9.827  0.00  0.00     0.252 A 
HETATM   39  O   UNK N   1      20.950  12.203  11.516  0.00  0.00    -0.281 OA
HETATM   40  O   UNK N   1      19.214  14.214   9.746  0.00  0.00    -0.281 OA
BRANCH  36  41
HETATM   41  N   UNK N   1      23.647  12.765   9.761  0.00  0.00    -0.383 N 
HETATM   42  H   UNK N   1      24.335  13.209  10.307  0.00  0.00     0.159 HD
BRANCH  41  43
HETATM   43  C   UNK N   1      24.050  11.608   9.004  0.00  0.00     0.139 C 
BRANCH  43  44
HETATM   44  C   UNK N   1      24.128  11.904   7.536  0.00  0.00     0.143 C 
BRANCH  44  45
HETATM   45  N   UNK N   1      23.626  10.837   6.714  0.00  0.00    -0.349 N 
HETATM   46  C   UNK N   1      24.303  10.396   5.712  0.00  0.00     0.258 C 
ATOM     47  HN  UNK N   1      22.719  10.422   6.929  1.00  0.00     0.163 HD
BRANCH  46  48
HETATM   48  O   UNK N   1      25.445  10.993   5.338  0.00  0.00    -0.327 OA
HETATM   49  H   UNK N   1      26.097  10.519   4.862  0.00  0.00     0.221 HD
ENDBRANCH  46  48
BRANCH  46  50
HETATM   50  O   UNK N   1      24.039   9.162   5.250  0.00  0.00    -0.315 OA
BRANCH  50  51
HETATM   51  C   UNK N   1      23.143   8.388   5.973  0.00  0.00     0.206 C 
BRANCH  51  52
HETATM   52  C   UNK N   1      21.897   8.042   5.108  0.00  0.00     0.123 C 
BRANCH  52  53
HETATM   53  C   UNK N   1      20.687   8.948   5.406  0.00  0.00     0.206 C 
BRANCH  53  54
HETATM   54  O   UNK N   1      20.957  10.276   5.112  0.00  0.00    -0.315 OA
BRANCH  54  55
HETATM   55  C   UNK N   1      20.314  11.395   5.547  0.00  0.00     0.258 C 
HETATM   56  N   UNK N   1      19.350  11.965   4.897  0.00  0.00    -0.349 N 
ATOM     57  HN  UNK N   1      18.919  12.786   5.322  1.00  0.00     0.163 HD
BRANCH  56  58
HETATM   58  C   UNK N   1      18.834  11.533   3.616  0.00  0.00     0.143 C 
BRANCH  58  59
HETATM   59  C   UNK N   1      18.911  12.664   2.590  0.00  0.00     0.139 C 
BRANCH  59  60
HETATM   60  N   UNK N   1      20.034  13.500   2.900  0.00  0.00    -0.383 N 
HETATM   61  H   UNK N   1      20.071  13.969   3.765  0.00  0.00     0.159 HD
BRANCH  60  62
HETATM   62  C   UNK N   1      21.086  13.653   1.973  0.00  0.00     0.114 A 
HETATM   63  C   UNK N   1      22.149  12.879   1.728  0.00  0.00     0.114 A 
HETATM   64  C   UNK N   1      22.650  13.789   0.699  0.00  0.00     0.252 A 
HETATM   65  C   UNK N   1      21.497  14.635   0.962  0.00  0.00     0.252 A 
HETATM   66  O   UNK N   1      23.636  13.839  -0.018  0.00  0.00    -0.281 OA
HETATM   67  O   UNK N   1      21.111  15.728   0.582  0.00  0.00    -0.281 OA
BRANCH  63  68
HETATM   68  N   UNK N   1      22.608  11.660   2.283  0.00  0.00    -0.385 N 
HETATM   69  H   UNK N   1      22.426  11.470   3.231  0.00  0.00     0.159 HD
BRANCH  68  70
HETATM   70  C   UNK N   1      23.332  10.685   1.502  0.00  0.00     0.121 C 
BRANCH  70  71
HETATM   71  C   UNK N   1      24.780  10.522   1.976  0.00  0.00     0.050 C 
BRANCH  71  72
HETATM   72  C   UNK N   1      25.858  10.907   0.951  0.00  0.00     0.274 C 
BRANCH  72  73
HETATM   73  N   UNK N   1      27.186  11.044   1.555  0.00  0.00     0.091 N 
HETATM   74  C   UNK N   1      27.343  10.097   2.659  0.00  0.00     0.302 C 
HETATM   75  C   UNK N   1      28.673  10.362   3.366  0.00  0.00     0.302 C 
HETATM   76  N   UNK N   1      29.776  10.637   2.435  0.00  0.00     0.091 N 
HETATM   77  C   UNK N   1      29.499  10.195   1.060  0.00  0.00     0.302 C 
HETATM   78  C   UNK N   1      28.173  10.762   0.507  0.00  0.00     0.302 C 
BRANCH  76  79
HETATM   79  C   UNK N   1      30.057  12.067   2.445  0.00  0.00     0.274 C 
BRANCH  79  80
HETATM   80  C   UNK N   1      30.155  12.573   3.870  0.00  0.00     0.050 C 
BRANCH  80  81
HETATM   81  C   UNK N   1      31.537  13.148   4.159  0.00  0.00     0.123 C 
BRANCH  81  82
HETATM   82  N   UNK N   1      31.586  14.596   4.081  0.00  0.00    -0.370 N 
HETATM   83  C   UNK N   1      32.664  15.269   3.860  0.00  0.00     0.146 C 
ATOM     84  HN  UNK N   1      30.716  15.113   4.208  1.00  0.00     0.161 HD
BRANCH  83  85
HETATM   85  C   UNK N   1      33.963  14.610   3.705  0.00  0.00     0.019 A 
HETATM   86  C   UNK N   1      34.383  14.066   2.476  0.00  0.00     0.052 A 
HETATM   87  C   UNK N   1      35.615  13.392   2.388  0.00  0.00     0.106 A 
HETATM   88  C   UNK N   1      36.396  13.269   3.535  0.00  0.00     0.073 A 
HETATM   89  C   UNK N   1      35.936  13.759   4.755  0.00  0.00     0.075 A 
HETATM   90  C   UNK N   1      34.727  14.421   4.838  0.00  0.00     0.052 A 
BRANCH  87  91
HETATM   91  N   UNK N   1      36.010  12.716   1.198  0.00  0.00    -0.116 N 
HETATM   92  O   UNK N   1      35.239  12.604   0.291  0.00  0.00    -0.532 OA
HETATM   93  O   UNK N   1      37.144  12.378   1.047  0.00  0.00    -0.532 OA
ENDBRANCH  87  91
BRANCH  89  94
HETATM   94  O   UNK N   1      36.488  13.327   5.888  0.00  0.00    -0.318 OA
BRANCH  94  95
HETATM   95  C   UNK N   1      35.620  13.045   6.937  0.00  0.00     0.298 C 
HETATM   96  C   UNK N   1      35.500  11.520   7.198  0.00  0.00     0.205 C 
HETATM   97  C   UNK N   1      36.882  11.015   7.635  0.00  0.00     0.183 C 
HETATM   98  C   UNK N   1      37.344  11.817   8.863  0.00  0.00     0.180 C 
HETATM   99  C   UNK N   1      37.293  13.333   8.536  0.00  0.00     0.179 C 
HETATM  100  O   UNK N   1      36.006  13.734   8.104  0.00  0.00    -0.348 OA
BRANCH  96 101
HETATM  101  O   UNK N   1      34.539  11.287   8.185  0.00  0.00    -0.388 OA
HETATM  102  H   UNK N   1      33.671  11.405   8.599  0.00  0.00     0.210 HD
ENDBRANCH  96 101
BRANCH  97 103
HETATM  103  O   UNK N   1      36.840   9.648   7.914  0.00  0.00    -0.390 OA
HETATM  104  H   UNK N   1      37.643   9.159   8.158  0.00  0.00     0.210 HD
ENDBRANCH  97 103
BRANCH  98 105
HETATM  105  O   UNK N   1      36.517  11.524   9.952  0.00  0.00    -0.390 OA
HETATM  106  H   UNK N   1      36.338  11.642  10.898  0.00  0.00     0.210 HD
ENDBRANCH  98 105
BRANCH  99 107
HETATM  107  C   UNK N   1      37.653  14.187   9.746  0.00  0.00     0.198 C 
BRANCH 107 108
HETATM  108  O   UNK N   1      36.500  14.571  10.438  0.00  0.00    -0.398 OA
HETATM  109  H   UNK N   1      35.730  14.471  11.020  0.00  0.00     0.209 HD
ENDBRANCH 107 108
ENDBRANCH  99 107
ENDBRANCH  94  95
ENDBRANCH  89  94
ENDBRANCH  83  85
BRANCH  83 110
HETATM  110  O   UNK N   1      32.584  16.600   3.664  0.00  0.00    -0.346 OA
HETATM  111  H   UNK N   1      32.287  17.415   3.309  0.00  0.00     0.219 HD
ENDBRANCH  83 110
ENDBRANCH  81  82
ENDBRANCH  80  81
ENDBRANCH  79  80
ENDBRANCH  76  79
ENDBRANCH  72  73
ENDBRANCH  71  72
ENDBRANCH  70  71
ENDBRANCH  68  70
ENDBRANCH  63  68
ENDBRANCH  60  62
ENDBRANCH  59  60
ENDBRANCH  58  59
ENDBRANCH  56  58
BRANCH  55 112
HETATM  112  O   UNK N   1      20.705  11.930   6.719  0.00  0.00    -0.327 OA
HETATM  113  H   UNK N   1      21.065  12.450   7.411  0.00  0.00     0.221 HD
ENDBRANCH  55 112
ENDBRANCH  54  55
ENDBRANCH  53  54
ENDBRANCH  52  53
BRANCH  52 114
HETATM  114  N   UNK N   1      22.230   8.079   3.696  0.00  0.00    -0.422 N 
HETATM  115  H   UNK N   1      21.731   8.553   2.943  0.00  0.00     0.150 HD
HETATM  116  H   UNK N   1      23.069   7.568   3.422  0.00  0.00     0.150 HD
ENDBRANCH  52 114
ENDBRANCH  51  52
ENDBRANCH  50  51
ENDBRANCH  46  50
ENDBRANCH  44  45
ENDBRANCH  43  44
ENDBRANCH  41  43
ENDBRANCH  36  41
ENDBRANCH  33  35
ENDBRANCH  32  33
ENDBRANCH  31  32
ENDBRANCH  30  31
ENDBRANCH  27  30
ENDBRANCH  23  24
ENDBRANCH  22  23
ENDBRANCH  21  22
ENDBRANCH  19  21
BRANCH  18 117
HETATM  117  O   UNK N   1      29.622  16.810   2.774  0.00  0.00    -0.346 OA
HETATM  118  H   UNK N   1      30.537  16.887   2.961  0.00  0.00     0.219 HD
ENDBRANCH  18 117
ENDBRANCH  14  18
BRANCH  16 119
HETATM  119  N   UNK N   1      27.366  20.260   6.569  0.00  0.00    -0.116 N 
HETATM  120  O   UNK N   1      26.826  20.529   7.593  0.00  0.00    -0.532 OA
HETATM  121  O   UNK N   1      27.697  21.147   5.849  0.00  0.00    -0.532 OA
ENDBRANCH  16 119
ENDBRANCH  11  12
ENDBRANCH   5  11
BRANCH   2 122
HETATM  122  O   UNK N   1      35.172  16.289   8.381  0.00  0.00    -0.390 OA
HETATM  123  H   UNK N   1      35.967  16.084   7.866  0.00  0.00     0.210 HD
ENDBRANCH   2 122
BRANCH   1 124
HETATM  124  C   UNK N   1      33.043  14.745   9.762  0.00  0.00     0.198 C 
BRANCH 124 125
HETATM  125  O   UNK N   1      33.449  14.925  11.086  0.00  0.00    -0.398 OA
HETATM  126  H   UNK N   1      33.556  15.342  11.956  0.00  0.00     0.209 HD
ENDBRANCH 124 125
ENDBRANCH   1 124
TORSDOF 54
ENDMDL
MODEL 5
REMARK VINA RESULT:      -7.1      3.137     10.027
REMARK WARNING: 32 MAX_TORS EXCEEDED!!!
REMARK  54 active torsions:
REMARK  status: ('A' for Active; 'I' for Inactive)
REMARK    1  A    between atoms: C_5  and  C_1 
REMARK    2  A    between atoms: C_13  and  C_1 
REMARK    3  A    between atoms: C_6  and  C_2 
REMARK    4  A    between atoms: C_14  and  C_2 
REMARK    5  A    between atoms: C_7  and  C_3 
REMARK    6  A    between atoms: C_15  and  C_3 
REMARK    7  A    between atoms: C_8  and  C_4 
REMARK    8  A    between atoms: C_16  and  C_4 
REMARK    9  A    between atoms: N_65  and  C_5 
REMARK   10  A    between atoms: N_66  and  C_6 
REMARK   11  A    between atoms: N_69  and  C_7 
REMARK   12  A    between atoms: N_71  and  C_8 
REMARK   13  A    between atoms: C_11  and  C_9 
REMARK   14  A    between atoms: N_67  and  C_9 
REMARK   15  A    between atoms: C_12  and  C_10 
REMARK   16  A    between atoms: N_68  and  C_10 
REMARK   17  A    between atoms: N_73  and  C_11 
REMARK   18  A    between atoms: N_75  and  C_12 
REMARK   19  A    between atoms: N_77  and  C_13 
REMARK   20  A    between atoms: N_78  and  C_14 
REMARK   21  A    between atoms: N_79  and  C_15 
REMARK   22  A    between atoms: N_80  and  C_16 
REMARK   23  A    between atoms: C_42  and  C_31 
REMARK   24  A    between atoms: O_83  and  C_31 
REMARK   25  A    between atoms: C_43  and  C_32 
REMARK   26  A    between atoms: O_84  and  C_32 
REMARK   27  A    between atoms: C_37  and  C_33 
REMARK   28  A    between atoms: O_103  and  C_33 
REMARK   29  A    between atoms: C_37  and  C_34 
REMARK   30  A    between atoms: O_104  and  C_34 
REMARK   31  A    between atoms: C_58  and  C_35 
REMARK   32  A    between atoms: C_59  and  C_36 
REMARK   33  A    between atoms: N_64  and  C_37 
REMARK   34  A    between atoms: N_81  and  C_38 
REMARK   35  A    between atoms: N_82  and  C_39 
REMARK   36  A    between atoms: O_105  and  C_40 
REMARK   37  A    between atoms: O_106  and  C_41 
REMARK   38  A    between atoms: N_65  and  C_44 
REMARK   39  A    between atoms: N_66  and  C_45 
REMARK   40  A    between atoms: N_67  and  C_46 
REMARK   41  A    between atoms: N_68  and  C_47 
REMARK   42  A    between atoms: C_48  and  O_85 
REMARK   43  A    between atoms: O_86  and  C_49 
REMARK   44  A    between atoms: C_54  and  O_91 
REMARK   45  A    between atoms: O_92  and  C_55 
REMARK   46  A    between atoms: O_94  and  C_57 
REMARK   47  A    between atoms: O_95  and  C_58 
REMARK   48  A    between atoms: O_96  and  C_59 
REMARK   49  A    between atoms: C_60  and  O_105 
REMARK   50  A    between atoms: O_106  and  C_61 
REMARK   51  A    between atoms: O_97  and  C_62 
REMARK   52  A    between atoms: O_103  and  C_62 
REMARK   53  A    between atoms: O_98  and  C_63 
REMARK   54  A    between atoms: O_104  and  C_63 
ROOT
HETATM    1  C   UNK N   1      28.399  14.393   4.333  0.00  0.00     0.179 C 
HETATM    2  C   UNK N   1      28.017  15.494   5.347  0.00  0.00     0.180 C 
HETATM    3  C   UNK N   1      26.503  15.748   5.232  0.00  0.00     0.183 C 
HETATM    4  C   UNK N   1      26.146  16.072   3.773  0.00  0.00     0.205 C 
HETATM    5  C   UNK N   1      26.711  14.944   2.843  0.00  0.00     0.298 C 
HETATM    6  O   UNK N   1      26.703  17.298   3.402  0.00  0.00    -0.388 OA
HETATM    7  O   UNK N   1      28.102  14.805   3.011  0.00  0.00    -0.348 OA
HETATM    8  H   UNK N   1      27.078  18.106   3.017  0.00  0.00     0.210 HD
ENDROOT
BRANCH   3   9
HETATM    9  O   UNK N   1      26.112  16.788   6.079  0.00  0.00    -0.390 OA
HETATM   10  H   UNK N   1      25.268  17.263   6.026  0.00  0.00     0.210 HD
ENDBRANCH   3   9
BRANCH   5  11
HETATM   11  O   UNK N   1      26.092  13.700   2.997  0.00  0.00    -0.318 OA
BRANCH  11  12
HETATM   12  C   UNK N   1      25.464  13.201   1.935  0.00  0.00     0.075 A 
HETATM   13  C   UNK N   1      24.242  13.748   1.578  0.00  0.00     0.052 A 
HETATM   14  C   UNK N   1      23.344  13.007   0.826  0.00  0.00     0.019 A 
HETATM   15  C   UNK N   1      23.655  11.671   0.503  0.00  0.00     0.052 A 
HETATM   16  C   UNK N   1      24.923  11.151   0.823  0.00  0.00     0.106 A 
HETATM   17  C   UNK N   1      25.828  11.942   1.506  0.00  0.00     0.073 A 
BRANCH  14  18
HETATM   18  C   UNK N   1      22.010  13.563   0.606  0.00  0.00     0.146 C 
HETATM   19  N   UNK N   1      20.998  12.782   0.558  0.00  0.00    -0.370 N 
ATOM     20  HN  UNK N   1      21.139  11.772   0.526  1.00  0.00     0.161 HD
BRANCH  19  21
HETATM   21  C   UNK N   1      19.670  13.314   0.550  0.00  0.00     0.123 C 
BRANCH  21  22
HETATM   22  C   UNK N   1      19.138  13.132   1.964  0.00  0.00     0.050 C 
BRANCH  22  23
HETATM   23  C   UNK N   1      20.172  12.634   2.978  0.00  0.00     0.274 C 
BRANCH  23  24
HETATM   24  N   UNK N   1      20.579  13.635   3.962  0.00  0.00     0.091 N 
HETATM   25  C   UNK N   1      19.620  14.756   3.893  0.00  0.00     0.302 C 
HETATM   26  C   UNK N   1      19.227  15.371   5.243  0.00  0.00     0.302 C 
HETATM   27  N   UNK N   1      20.268  15.203   6.244  0.00  0.00     0.091 N 
HETATM   28  C   UNK N   1      20.380  13.764   6.485  0.00  0.00     0.302 C 
HETATM   29  C   UNK N   1      20.889  13.001   5.260  0.00  0.00     0.302 C 
BRANCH  27  30
HETATM   30  C   UNK N   1      21.505  15.834   5.757  0.00  0.00     0.274 C 
BRANCH  30  31
HETATM   31  C   UNK N   1      21.811  17.125   6.479  0.00  0.00     0.050 C 
BRANCH  31  32
HETATM   32  C   UNK N   1      21.466  18.355   5.627  0.00  0.00     0.121 C 
BRANCH  32  33
HETATM   33  N   UNK N   1      22.024  18.176   4.305  0.00  0.00    -0.385 N 
HETATM   34  H   UNK N   1      22.630  17.424   4.115  0.00  0.00     0.159 HD
BRANCH  33  35
HETATM   35  C   UNK N   1      21.683  19.102   3.291  0.00  0.00     0.114 A 
HETATM   36  C   UNK N   1      22.291  20.159   2.702  0.00  0.00     0.114 A 
HETATM   37  C   UNK N   1      21.051  20.539   2.025  0.00  0.00     0.252 A 
HETATM   38  C   UNK N   1      20.407  19.408   2.649  0.00  0.00     0.252 A 
HETATM   39  O   UNK N   1      20.683  21.485   1.351  0.00  0.00    -0.281 OA
HETATM   40  O   UNK N   1      19.267  18.978   2.731  0.00  0.00    -0.281 OA
BRANCH  36  41
HETATM   41  N   UNK N   1      23.551  20.825   2.772  0.00  0.00    -0.383 N 
HETATM   42  H   UNK N   1      23.555  21.797   2.618  0.00  0.00     0.159 HD
BRANCH  41  43
HETATM   43  C   UNK N   1      24.816  20.195   3.050  0.00  0.00     0.139 C 
BRANCH  43  44
HETATM   44  C   UNK N   1      25.119  20.181   4.518  0.00  0.00     0.143 C 
BRANCH  44  45
HETATM   45  N   UNK N   1      26.457  19.748   4.817  0.00  0.00    -0.349 N 
HETATM   46  C   UNK N   1      26.960  19.911   5.991  0.00  0.00     0.258 C 
ATOM     47  HN  UNK N   1      27.016  19.303   4.088  1.00  0.00     0.163 HD
BRANCH  46  48
HETATM   48  O   UNK N   1      26.293  20.590   6.936  0.00  0.00    -0.327 OA
HETATM   49  H   UNK N   1      25.808  20.136   7.597  0.00  0.00     0.221 HD
ENDBRANCH  46  48
BRANCH  46  50
HETATM   50  O   UNK N   1      27.993  19.136   6.361  0.00  0.00    -0.315 OA
BRANCH  50  51
HETATM   51  C   UNK N   1      28.347  19.143   7.703  0.00  0.00     0.206 C 
BRANCH  51  52
HETATM   52  C   UNK N   1      28.624  17.695   8.202  0.00  0.00     0.123 C 
BRANCH  52  53
HETATM   53  C   UNK N   1      29.924  17.579   9.021  0.00  0.00     0.206 C 
BRANCH  53  54
HETATM   54  O   UNK N   1      31.036  17.921   8.267  0.00  0.00    -0.315 OA
BRANCH  54  55
HETATM   55  C   UNK N   1      31.689  17.185   7.325  0.00  0.00     0.258 C 
HETATM   56  N   UNK N   1      32.726  16.452   7.582  0.00  0.00    -0.349 N 
ATOM     57  HN  UNK N   1      33.126  15.921   6.809  1.00  0.00     0.163 HD
BRANCH  56  58
HETATM   58  C   UNK N   1      33.363  16.326   8.874  0.00  0.00     0.143 C 
BRANCH  58  59
HETATM   59  C   UNK N   1      32.923  15.040   9.574  0.00  0.00     0.139 C 
BRANCH  59  60
HETATM   60  N   UNK N   1      33.512  14.995  10.880  0.00  0.00    -0.383 N 
HETATM   61  H   UNK N   1      33.003  15.321  11.658  0.00  0.00     0.159 HD
BRANCH  60  62
HETATM   62  C   UNK N   1      34.815  14.485  11.057  0.00  0.00     0.114 A 
HETATM   63  C   UNK N   1      35.230  13.266  11.417  0.00  0.00     0.114 A 
HETATM   64  C   UNK N   1      36.636  13.663  11.362  0.00  0.00     0.252 A 
HETATM   65  C   UNK N   1      36.190  14.991  10.973  0.00  0.00     0.252 A 
HETATM   66  O   UNK N   1      37.706  13.126  11.601  0.00  0.00    -0.281 OA
HETATM   67  O   UNK N   1      36.725  16.069  10.774  0.00  0.00    -0.281 OA
BRANCH  63  68
HETATM   68  N   UNK N   1      34.550  12.068  11.743  0.00  0.00    -0.385 N 
HETATM   69  H   UNK N   1      34.054  12.018  12.592  0.00  0.00     0.159 HD
BRANCH  68  70
HETATM   70  C   UNK N   1      34.559  10.917  10.871  0.00  0.00     0.121 C 
BRANCH  70  71
HETATM   71  C   UNK N   1      34.153  11.272   9.437  0.00  0.00     0.050 C 
BRANCH  71  72
HETATM   72  C   UNK N   1      35.303  11.317   8.418  0.00  0.00     0.274 C 
BRANCH  72  73
HETATM   73  N   UNK N   1      35.097  12.334   7.383  0.00  0.00     0.091 N 
HETATM   74  C   UNK N   1      35.993  13.470   7.599  0.00  0.00     0.302 C 
HETATM   75  C   UNK N   1      35.656  14.577   6.600  0.00  0.00     0.302 C 
HETATM   76  N   UNK N   1      35.381  14.070   5.248  0.00  0.00     0.091 N 
HETATM   77  C   UNK N   1      35.887  12.707   5.027  0.00  0.00     0.302 C 
HETATM   78  C   UNK N   1      35.388  11.705   6.090  0.00  0.00     0.302 C 
BRANCH  76  79
HETATM   79  C   UNK N   1      33.943  14.106   5.014  0.00  0.00     0.274 C 
BRANCH  79  80
HETATM   80  C   UNK N   1      33.607  15.151   3.969  0.00  0.00     0.050 C 
BRANCH  80  81
HETATM   81  C   UNK N   1      33.273  14.507   2.629  0.00  0.00     0.123 C 
BRANCH  81  82
HETATM   82  N   UNK N   1      34.445  14.190   1.835  0.00  0.00    -0.370 N 
HETATM   83  C   UNK N   1      34.564  13.120   1.123  0.00  0.00     0.146 C 
ATOM     84  HN  UNK N   1      35.221  14.852   1.839  1.00  0.00     0.161 HD
BRANCH  83  85
HETATM   85  C   UNK N   1      33.516  12.097   1.091  0.00  0.00     0.019 A 
HETATM   86  C   UNK N   1      32.378  12.220   0.270  0.00  0.00     0.052 A 
HETATM   87  C   UNK N   1      31.368  11.241   0.314  0.00  0.00     0.106 A 
HETATM   88  C   UNK N   1      31.516  10.164   1.185  0.00  0.00     0.073 A 
HETATM   89  C   UNK N   1      32.618  10.092   2.034  0.00  0.00     0.075 A 
HETATM   90  C   UNK N   1      33.608  11.054   1.988  0.00  0.00     0.052 A 
BRANCH  87  91
HETATM   91  N   UNK N   1      30.147  11.400  -0.401  0.00  0.00    -0.116 N 
HETATM   92  O   UNK N   1      29.128  11.598   0.193  0.00  0.00    -0.532 OA
HETATM   93  O   UNK N   1      30.152  11.469  -1.592  0.00  0.00    -0.532 OA
ENDBRANCH  87  91
BRANCH  89  94
HETATM   94  O   UNK N   1      32.579   9.290   3.098  0.00  0.00    -0.318 OA
BRANCH  94  95
HETATM   95  C   UNK N   1      32.746   9.893   4.339  0.00  0.00     0.298 C 
HETATM   96  C   UNK N   1      31.537  10.788   4.719  0.00  0.00     0.205 C 
HETATM   97  C   UNK N   1      30.308   9.877   4.844  0.00  0.00     0.183 C 
HETATM   98  C   UNK N   1      30.604   8.773   5.872  0.00  0.00     0.180 C 
HETATM   99  C   UNK N   1      31.908   8.034   5.470  0.00  0.00     0.179 C 
HETATM  100  O   UNK N   1      32.997   8.927   5.333  0.00  0.00    -0.348 OA
BRANCH  96 101
HETATM  101  O   UNK N   1      31.802  11.451   5.920  0.00  0.00    -0.388 OA
HETATM  102  H   UNK N   1      31.748  11.563   6.881  0.00  0.00     0.210 HD
ENDBRANCH  96 101
BRANCH  97 103
HETATM  103  O   UNK N   1      29.182  10.617   5.212  0.00  0.00    -0.390 OA
HETATM  104  H   UNK N   1      29.087  11.549   4.958  0.00  0.00     0.210 HD
ENDBRANCH  97 103
BRANCH  98 105
HETATM  105  O   UNK N   1      30.736   9.339   7.144  0.00  0.00    -0.390 OA
HETATM  106  H   UNK N   1      30.922  10.132   7.671  0.00  0.00     0.210 HD
ENDBRANCH  98 105
BRANCH  99 107
HETATM  107  C   UNK N   1      32.306   6.984   6.502  0.00  0.00     0.198 C 
BRANCH 107 108
HETATM  108  O   UNK N   1      32.723   7.595   7.690  0.00  0.00    -0.398 OA
HETATM  109  H   UNK N   1      33.064   8.302   8.261  0.00  0.00     0.209 HD
ENDBRANCH 107 108
ENDBRANCH  99 107
ENDBRANCH  94  95
ENDBRANCH  89  94
ENDBRANCH  83  85
BRANCH  83 110
HETATM  110  O   UNK N   1      35.630  12.983   0.309  0.00  0.00    -0.346 OA
HETATM  111  H   UNK N   1      36.172  13.094  -0.447  0.00  0.00     0.219 HD
ENDBRANCH  83 110
ENDBRANCH  81  82
ENDBRANCH  80  81
ENDBRANCH  79  80
ENDBRANCH  76  79
ENDBRANCH  72  73
ENDBRANCH  71  72
ENDBRANCH  70  71
ENDBRANCH  68  70
ENDBRANCH  63  68
ENDBRANCH  60  62
ENDBRANCH  59  60
ENDBRANCH  58  59
ENDBRANCH  56  58
BRANCH  55 112
HETATM  112  O   UNK N   1      31.224  17.224   6.062  0.00  0.00    -0.327 OA
HETATM  113  H   UNK N   1      30.902  17.460   5.214  0.00  0.00     0.221 HD
ENDBRANCH  55 112
ENDBRANCH  54  55
ENDBRANCH  53  54
ENDBRANCH  52  53
BRANCH  52 114
HETATM  114  N   UNK N   1      27.494  17.193   8.961  0.00  0.00    -0.422 N 
HETATM  115  H   UNK N   1      26.639  17.686   9.220  0.00  0.00     0.150 HD
HETATM  116  H   UNK N   1      27.562  16.225   9.275  0.00  0.00     0.150 HD
ENDBRANCH  52 114
ENDBRANCH  51  52
ENDBRANCH  50  51
ENDBRANCH  46  50
ENDBRANCH  44  45
ENDBRANCH  43  44
ENDBRANCH  41  43
ENDBRANCH  36  41
ENDBRANCH  33  35
ENDBRANCH  32  33
ENDBRANCH  31  32
ENDBRANCH  30  31
ENDBRANCH  27  30
ENDBRANCH  23  24
ENDBRANCH  22  23
ENDBRANCH  21  22
ENDBRANCH  19  21
BRANCH  18 117
HETATM  117  O   UNK N   1      21.839  14.906   0.574  0.00  0.00    -0.346 OA
HETATM  118  H   UNK N   1      21.353  15.309  -0.118  0.00  0.00     0.219 HD
ENDBRANCH  18 117
ENDBRANCH  14  18
BRANCH  16 119
HETATM  119  N   UNK N   1      25.217   9.772   0.720  0.00  0.00    -0.116 N 
HETATM  120  O   UNK N   1      26.342   9.413   0.602  0.00  0.00    -0.532 OA
HETATM  121  O   UNK N   1      24.407   8.991   1.108  0.00  0.00    -0.532 OA
ENDBRANCH  16 119
ENDBRANCH  11  12
ENDBRANCH   5  11
BRANCH   2 122
HETATM  122  O   UNK N   1      28.729  16.669   5.078  0.00  0.00    -0.390 OA
HETATM  123  H   UNK N   1      29.191  17.518   5.153  0.00  0.00     0.210 HD
ENDBRANCH   2 122
BRANCH   1 124
HETATM  124  C   UNK N   1      29.871  14.014   4.393  0.00  0.00     0.198 C 
BRANCH 124 125
HETATM  125  O   UNK N   1      30.385  14.215   5.675  0.00  0.00    -0.398 OA
HETATM  126  H   UNK N   1      30.826  14.655   6.419  0.00  0.00     0.209 HD
ENDBRANCH 124 125
ENDBRANCH   1 124
TORSDOF 54
ENDMDL
MODEL 6
REMARK VINA RESULT:      -7.1      3.406      9.686
REMARK WARNING: 32 MAX_TORS EXCEEDED!!!
REMARK  54 active torsions:
REMARK  status: ('A' for Active; 'I' for Inactive)
REMARK    1  A    between atoms: C_5  and  C_1 
REMARK    2  A    between atoms: C_13  and  C_1 
REMARK    3  A    between atoms: C_6  and  C_2 
REMARK    4  A    between atoms: C_14  and  C_2 
REMARK    5  A    between atoms: C_7  and  C_3 
REMARK    6  A    between atoms: C_15  and  C_3 
REMARK    7  A    between atoms: C_8  and  C_4 
REMARK    8  A    between atoms: C_16  and  C_4 
REMARK    9  A    between atoms: N_65  and  C_5 
REMARK   10  A    between atoms: N_66  and  C_6 
REMARK   11  A    between atoms: N_69  and  C_7 
REMARK   12  A    between atoms: N_71  and  C_8 
REMARK   13  A    between atoms: C_11  and  C_9 
REMARK   14  A    between atoms: N_67  and  C_9 
REMARK   15  A    between atoms: C_12  and  C_10 
REMARK   16  A    between atoms: N_68  and  C_10 
REMARK   17  A    between atoms: N_73  and  C_11 
REMARK   18  A    between atoms: N_75  and  C_12 
REMARK   19  A    between atoms: N_77  and  C_13 
REMARK   20  A    between atoms: N_78  and  C_14 
REMARK   21  A    between atoms: N_79  and  C_15 
REMARK   22  A    between atoms: N_80  and  C_16 
REMARK   23  A    between atoms: C_42  and  C_31 
REMARK   24  A    between atoms: O_83  and  C_31 
REMARK   25  A    between atoms: C_43  and  C_32 
REMARK   26  A    between atoms: O_84  and  C_32 
REMARK   27  A    between atoms: C_37  and  C_33 
REMARK   28  A    between atoms: O_103  and  C_33 
REMARK   29  A    between atoms: C_37  and  C_34 
REMARK   30  A    between atoms: O_104  and  C_34 
REMARK   31  A    between atoms: C_58  and  C_35 
REMARK   32  A    between atoms: C_59  and  C_36 
REMARK   33  A    between atoms: N_64  and  C_37 
REMARK   34  A    between atoms: N_81  and  C_38 
REMARK   35  A    between atoms: N_82  and  C_39 
REMARK   36  A    between atoms: O_105  and  C_40 
REMARK   37  A    between atoms: O_106  and  C_41 
REMARK   38  A    between atoms: N_65  and  C_44 
REMARK   39  A    between atoms: N_66  and  C_45 
REMARK   40  A    between atoms: N_67  and  C_46 
REMARK   41  A    between atoms: N_68  and  C_47 
REMARK   42  A    between atoms: C_48  and  O_85 
REMARK   43  A    between atoms: O_86  and  C_49 
REMARK   44  A    between atoms: C_54  and  O_91 
REMARK   45  A    between atoms: O_92  and  C_55 
REMARK   46  A    between atoms: O_94  and  C_57 
REMARK   47  A    between atoms: O_95  and  C_58 
REMARK   48  A    between atoms: O_96  and  C_59 
REMARK   49  A    between atoms: C_60  and  O_105 
REMARK   50  A    between atoms: O_106  and  C_61 
REMARK   51  A    between atoms: O_97  and  C_62 
REMARK   52  A    between atoms: O_103  and  C_62 
REMARK   53  A    between atoms: O_98  and  C_63 
REMARK   54  A    between atoms: O_104  and  C_63 
ROOT
HETATM    1  C   UNK N   1      29.301  18.061   8.025  0.00  0.00     0.179 C 
HETATM    2  C   UNK N   1      30.550  17.989   8.931  0.00  0.00     0.180 C 
HETATM    3  C   UNK N   1      31.781  17.770   8.033  0.00  0.00     0.183 C 
HETATM    4  C   UNK N   1      31.561  16.533   7.150  0.00  0.00     0.205 C 
HETATM    5  C   UNK N   1      30.195  16.677   6.394  0.00  0.00     0.298 C 
HETATM    6  O   UNK N   1      31.533  15.379   7.937  0.00  0.00    -0.388 OA
HETATM    7  O   UNK N   1      29.134  16.853   7.304  0.00  0.00    -0.348 OA
HETATM    8  H   UNK N   1      31.447  14.521   8.381  0.00  0.00     0.210 HD
ENDROOT
BRANCH   3   9
HETATM    9  O   UNK N   1      32.936  17.626   8.806  0.00  0.00    -0.390 OA
HETATM   10  H   UNK N   1      33.539  18.347   9.047  0.00  0.00     0.210 HD
ENDBRANCH   3   9
BRANCH   5  11
HETATM   11  O   UNK N   1      30.166  17.694   5.436  0.00  0.00    -0.318 OA
BRANCH  11  12
HETATM   12  C   UNK N   1      29.194  17.643   4.528  0.00  0.00     0.075 A 
HETATM   13  C   UNK N   1      28.191  18.596   4.587  0.00  0.00     0.052 A 
HETATM   14  C   UNK N   1      26.954  18.337   4.017  0.00  0.00     0.019 A 
HETATM   15  C   UNK N   1      26.708  17.069   3.454  0.00  0.00     0.052 A 
HETATM   16  C   UNK N   1      27.755  16.134   3.351  0.00  0.00     0.106 A 
HETATM   17  C   UNK N   1      29.001  16.452   3.860  0.00  0.00     0.073 A 
BRANCH  14  18
HETATM   18  C   UNK N   1      25.879  19.304   4.239  0.00  0.00     0.146 C 
HETATM   19  N   UNK N   1      25.260  19.803   3.237  0.00  0.00    -0.370 N 
ATOM     20  HN  UNK N   1      25.611  19.641   2.292  1.00  0.00     0.161 HD
BRANCH  19  21
HETATM   21  C   UNK N   1      24.080  20.588   3.430  0.00  0.00     0.123 C 
BRANCH  21  22
HETATM   22  C   UNK N   1      22.942  19.793   2.806  0.00  0.00     0.050 C 
BRANCH  22  23
HETATM   23  C   UNK N   1      22.042  19.067   3.811  0.00  0.00     0.274 C 
BRANCH  23  24
HETATM   24  N   UNK N   1      22.691  17.957   4.508  0.00  0.00     0.091 N 
HETATM   25  C   UNK N   1      22.162  17.916   5.886  0.00  0.00     0.302 C 
HETATM   26  C   UNK N   1      21.904  16.513   6.451  0.00  0.00     0.302 C 
HETATM   27  N   UNK N   1      22.762  15.511   5.838  0.00  0.00     0.091 N 
HETATM   28  C   UNK N   1      22.377  15.444   4.428  0.00  0.00     0.302 C 
HETATM   29  C   UNK N   1      22.687  16.738   3.673  0.00  0.00     0.302 C 
BRANCH  27  30
HETATM   30  C   UNK N   1      24.167  15.884   6.067  0.00  0.00     0.274 C 
BRANCH  30  31
HETATM   31  C   UNK N   1      24.983  14.735   6.614  0.00  0.00     0.050 C 
BRANCH  31  32
HETATM   32  C   UNK N   1      24.221  13.954   7.693  0.00  0.00     0.121 C 
BRANCH  32  33
HETATM   33  N   UNK N   1      24.229  12.551   7.346  0.00  0.00    -0.385 N 
HETATM   34  H   UNK N   1      24.831  11.924   7.807  0.00  0.00     0.159 HD
BRANCH  33  35
HETATM   35  C   UNK N   1      23.355  12.096   6.331  0.00  0.00     0.114 A 
HETATM   36  C   UNK N   1      23.444  11.896   4.994  0.00  0.00     0.114 A 
HETATM   37  C   UNK N   1      22.001  11.681   4.895  0.00  0.00     0.252 A 
HETATM   38  C   UNK N   1      21.908  11.887   6.320  0.00  0.00     0.252 A 
HETATM   39  O   UNK N   1      21.204  11.542   3.984  0.00  0.00    -0.281 OA
HETATM   40  O   UNK N   1      21.009  11.992   7.138  0.00  0.00    -0.281 OA
BRANCH  36  41
HETATM   41  N   UNK N   1      24.439  12.002   3.977  0.00  0.00    -0.383 N 
HETATM   42  H   UNK N   1      24.530  12.872   3.526  0.00  0.00     0.159 HD
BRANCH  41  43
HETATM   43  C   UNK N   1      25.320  10.944   3.555  0.00  0.00     0.139 C 
BRANCH  43  44
HETATM   44  C   UNK N   1      26.378  10.661   4.578  0.00  0.00     0.143 C 
BRANCH  44  45
HETATM   45  N   UNK N   1      27.498  11.558   4.501  0.00  0.00    -0.349 N 
HETATM   46  C   UNK N   1      28.663  11.137   4.151  0.00  0.00     0.258 C 
ATOM     47  HN  UNK N   1      27.367  12.545   4.725  1.00  0.00     0.163 HD
BRANCH  46  48
HETATM   48  O   UNK N   1      28.891   9.829   3.957  0.00  0.00    -0.327 OA
HETATM   49  H   UNK N   1      28.928   9.475   3.091  0.00  0.00     0.221 HD
ENDBRANCH  46  48
BRANCH  46  50
HETATM   50  O   UNK N   1      29.552  12.025   3.673  0.00  0.00    -0.315 OA
BRANCH  50  51
HETATM   51  C   UNK N   1      30.086  12.939   4.569  0.00  0.00     0.206 C 
BRANCH  51  52
HETATM   52  C   UNK N   1      31.396  13.559   4.002  0.00  0.00     0.123 C 
BRANCH  52  53
HETATM   53  C   UNK N   1      32.500  13.708   5.067  0.00  0.00     0.206 C 
BRANCH  53  54
HETATM   54  O   UNK N   1      32.144  13.104   6.262  0.00  0.00    -0.315 OA
BRANCH  54  55
HETATM   55  C   UNK N   1      32.920  12.387   7.123  0.00  0.00     0.258 C 
HETATM   56  N   UNK N   1      33.480  11.261   6.813  0.00  0.00    -0.349 N 
ATOM     57  HN  UNK N   1      34.061  10.816   7.523  1.00  0.00     0.163 HD
BRANCH  56  58
HETATM   58  C   UNK N   1      33.347  10.582   5.542  0.00  0.00     0.143 C 
BRANCH  58  59
HETATM   59  C   UNK N   1      32.098   9.702   5.525  0.00  0.00     0.139 C 
BRANCH  59  60
HETATM   60  N   UNK N   1      32.362   8.500   6.260  0.00  0.00    -0.383 N 
HETATM   61  H   UNK N   1      32.994   7.835   5.900  0.00  0.00     0.159 HD
BRANCH  60  62
HETATM   62  C   UNK N   1      31.724   8.264   7.495  0.00  0.00     0.114 A 
HETATM   63  C   UNK N   1      30.970   7.237   7.902  0.00  0.00     0.114 A 
HETATM   64  C   UNK N   1      30.750   7.841   9.215  0.00  0.00     0.252 A 
HETATM   65  C   UNK N   1      31.567   8.961   8.777  0.00  0.00     0.252 A 
HETATM   66  O   UNK N   1      30.109   7.553  10.213  0.00  0.00    -0.281 OA
HETATM   67  O   UNK N   1      31.884  10.044   9.240  0.00  0.00    -0.281 OA
BRANCH  63  68
HETATM   68  N   UNK N   1      30.542   6.042   7.275  0.00  0.00    -0.385 N 
HETATM   69  H   UNK N   1      30.385   6.044   6.304  0.00  0.00     0.159 HD
BRANCH  68  70
HETATM   70  C   UNK N   1      30.329   4.820   8.015  0.00  0.00     0.121 C 
BRANCH  70  71
HETATM   71  C   UNK N   1      31.615   4.304   8.667  0.00  0.00     0.050 C 
BRANCH  71  72
HETATM   72  C   UNK N   1      31.614   4.281  10.203  0.00  0.00     0.274 C 
BRANCH  72  73
HETATM   73  N   UNK N   1      32.703   5.075  10.779  0.00  0.00     0.091 N 
HETATM   74  C   UNK N   1      33.430   4.292  11.778  0.00  0.00     0.302 C 
HETATM   75  C   UNK N   1      34.461   5.186  12.468  0.00  0.00     0.302 C 
HETATM   76  N   UNK N   1      35.167   6.078  11.538  0.00  0.00     0.091 N 
HETATM   77  C   UNK N   1      35.063   5.650  10.134  0.00  0.00     0.302 C 
HETATM   78  C   UNK N   1      33.602   5.444   9.680  0.00  0.00     0.302 C 
BRANCH  76  79
HETATM   79  C   UNK N   1      34.636   7.427  11.681  0.00  0.00     0.274 C 
BRANCH  79  80
HETATM   80  C   UNK N   1      35.299   8.131  12.848  0.00  0.00     0.050 C 
BRANCH  80  81
HETATM   81  C   UNK N   1      36.535   8.903  12.399  0.00  0.00     0.123 C 
BRANCH  81  82
HETATM   82  N   UNK N   1      37.675   8.726  13.278  0.00  0.00    -0.370 N 
HETATM   83  C   UNK N   1      38.064   9.606  14.137  0.00  0.00     0.146 C 
ATOM     84  HN  UNK N   1      38.199   7.853  13.215  1.00  0.00     0.161 HD
BRANCH  83  85
HETATM   85  C   UNK N   1      37.394  10.902  14.268  0.00  0.00     0.019 A 
HETATM   86  C   UNK N   1      36.577  11.212  15.371  0.00  0.00     0.052 A 
HETATM   87  C   UNK N   1      35.907  12.448  15.427  0.00  0.00     0.106 A 
HETATM   88  C   UNK N   1      36.063  13.344  14.372  0.00  0.00     0.073 A 
HETATM   89  C   UNK N   1      36.826  12.994  13.260  0.00  0.00     0.075 A 
HETATM   90  C   UNK N   1      37.483  11.781  13.208  0.00  0.00     0.052 A 
BRANCH  87  91
HETATM   91  N   UNK N   1      34.970  12.740  16.460  0.00  0.00    -0.116 N 
HETATM   92  O   UNK N   1      34.002  13.400  16.220  0.00  0.00    -0.532 OA
HETATM   93  O   UNK N   1      35.075  12.223  17.530  0.00  0.00    -0.532 OA
ENDBRANCH  87  91
BRANCH  89  94
HETATM   94  O   UNK N   1      36.678  13.671  12.121  0.00  0.00    -0.318 OA
BRANCH  94  95
HETATM   95  C   UNK N   1      35.433  13.594  11.508  0.00  0.00     0.298 C 
HETATM   96  C   UNK N   1      34.696  14.960  11.513  0.00  0.00     0.205 C 
HETATM   97  C   UNK N   1      35.530  15.938  10.674  0.00  0.00     0.183 C 
HETATM   98  C   UNK N   1      35.729  15.350   9.268  0.00  0.00     0.180 C 
HETATM   99  C   UNK N   1      36.342  13.930   9.387  0.00  0.00     0.179 C 
HETATM  100  O   UNK N   1      35.551  13.083  10.200  0.00  0.00    -0.348 OA
BRANCH  96 101
HETATM  101  O   UNK N   1      33.413  14.803  10.983  0.00  0.00    -0.388 OA
HETATM  102  H   UNK N   1      32.507  14.460  10.986  0.00  0.00     0.210 HD
ENDBRANCH  96 101
BRANCH  97 103
HETATM  103  O   UNK N   1      34.908  17.187  10.613  0.00  0.00    -0.390 OA
HETATM  104  H   UNK N   1      34.575  17.543   9.774  0.00  0.00     0.210 HD
ENDBRANCH  97 103
BRANCH  98 105
HETATM  105  O   UNK N   1      34.500  15.298   8.603  0.00  0.00    -0.390 OA
HETATM  106  H   UNK N   1      33.940  14.845   7.953  0.00  0.00     0.210 HD
ENDBRANCH  98 105
BRANCH  99 107
HETATM  107  C   UNK N   1      36.480  13.255   8.027  0.00  0.00     0.198 C 
BRANCH 107 108
HETATM  108  O   UNK N   1      36.104  11.910   8.104  0.00  0.00    -0.398 OA
HETATM  109  H   UNK N   1      35.614  11.134   8.420  0.00  0.00     0.209 HD
ENDBRANCH 107 108
ENDBRANCH  99 107
ENDBRANCH  94  95
ENDBRANCH  89  94
ENDBRANCH  83  85
BRANCH  83 110
HETATM  110  O   UNK N   1      39.046   9.293  15.006  0.00  0.00    -0.346 OA
HETATM  111  H   UNK N   1      39.722   9.418  15.643  0.00  0.00     0.219 HD
ENDBRANCH  83 110
ENDBRANCH  81  82
ENDBRANCH  80  81
ENDBRANCH  79  80
ENDBRANCH  76  79
ENDBRANCH  72  73
ENDBRANCH  71  72
ENDBRANCH  70  71
ENDBRANCH  68  70
ENDBRANCH  63  68
ENDBRANCH  60  62
ENDBRANCH  59  60
ENDBRANCH  58  59
ENDBRANCH  56  58
BRANCH  55 112
HETATM  112  O   UNK N   1      33.113  12.884   8.359  0.00  0.00    -0.327 OA
HETATM  113  H   UNK N   1      33.039  13.199   9.239  0.00  0.00     0.221 HD
ENDBRANCH  55 112
ENDBRANCH  54  55
ENDBRANCH  53  54
ENDBRANCH  52  53
BRANCH  52 114
HETATM  114  N   UNK N   1      31.876  12.789   2.869  0.00  0.00    -0.422 N 
HETATM  115  H   UNK N   1      31.394  12.592   1.993  0.00  0.00     0.150 HD
HETATM  116  H   UNK N   1      32.813  12.398   2.961  0.00  0.00     0.150 HD
ENDBRANCH  52 114
ENDBRANCH  51  52
ENDBRANCH  50  51
ENDBRANCH  46  50
ENDBRANCH  44  45
ENDBRANCH  43  44
ENDBRANCH  41  43
ENDBRANCH  36  41
ENDBRANCH  33  35
ENDBRANCH  32  33
ENDBRANCH  31  32
ENDBRANCH  30  31
ENDBRANCH  27  30
ENDBRANCH  23  24
ENDBRANCH  22  23
ENDBRANCH  21  22
ENDBRANCH  19  21
BRANCH  18 117
HETATM  117  O   UNK N   1      25.468  19.573   5.500  0.00  0.00    -0.346 OA
HETATM  118  H   UNK N   1      24.741  20.143   5.654  0.00  0.00     0.219 HD
ENDBRANCH  18 117
ENDBRANCH  14  18
BRANCH  16 119
HETATM  119  N   UNK N   1      27.525  14.785   2.997  0.00  0.00    -0.116 N 
HETATM  120  O   UNK N   1      26.623  14.190   3.487  0.00  0.00    -0.532 OA
HETATM  121  O   UNK N   1      27.990  14.382   1.978  0.00  0.00    -0.532 OA
ENDBRANCH  16 119
ENDBRANCH  11  12
ENDBRANCH   5  11
BRANCH   2 122
HETATM  122  O   UNK N   1      30.425  16.938   9.847  0.00  0.00    -0.390 OA
HETATM  123  H   UNK N   1      30.321  16.067  10.259  0.00  0.00     0.210 HD
ENDBRANCH   2 122
BRANCH   1 124
HETATM  124  C   UNK N   1      28.020  18.332   8.800  0.00  0.00     0.198 C 
BRANCH 124 125
HETATM  125  O   UNK N   1      27.433  17.137   9.223  0.00  0.00    -0.398 OA
HETATM  126  H   UNK N   1      27.320  16.297   9.695  0.00  0.00     0.209 HD
ENDBRANCH 124 125
ENDBRANCH   1 124
TORSDOF 54
ENDMDL
MODEL 7
REMARK VINA RESULT:      -7.1      3.235     10.415
REMARK WARNING: 32 MAX_TORS EXCEEDED!!!
REMARK  54 active torsions:
REMARK  status: ('A' for Active; 'I' for Inactive)
REMARK    1  A    between atoms: C_5  and  C_1 
REMARK    2  A    between atoms: C_13  and  C_1 
REMARK    3  A    between atoms: C_6  and  C_2 
REMARK    4  A    between atoms: C_14  and  C_2 
REMARK    5  A    between atoms: C_7  and  C_3 
REMARK    6  A    between atoms: C_15  and  C_3 
REMARK    7  A    between atoms: C_8  and  C_4 
REMARK    8  A    between atoms: C_16  and  C_4 
REMARK    9  A    between atoms: N_65  and  C_5 
REMARK   10  A    between atoms: N_66  and  C_6 
REMARK   11  A    between atoms: N_69  and  C_7 
REMARK   12  A    between atoms: N_71  and  C_8 
REMARK   13  A    between atoms: C_11  and  C_9 
REMARK   14  A    between atoms: N_67  and  C_9 
REMARK   15  A    between atoms: C_12  and  C_10 
REMARK   16  A    between atoms: N_68  and  C_10 
REMARK   17  A    between atoms: N_73  and  C_11 
REMARK   18  A    between atoms: N_75  and  C_12 
REMARK   19  A    between atoms: N_77  and  C_13 
REMARK   20  A    between atoms: N_78  and  C_14 
REMARK   21  A    between atoms: N_79  and  C_15 
REMARK   22  A    between atoms: N_80  and  C_16 
REMARK   23  A    between atoms: C_42  and  C_31 
REMARK   24  A    between atoms: O_83  and  C_31 
REMARK   25  A    between atoms: C_43  and  C_32 
REMARK   26  A    between atoms: O_84  and  C_32 
REMARK   27  A    between atoms: C_37  and  C_33 
REMARK   28  A    between atoms: O_103  and  C_33 
REMARK   29  A    between atoms: C_37  and  C_34 
REMARK   30  A    between atoms: O_104  and  C_34 
REMARK   31  A    between atoms: C_58  and  C_35 
REMARK   32  A    between atoms: C_59  and  C_36 
REMARK   33  A    between atoms: N_64  and  C_37 
REMARK   34  A    between atoms: N_81  and  C_38 
REMARK   35  A    between atoms: N_82  and  C_39 
REMARK   36  A    between atoms: O_105  and  C_40 
REMARK   37  A    between atoms: O_106  and  C_41 
REMARK   38  A    between atoms: N_65  and  C_44 
REMARK   39  A    between atoms: N_66  and  C_45 
REMARK   40  A    between atoms: N_67  and  C_46 
REMARK   41  A    between atoms: N_68  and  C_47 
REMARK   42  A    between atoms: C_48  and  O_85 
REMARK   43  A    between atoms: O_86  and  C_49 
REMARK   44  A    between atoms: C_54  and  O_91 
REMARK   45  A    between atoms: O_92  and  C_55 
REMARK   46  A    between atoms: O_94  and  C_57 
REMARK   47  A    between atoms: O_95  and  C_58 
REMARK   48  A    between atoms: O_96  and  C_59 
REMARK   49  A    between atoms: C_60  and  O_105 
REMARK   50  A    between atoms: O_106  and  C_61 
REMARK   51  A    between atoms: O_97  and  C_62 
REMARK   52  A    between atoms: O_103  and  C_62 
REMARK   53  A    between atoms: O_98  and  C_63 
REMARK   54  A    between atoms: O_104  and  C_63 
ROOT
HETATM    1  C   UNK N   1      28.443  14.190   4.491  0.00  0.00     0.179 C 
HETATM    2  C   UNK N   1      28.095  15.249   5.560  0.00  0.00     0.180 C 
HETATM    3  C   UNK N   1      26.592  15.562   5.453  0.00  0.00     0.183 C 
HETATM    4  C   UNK N   1      26.253  15.974   4.013  0.00  0.00     0.205 C 
HETATM    5  C   UNK N   1      26.782  14.878   3.027  0.00  0.00     0.298 C 
HETATM    6  O   UNK N   1      26.854  17.198   3.709  0.00  0.00    -0.388 OA
HETATM    7  O   UNK N   1      28.167  14.681   3.191  0.00  0.00    -0.348 OA
HETATM    8  H   UNK N   1      27.258  18.011   3.368  0.00  0.00     0.210 HD
ENDROOT
BRANCH   3   9
HETATM    9  O   UNK N   1      26.233  16.569   6.353  0.00  0.00    -0.390 OA
HETATM   10  H   UNK N   1      25.522  16.503   7.009  0.00  0.00     0.210 HD
ENDBRANCH   3   9
BRANCH   5  11
HETATM   11  O   UNK N   1      26.119  13.650   3.113  0.00  0.00    -0.318 OA
BRANCH  11  12
HETATM   12  C   UNK N   1      25.491  13.223   2.020  0.00  0.00     0.075 A 
HETATM   13  C   UNK N   1      24.293  13.825   1.674  0.00  0.00     0.052 A 
HETATM   14  C   UNK N   1      23.382  13.150   0.876  0.00  0.00     0.019 A 
HETATM   15  C   UNK N   1      23.656  11.822   0.493  0.00  0.00     0.052 A 
HETATM   16  C   UNK N   1      24.903  11.246   0.803  0.00  0.00     0.106 A 
HETATM   17  C   UNK N   1      25.822  11.975   1.535  0.00  0.00     0.073 A 
BRANCH  14  18
HETATM   18  C   UNK N   1      22.070  13.758   0.666  0.00  0.00     0.146 C 
HETATM   19  N   UNK N   1      21.048  13.012   0.483  0.00  0.00    -0.370 N 
ATOM     20  HN  UNK N   1      21.172  12.009   0.338  1.00  0.00     0.161 HD
BRANCH  19  21
HETATM   21  C   UNK N   1      19.731  13.570   0.480  0.00  0.00     0.123 C 
BRANCH  21  22
HETATM   22  C   UNK N   1      19.125  13.218   1.831  0.00  0.00     0.050 C 
BRANCH  22  23
HETATM   23  C   UNK N   1      20.121  12.672   2.857  0.00  0.00     0.274 C 
BRANCH  23  24
HETATM   24  N   UNK N   1      20.522  13.637   3.880  0.00  0.00     0.091 N 
HETATM   25  C   UNK N   1      19.561  14.757   3.848  0.00  0.00     0.302 C 
HETATM   26  C   UNK N   1      19.160  15.321   5.217  0.00  0.00     0.302 C 
HETATM   27  N   UNK N   1      20.197  15.118   6.217  0.00  0.00     0.091 N 
HETATM   28  C   UNK N   1      20.312  13.672   6.405  0.00  0.00     0.302 C 
HETATM   29  C   UNK N   1      20.828  12.956   5.155  0.00  0.00     0.302 C 
BRANCH  27  30
HETATM   30  C   UNK N   1      21.434  15.770   5.758  0.00  0.00     0.274 C 
BRANCH  30  31
HETATM   31  C   UNK N   1      21.732  17.037   6.526  0.00  0.00     0.050 C 
BRANCH  31  32
HETATM   32  C   UNK N   1      21.490  18.292   5.676  0.00  0.00     0.121 C 
BRANCH  32  33
HETATM   33  N   UNK N   1      21.687  17.957   4.284  0.00  0.00    -0.385 N 
HETATM   34  H   UNK N   1      21.968  17.051   4.022  0.00  0.00     0.159 HD
BRANCH  33  35
HETATM   35  C   UNK N   1      21.466  18.955   3.305  0.00  0.00     0.114 A 
HETATM   36  C   UNK N   1      22.182  19.985   2.795  0.00  0.00     0.114 A 
HETATM   37  C   UNK N   1      21.008  20.496   2.088  0.00  0.00     0.252 A 
HETATM   38  C   UNK N   1      20.248  19.393   2.627  0.00  0.00     0.252 A 
HETATM   39  O   UNK N   1      20.747  21.500   1.449  0.00  0.00    -0.281 OA
HETATM   40  O   UNK N   1      19.076  19.055   2.640  0.00  0.00    -0.281 OA
BRANCH  36  41
HETATM   41  N   UNK N   1      23.486  20.541   2.951  0.00  0.00    -0.383 N 
HETATM   42  H   UNK N   1      23.592  21.501   2.757  0.00  0.00     0.159 HD
BRANCH  41  43
HETATM   43  C   UNK N   1      24.661  19.819   3.367  0.00  0.00     0.139 C 
BRANCH  43  44
HETATM   44  C   UNK N   1      25.504  20.625   4.308  0.00  0.00     0.143 C 
BRANCH  44  45
HETATM   45  N   UNK N   1      26.698  19.943   4.726  0.00  0.00    -0.349 N 
HETATM   46  C   UNK N   1      27.024  19.878   5.971  0.00  0.00     0.258 C 
ATOM     47  HN  UNK N   1      27.297  19.503   4.027  1.00  0.00     0.163 HD
BRANCH  46  48
HETATM   48  O   UNK N   1      26.318  20.539   6.901  0.00  0.00    -0.327 OA
HETATM   49  H   UNK N   1      26.093  21.439   6.777  0.00  0.00     0.221 HD
ENDBRANCH  46  48
BRANCH  46  50
HETATM   50  O   UNK N   1      27.859  18.903   6.367  0.00  0.00    -0.315 OA
BRANCH  50  51
HETATM   51  C   UNK N   1      28.489  19.061   7.593  0.00  0.00     0.206 C 
BRANCH  51  52
HETATM   52  C   UNK N   1      28.753  17.677   8.254  0.00  0.00     0.123 C 
BRANCH  52  53
HETATM   53  C   UNK N   1      30.039  17.652   9.103  0.00  0.00     0.206 C 
BRANCH  53  54
HETATM   54  O   UNK N   1      31.162  17.933   8.340  0.00  0.00    -0.315 OA
BRANCH  54  55
HETATM   55  C   UNK N   1      31.827  17.124   7.469  0.00  0.00     0.258 C 
HETATM   56  N   UNK N   1      32.831  16.379   7.808  0.00  0.00    -0.349 N 
ATOM     57  HN  UNK N   1      33.244  15.792   7.083  1.00  0.00     0.163 HD
BRANCH  56  58
HETATM   58  C   UNK N   1      33.416  16.313   9.129  0.00  0.00     0.143 C 
BRANCH  58  59
HETATM   59  C   UNK N   1      33.094  14.978   9.800  0.00  0.00     0.139 C 
BRANCH  59  60
HETATM   60  N   UNK N   1      33.715  14.943  11.092  0.00  0.00    -0.383 N 
HETATM   61  H   UNK N   1      33.272  15.373  11.859  0.00  0.00     0.159 HD
BRANCH  60  62
HETATM   62  C   UNK N   1      34.954  14.295  11.270  0.00  0.00     0.114 A 
HETATM   63  C   UNK N   1      35.275  13.212  11.987  0.00  0.00     0.114 A 
HETATM   64  C   UNK N   1      36.685  13.307  11.611  0.00  0.00     0.252 A 
HETATM   65  C   UNK N   1      36.342  14.485  10.831  0.00  0.00     0.252 A 
HETATM   66  O   UNK N   1      37.705  12.696  11.886  0.00  0.00    -0.281 OA
HETATM   67  O   UNK N   1      36.961  15.318  10.190  0.00  0.00    -0.281 OA
BRANCH  63  68
HETATM   68  N   UNK N   1      34.524  12.337  12.808  0.00  0.00    -0.385 N 
HETATM   69  H   UNK N   1      33.892  12.720  13.459  0.00  0.00     0.159 HD
BRANCH  68  70
HETATM   70  C   UNK N   1      34.652  10.902  12.721  0.00  0.00     0.121 C 
BRANCH  70  71
HETATM   71  C   UNK N   1      34.049  10.341  11.429  0.00  0.00     0.050 C 
BRANCH  71  72
HETATM   72  C   UNK N   1      35.062   9.807  10.405  0.00  0.00     0.274 C 
BRANCH  72  73
HETATM   73  N   UNK N   1      35.409  10.800   9.385  0.00  0.00     0.091 N 
HETATM   74  C   UNK N   1      36.827  10.701   9.038  0.00  0.00     0.302 C 
HETATM   75  C   UNK N   1      37.195  11.841   8.088  0.00  0.00     0.302 C 
HETATM   76  N   UNK N   1      36.174  12.088   7.060  0.00  0.00     0.091 N 
HETATM   77  C   UNK N   1      35.246  10.961   6.882  0.00  0.00     0.302 C 
HETATM   78  C   UNK N   1      34.583  10.520   8.205  0.00  0.00     0.302 C 
BRANCH  76  79
HETATM   79  C   UNK N   1      35.429  13.289   7.412  0.00  0.00     0.274 C 
BRANCH  79  80
HETATM   80  C   UNK N   1      34.423  13.620   6.328  0.00  0.00     0.050 C 
BRANCH  80  81
HETATM   81  C   UNK N   1      34.972  14.665   5.365  0.00  0.00     0.123 C 
BRANCH  81  82
HETATM   82  N   UNK N   1      33.960  15.581   4.872  0.00  0.00    -0.370 N 
HETATM   83  C   UNK N   1      33.379  15.462   3.726  0.00  0.00     0.146 C 
ATOM     84  HN  UNK N   1      33.692  16.365   5.466  1.00  0.00     0.161 HD
BRANCH  83  85
HETATM   85  C   UNK N   1      33.731  14.389   2.793  0.00  0.00     0.019 A 
HETATM   86  C   UNK N   1      34.682  14.571   1.771  0.00  0.00     0.052 A 
HETATM   87  C   UNK N   1      34.947  13.530   0.861  0.00  0.00     0.106 A 
HETATM   88  C   UNK N   1      34.247  12.333   0.989  0.00  0.00     0.073 A 
HETATM   89  C   UNK N   1      33.266  12.194   1.968  0.00  0.00     0.075 A 
HETATM   90  C   UNK N   1      33.008  13.216   2.860  0.00  0.00     0.052 A 
BRANCH  87  91
HETATM   91  N   UNK N   1      35.802  13.724  -0.261  0.00  0.00    -0.116 N 
HETATM   92  O   UNK N   1      36.428  12.806  -0.701  0.00  0.00    -0.532 OA
HETATM   93  O   UNK N   1      35.798  14.763  -0.848  0.00  0.00    -0.532 OA
ENDBRANCH  87  91
BRANCH  89  94
HETATM   94  O   UNK N   1      32.362  11.220   1.860  0.00  0.00    -0.318 OA
BRANCH  94  95
HETATM   95  C   UNK N   1      31.029  11.590   1.995  0.00  0.00     0.298 C 
HETATM   96  C   UNK N   1      30.502  12.337   0.742  0.00  0.00     0.205 C 
HETATM   97  C   UNK N   1      30.560  11.359  -0.439  0.00  0.00     0.183 C 
HETATM   98  C   UNK N   1      29.751  10.099  -0.087  0.00  0.00     0.180 C 
HETATM   99  C   UNK N   1      30.270   9.513   1.253  0.00  0.00     0.179 C 
HETATM  100  O   UNK N   1      30.228  10.469   2.295  0.00  0.00    -0.348 OA
BRANCH  96 101
HETATM  101  O   UNK N   1      29.196  12.777   0.972  0.00  0.00    -0.388 OA
HETATM  102  H   UNK N   1      28.364  13.202   0.715  0.00  0.00     0.210 HD
ENDBRANCH  96 101
BRANCH  97 103
HETATM  103  O   UNK N   1      30.073  11.960  -1.601  0.00  0.00    -0.390 OA
HETATM  104  H   UNK N   1      30.013  11.468  -2.436  0.00  0.00     0.210 HD
ENDBRANCH  97 103
BRANCH  98 105
HETATM  105  O   UNK N   1      28.396  10.425   0.014  0.00  0.00    -0.390 OA
HETATM  106  H   UNK N   1      27.619  10.527   0.588  0.00  0.00     0.210 HD
ENDBRANCH  98 105
BRANCH  99 107
HETATM  107  C   UNK N   1      29.447   8.312   1.703  0.00  0.00     0.198 C 
BRANCH 107 108
HETATM  108  O   UNK N   1      28.681   7.815   0.643  0.00  0.00    -0.398 OA
HETATM  109  H   UNK N   1      27.911   7.422   0.202  0.00  0.00     0.209 HD
ENDBRANCH 107 108
ENDBRANCH  99 107
ENDBRANCH  94  95
ENDBRANCH  89  94
ENDBRANCH  83  85
BRANCH  83 110
HETATM  110  O   UNK N   1      32.352  16.280   3.418  0.00  0.00    -0.346 OA
HETATM  111  H   UNK N   1      31.472  16.596   3.369  0.00  0.00     0.219 HD
ENDBRANCH  83 110
ENDBRANCH  81  82
ENDBRANCH  80  81
ENDBRANCH  79  80
ENDBRANCH  76  79
ENDBRANCH  72  73
ENDBRANCH  71  72
ENDBRANCH  70  71
ENDBRANCH  68  70
ENDBRANCH  63  68
ENDBRANCH  60  62
ENDBRANCH  59  60
ENDBRANCH  58  59
ENDBRANCH  56  58
BRANCH  55 112
HETATM  112  O   UNK N   1      31.411  17.100   6.188  0.00  0.00    -0.327 OA
HETATM  113  H   UNK N   1      30.931  17.056   5.385  0.00  0.00     0.221 HD
ENDBRANCH  55 112
ENDBRANCH  54  55
ENDBRANCH  53  54
ENDBRANCH  52  53
BRANCH  52 114
HETATM  114  N   UNK N   1      27.609  17.262   9.044  0.00  0.00    -0.422 N 
HETATM  115  H   UNK N   1      26.692  16.961   8.714  0.00  0.00     0.150 HD
HETATM  116  H   UNK N   1      27.738  17.271  10.055  0.00  0.00     0.150 HD
ENDBRANCH  52 114
ENDBRANCH  51  52
ENDBRANCH  50  51
ENDBRANCH  46  50
ENDBRANCH  44  45
ENDBRANCH  43  44
ENDBRANCH  41  43
ENDBRANCH  36  41
ENDBRANCH  33  35
ENDBRANCH  32  33
ENDBRANCH  31  32
ENDBRANCH  30  31
ENDBRANCH  27  30
ENDBRANCH  23  24
ENDBRANCH  22  23
ENDBRANCH  21  22
ENDBRANCH  19  21
BRANCH  18 117
HETATM  117  O   UNK N   1      21.924  15.099   0.786  0.00  0.00    -0.346 OA
HETATM  118  H   UNK N   1      21.421  15.583   0.161  0.00  0.00     0.219 HD
ENDBRANCH  18 117
ENDBRANCH  14  18
BRANCH  16 119
HETATM  119  N   UNK N   1      25.155   9.866   0.637  0.00  0.00    -0.116 N 
HETATM  120  O   UNK N   1      24.769   9.306  -0.336  0.00  0.00    -0.532 OA
HETATM  121  O   UNK N   1      26.034   9.372   1.269  0.00  0.00    -0.532 OA
ENDBRANCH  16 119
ENDBRANCH  11  12
ENDBRANCH   5  11
BRANCH   2 122
HETATM  122  O   UNK N   1      28.849  16.411   5.354  0.00  0.00    -0.390 OA
HETATM  123  H   UNK N   1      29.145  17.298   5.098  0.00  0.00     0.210 HD
ENDBRANCH   2 122
BRANCH   1 124
HETATM  124  C   UNK N   1      29.901  13.757   4.534  0.00  0.00     0.198 C 
BRANCH 124 125
HETATM  125  O   UNK N   1      30.519  14.209   5.701  0.00  0.00    -0.398 OA
HETATM  126  H   UNK N   1      31.206  14.340   6.374  0.00  0.00     0.209 HD
ENDBRANCH 124 125
ENDBRANCH   1 124
TORSDOF 54
ENDMDL
MODEL 8
REMARK VINA RESULT:      -7.1      3.788     11.500
REMARK WARNING: 32 MAX_TORS EXCEEDED!!!
REMARK  54 active torsions:
REMARK  status: ('A' for Active; 'I' for Inactive)
REMARK    1  A    between atoms: C_5  and  C_1 
REMARK    2  A    between atoms: C_13  and  C_1 
REMARK    3  A    between atoms: C_6  and  C_2 
REMARK    4  A    between atoms: C_14  and  C_2 
REMARK    5  A    between atoms: C_7  and  C_3 
REMARK    6  A    between atoms: C_15  and  C_3 
REMARK    7  A    between atoms: C_8  and  C_4 
REMARK    8  A    between atoms: C_16  and  C_4 
REMARK    9  A    between atoms: N_65  and  C_5 
REMARK   10  A    between atoms: N_66  and  C_6 
REMARK   11  A    between atoms: N_69  and  C_7 
REMARK   12  A    between atoms: N_71  and  C_8 
REMARK   13  A    between atoms: C_11  and  C_9 
REMARK   14  A    between atoms: N_67  and  C_9 
REMARK   15  A    between atoms: C_12  and  C_10 
REMARK   16  A    between atoms: N_68  and  C_10 
REMARK   17  A    between atoms: N_73  and  C_11 
REMARK   18  A    between atoms: N_75  and  C_12 
REMARK   19  A    between atoms: N_77  and  C_13 
REMARK   20  A    between atoms: N_78  and  C_14 
REMARK   21  A    between atoms: N_79  and  C_15 
REMARK   22  A    between atoms: N_80  and  C_16 
REMARK   23  A    between atoms: C_42  and  C_31 
REMARK   24  A    between atoms: O_83  and  C_31 
REMARK   25  A    between atoms: C_43  and  C_32 
REMARK   26  A    between atoms: O_84  and  C_32 
REMARK   27  A    between atoms: C_37  and  C_33 
REMARK   28  A    between atoms: O_103  and  C_33 
REMARK   29  A    between atoms: C_37  and  C_34 
REMARK   30  A    between atoms: O_104  and  C_34 
REMARK   31  A    between atoms: C_58  and  C_35 
REMARK   32  A    between atoms: C_59  and  C_36 
REMARK   33  A    between atoms: N_64  and  C_37 
REMARK   34  A    between atoms: N_81  and  C_38 
REMARK   35  A    between atoms: N_82  and  C_39 
REMARK   36  A    between atoms: O_105  and  C_40 
REMARK   37  A    between atoms: O_106  and  C_41 
REMARK   38  A    between atoms: N_65  and  C_44 
REMARK   39  A    between atoms: N_66  and  C_45 
REMARK   40  A    between atoms: N_67  and  C_46 
REMARK   41  A    between atoms: N_68  and  C_47 
REMARK   42  A    between atoms: C_48  and  O_85 
REMARK   43  A    between atoms: O_86  and  C_49 
REMARK   44  A    between atoms: C_54  and  O_91 
REMARK   45  A    between atoms: O_92  and  C_55 
REMARK   46  A    between atoms: O_94  and  C_57 
REMARK   47  A    between atoms: O_95  and  C_58 
REMARK   48  A    between atoms: O_96  and  C_59 
REMARK   49  A    between atoms: C_60  and  O_105 
REMARK   50  A    between atoms: O_106  and  C_61 
REMARK   51  A    between atoms: O_97  and  C_62 
REMARK   52  A    between atoms: O_103  and  C_62 
REMARK   53  A    between atoms: O_98  and  C_63 
REMARK   54  A    between atoms: O_104  and  C_63 
ROOT
HETATM    1  C   UNK N   1      30.754  10.892  -1.982  0.00  0.00     0.179 C 
HETATM    2  C   UNK N   1      29.685  11.139  -0.894  0.00  0.00     0.180 C 
HETATM    3  C   UNK N   1      30.187  12.268   0.025  0.00  0.00     0.183 C 
HETATM    4  C   UNK N   1      31.578  11.909   0.567  0.00  0.00     0.205 C 
HETATM    5  C   UNK N   1      32.521  11.550  -0.632  0.00  0.00     0.298 C 
HETATM    6  O   UNK N   1      31.491  10.814   1.430  0.00  0.00    -0.388 OA
HETATM    7  O   UNK N   1      31.982  10.497  -1.396  0.00  0.00    -0.348 OA
HETATM    8  H   UNK N   1      31.561  10.035   2.004  0.00  0.00     0.210 HD
ENDROOT
BRANCH   3   9
HETATM    9  O   UNK N   1      29.289  12.486   1.073  0.00  0.00    -0.390 OA
HETATM   10  H   UNK N   1      29.077  11.845   1.769  0.00  0.00     0.210 HD
ENDBRANCH   3   9
BRANCH   5  11
HETATM   11  O   UNK N   1      32.833  12.625  -1.468  0.00  0.00    -0.318 OA
BRANCH  11  12
HETATM   12  C   UNK N   1      34.116  12.965  -1.566  0.00  0.00     0.075 A 
HETATM   13  C   UNK N   1      34.930  12.776  -0.461  0.00  0.00     0.052 A 
HETATM   14  C   UNK N   1      36.096  13.514  -0.324  0.00  0.00     0.019 A 
HETATM   15  C   UNK N   1      36.395  14.509  -1.277  0.00  0.00     0.052 A 
HETATM   16  C   UNK N   1      35.589  14.647  -2.422  0.00  0.00     0.106 A 
HETATM   17  C   UNK N   1      34.475  13.841  -2.568  0.00  0.00     0.073 A 
BRANCH  14  18
HETATM   18  C   UNK N   1      36.841  13.396   0.928  0.00  0.00     0.146 C 
HETATM   19  N   UNK N   1      36.289  12.850   1.944  0.00  0.00    -0.370 N 
ATOM     20  HN  UNK N   1      35.291  12.635   1.924  1.00  0.00     0.161 HD
BRANCH  19  21
HETATM   21  C   UNK N   1      37.058  12.540   3.109  0.00  0.00     0.123 C 
BRANCH  21  22
HETATM   22  C   UNK N   1      36.530  13.445   4.213  0.00  0.00     0.050 C 
BRANCH  22  23
HETATM   23  C   UNK N   1      37.613  14.110   5.068  0.00  0.00     0.274 C 
BRANCH  23  24
HETATM   24  N   UNK N   1      37.296  14.180   6.493  0.00  0.00     0.091 N 
HETATM   25  C   UNK N   1      35.848  13.936   6.648  0.00  0.00     0.302 C 
HETATM   26  C   UNK N   1      35.450  13.074   7.853  0.00  0.00     0.302 C 
HETATM   27  N   UNK N   1      36.418  13.166   8.935  0.00  0.00     0.091 N 
HETATM   28  C   UNK N   1      37.660  12.584   8.427  0.00  0.00     0.302 C 
HETATM   29  C   UNK N   1      38.270  13.402   7.287  0.00  0.00     0.302 C 
BRANCH  27  30
HETATM   30  C   UNK N   1      36.533  14.572   9.352  0.00  0.00     0.274 C 
BRANCH  30  31
HETATM   31  C   UNK N   1      35.999  14.802  10.747  0.00  0.00     0.050 C 
BRANCH  31  32
HETATM   32  C   UNK N   1      34.552  15.314  10.730  0.00  0.00     0.121 C 
BRANCH  32  33
HETATM   33  N   UNK N   1      34.562  16.727  10.423  0.00  0.00    -0.385 N 
HETATM   34  H   UNK N   1      34.850  17.384  11.097  0.00  0.00     0.159 HD
BRANCH  33  35
HETATM   35  C   UNK N   1      34.153  17.147   9.135  0.00  0.00     0.114 A 
HETATM   36  C   UNK N   1      33.445  16.601   8.119  0.00  0.00     0.114 A 
HETATM   37  C   UNK N   1      33.813  17.700   7.226  0.00  0.00     0.252 A 
HETATM   38  C   UNK N   1      34.562  18.284   8.312  0.00  0.00     0.252 A 
HETATM   39  O   UNK N   1      33.676  17.938   6.039  0.00  0.00    -0.281 OA
HETATM   40  O   UNK N   1      35.325  19.226   8.449  0.00  0.00    -0.281 OA
BRANCH  36  41
HETATM   41  N   UNK N   1      32.744  15.387   7.856  0.00  0.00    -0.383 N 
HETATM   42  H   UNK N   1      33.095  14.566   8.269  0.00  0.00     0.159 HD
BRANCH  41  43
HETATM   43  C   UNK N   1      31.565  15.261   7.037  0.00  0.00     0.139 C 
BRANCH  43  44
HETATM   44  C   UNK N   1      31.855  14.545   5.753  0.00  0.00     0.143 C 
BRANCH  44  45
HETATM   45  N   UNK N   1      30.873  13.548   5.424  0.00  0.00    -0.349 N 
HETATM   46  C   UNK N   1      30.580  13.283   4.198  0.00  0.00     0.258 C 
ATOM     47  HN  UNK N   1      30.400  13.043   6.174  1.00  0.00     0.163 HD
BRANCH  46  48
HETATM   48  O   UNK N   1      31.102  14.006   3.196  0.00  0.00    -0.327 OA
HETATM   49  H   UNK N   1      30.647  14.090   2.382  0.00  0.00     0.221 HD
ENDBRANCH  46  48
BRANCH  46  50
HETATM   50  O   UNK N   1      30.018  12.096   3.914  0.00  0.00    -0.315 OA
BRANCH  50  51
HETATM   51  C   UNK N   1      28.801  11.807   4.513  0.00  0.00     0.206 C 
BRANCH  51  52
HETATM   52  C   UNK N   1      28.355  10.356   4.169  0.00  0.00     0.123 C 
BRANCH  52  53
HETATM   53  C   UNK N   1      26.834  10.147   4.306  0.00  0.00     0.206 C 
BRANCH  53  54
HETATM   54  O   UNK N   1      26.224  11.219   4.938  0.00  0.00    -0.315 OA
BRANCH  54  55
HETATM   55  C   UNK N   1      24.944  11.329   5.392  0.00  0.00     0.258 C 
HETATM   56  N   UNK N   1      24.552  12.255   6.209  0.00  0.00    -0.349 N 
ATOM     57  HN  UNK N   1      23.565  12.262   6.468  1.00  0.00     0.163 HD
BRANCH  56  58
HETATM   58  C   UNK N   1      25.398  13.277   6.785  0.00  0.00     0.143 C 
BRANCH  58  59
HETATM   59  C   UNK N   1      24.991  13.570   8.229  0.00  0.00     0.139 C 
BRANCH  59  60
HETATM   60  N   UNK N   1      24.437  12.381   8.808  0.00  0.00    -0.383 N 
HETATM   61  H   UNK N   1      24.916  11.524   8.718  0.00  0.00     0.159 HD
BRANCH  60  62
HETATM   62  C   UNK N   1      23.213  12.431   9.505  0.00  0.00     0.114 A 
HETATM   63  C   UNK N   1      21.981  12.731   9.080  0.00  0.00     0.114 A 
HETATM   64  C   UNK N   1      21.411  12.556  10.415  0.00  0.00     0.252 A 
HETATM   65  C   UNK N   1      22.749  12.231  10.884  0.00  0.00     0.252 A 
HETATM   66  O   UNK N   1      20.308  12.687  10.918  0.00  0.00    -0.281 OA
HETATM   67  O   UNK N   1      23.263  12.002  11.966  0.00  0.00    -0.281 OA
BRANCH  63  68
HETATM   68  N   UNK N   1      21.455  13.098   7.818  0.00  0.00    -0.385 N 
HETATM   69  H   UNK N   1      21.547  12.472   7.063  0.00  0.00     0.159 HD
BRANCH  68  70
HETATM   70  C   UNK N   1      20.789  14.360   7.600  0.00  0.00     0.121 C 
BRANCH  70  71
HETATM   71  C   UNK N   1      21.778  15.511   7.392  0.00  0.00     0.050 C 
BRANCH  71  72
HETATM   72  C   UNK N   1      21.158  16.839   6.929  0.00  0.00     0.274 C 
BRANCH  72  73
HETATM   73  N   UNK N   1      20.946  16.886   5.480  0.00  0.00     0.091 N 
HETATM   74  C   UNK N   1      20.678  18.258   5.049  0.00  0.00     0.302 C 
HETATM   75  C   UNK N   1      20.313  18.258   3.564  0.00  0.00     0.302 C 
HETATM   76  N   UNK N   1      21.154  17.358   2.763  0.00  0.00     0.091 N 
HETATM   77  C   UNK N   1      22.405  16.981   3.437  0.00  0.00     0.302 C 
HETATM   78  C   UNK N   1      22.171  16.390   4.843  0.00  0.00     0.302 C 
BRANCH  76  79
HETATM   79  C   UNK N   1      20.389  16.161   2.439  0.00  0.00     0.274 C 
BRANCH  79  80
HETATM   80  C   UNK N   1      20.945  15.504   1.192  0.00  0.00     0.050 C 
BRANCH  80  81
HETATM   81  C   UNK N   1      20.924  13.984   1.310  0.00  0.00     0.123 C 
BRANCH  81  82
HETATM   82  N   UNK N   1      20.944  13.514   2.683  0.00  0.00    -0.370 N 
HETATM   83  C   UNK N   1      22.013  13.137   3.298  0.00  0.00     0.146 C 
ATOM     84  HN  UNK N   1      20.061  13.481   3.192  1.00  0.00     0.161 HD
BRANCH  83  85
HETATM   85  C   UNK N   1      23.318  13.114   2.632  0.00  0.00     0.019 A 
HETATM   86  C   UNK N   1      23.837  11.944   2.047  0.00  0.00     0.052 A 
HETATM   87  C   UNK N   1      25.119  11.954   1.467  0.00  0.00     0.106 A 
HETATM   88  C   UNK N   1      25.857  13.135   1.494  0.00  0.00     0.073 A 
HETATM   89  C   UNK N   1      25.352  14.266   2.131  0.00  0.00     0.075 A 
HETATM   90  C   UNK N   1      24.093  14.253   2.699  0.00  0.00     0.052 A 
BRANCH  87  91
HETATM   91  N   UNK N   1      25.729  10.760   0.987  0.00  0.00    -0.116 N 
HETATM   92  O   UNK N   1      26.910  10.720   0.813  0.00  0.00    -0.532 OA
HETATM   93  O   UNK N   1      25.088   9.758   0.883  0.00  0.00    -0.532 OA
ENDBRANCH  87  91
BRANCH  89  94
HETATM   94  O   UNK N   1      26.180  15.252   2.477  0.00  0.00    -0.318 OA
BRANCH  94  95
HETATM   95  C   UNK N   1      26.449  15.394   3.833  0.00  0.00     0.298 C 
HETATM   96  C   UNK N   1      27.972  15.413   4.125  0.00  0.00     0.205 C 
HETATM   97  C   UNK N   1      28.559  16.654   3.437  0.00  0.00     0.183 C 
HETATM   98  C   UNK N   1      27.820  17.904   3.940  0.00  0.00     0.180 C 
HETATM   99  C   UNK N   1      26.294  17.719   3.726  0.00  0.00     0.179 C 
HETATM  100  O   UNK N   1      25.815  16.542   4.350  0.00  0.00    -0.348 OA
BRANCH  96 101
HETATM  101  O   UNK N   1      28.186  15.450   5.505  0.00  0.00    -0.388 OA
HETATM  102  H   UNK N   1      27.946  15.677   6.416  0.00  0.00     0.210 HD
ENDBRANCH  96 101
BRANCH  97 103
HETATM  103  O   UNK N   1      29.931  16.749   3.682  0.00  0.00    -0.390 OA
HETATM  104  H   UNK N   1      30.571  16.790   2.954  0.00  0.00     0.210 HD
ENDBRANCH  97 103
BRANCH  98 105
HETATM  105  O   UNK N   1      28.102  18.103   5.295  0.00  0.00    -0.390 OA
HETATM  106  H   UNK N   1      27.760  18.175   6.200  0.00  0.00     0.210 HD
ENDBRANCH  98 105
BRANCH  99 107
HETATM  107  C   UNK N   1      25.496  18.889   4.289  0.00  0.00     0.198 C 
BRANCH 107 108
HETATM  108  O   UNK N   1      25.549  18.894   5.687  0.00  0.00    -0.398 OA
HETATM  109  H   UNK N   1      25.555  18.523   6.584  0.00  0.00     0.209 HD
ENDBRANCH 107 108
ENDBRANCH  99 107
ENDBRANCH  94  95
ENDBRANCH  89  94
ENDBRANCH  83  85
BRANCH  83 110
HETATM  110  O   UNK N   1      21.952  12.851   4.615  0.00  0.00    -0.346 OA
HETATM  111  H   UNK N   1      22.230  12.550   5.457  0.00  0.00     0.219 HD
ENDBRANCH  83 110
ENDBRANCH  81  82
ENDBRANCH  80  81
ENDBRANCH  79  80
ENDBRANCH  76  79
ENDBRANCH  72  73
ENDBRANCH  71  72
ENDBRANCH  70  71
ENDBRANCH  68  70
ENDBRANCH  63  68
ENDBRANCH  60  62
ENDBRANCH  59  60
ENDBRANCH  58  59
ENDBRANCH  56  58
BRANCH  55 112
HETATM  112  O   UNK N   1      24.044  10.426   4.961  0.00  0.00    -0.327 OA
HETATM  113  H   UNK N   1      23.511   9.672   4.802  0.00  0.00     0.221 HD
ENDBRANCH  55 112
ENDBRANCH  54  55
ENDBRANCH  53  54
ENDBRANCH  52  53
BRANCH  52 114
HETATM  114  N   UNK N   1      28.806   9.983   2.842  0.00  0.00    -0.422 N 
HETATM  115  H   UNK N   1      29.705  10.184   2.403  0.00  0.00     0.150 HD
HETATM  116  H   UNK N   1      28.142   9.454   2.277  0.00  0.00     0.150 HD
ENDBRANCH  52 114
ENDBRANCH  51  52
ENDBRANCH  50  51
ENDBRANCH  46  50
ENDBRANCH  44  45
ENDBRANCH  43  44
ENDBRANCH  41  43
ENDBRANCH  36  41
ENDBRANCH  33  35
ENDBRANCH  32  33
ENDBRANCH  31  32
ENDBRANCH  30  31
ENDBRANCH  27  30
ENDBRANCH  23  24
ENDBRANCH  22  23
ENDBRANCH  21  22
ENDBRANCH  19  21
BRANCH  18 117
HETATM  117  O   UNK N   1      38.146  13.754   0.969  0.00  0.00    -0.346 OA
HETATM  118  H   UNK N   1      38.618  13.931   0.179  0.00  0.00     0.219 HD
ENDBRANCH  18 117
ENDBRANCH  14  18
BRANCH  16 119
HETATM  119  N   UNK N   1      35.709  15.751  -3.296  0.00  0.00    -0.116 N 
HETATM  120  O   UNK N   1      34.803  16.508  -3.421  0.00  0.00    -0.532 OA
HETATM  121  O   UNK N   1      36.800  16.110  -3.607  0.00  0.00    -0.532 OA
ENDBRANCH  16 119
ENDBRANCH  11  12
ENDBRANCH   5  11
BRANCH   2 122
HETATM  122  O   UNK N   1      29.468   9.971  -0.153  0.00  0.00    -0.390 OA
HETATM  123  H   UNK N   1      29.502   9.066   0.193  0.00  0.00     0.210 HD
ENDBRANCH   2 122
BRANCH   1 124
HETATM  124  C   UNK N   1      30.344   9.828  -2.988  0.00  0.00     0.198 C 
BRANCH 124 125
HETATM  125  O   UNK N   1      29.685  10.402  -4.078  0.00  0.00    -0.398 OA
HETATM  126  H   UNK N   1      29.251  10.474  -4.942  0.00  0.00     0.209 HD
ENDBRANCH 124 125
ENDBRANCH   1 124
TORSDOF 54
ENDMDL
MODEL 9
REMARK VINA RESULT:      -7.0      3.991      9.511
REMARK WARNING: 32 MAX_TORS EXCEEDED!!!
REMARK  54 active torsions:
REMARK  status: ('A' for Active; 'I' for Inactive)
REMARK    1  A    between atoms: C_5  and  C_1 
REMARK    2  A    between atoms: C_13  and  C_1 
REMARK    3  A    between atoms: C_6  and  C_2 
REMARK    4  A    between atoms: C_14  and  C_2 
REMARK    5  A    between atoms: C_7  and  C_3 
REMARK    6  A    between atoms: C_15  and  C_3 
REMARK    7  A    between atoms: C_8  and  C_4 
REMARK    8  A    between atoms: C_16  and  C_4 
REMARK    9  A    between atoms: N_65  and  C_5 
REMARK   10  A    between atoms: N_66  and  C_6 
REMARK   11  A    between atoms: N_69  and  C_7 
REMARK   12  A    between atoms: N_71  and  C_8 
REMARK   13  A    between atoms: C_11  and  C_9 
REMARK   14  A    between atoms: N_67  and  C_9 
REMARK   15  A    between atoms: C_12  and  C_10 
REMARK   16  A    between atoms: N_68  and  C_10 
REMARK   17  A    between atoms: N_73  and  C_11 
REMARK   18  A    between atoms: N_75  and  C_12 
REMARK   19  A    between atoms: N_77  and  C_13 
REMARK   20  A    between atoms: N_78  and  C_14 
REMARK   21  A    between atoms: N_79  and  C_15 
REMARK   22  A    between atoms: N_80  and  C_16 
REMARK   23  A    between atoms: C_42  and  C_31 
REMARK   24  A    between atoms: O_83  and  C_31 
REMARK   25  A    between atoms: C_43  and  C_32 
REMARK   26  A    between atoms: O_84  and  C_32 
REMARK   27  A    between atoms: C_37  and  C_33 
REMARK   28  A    between atoms: O_103  and  C_33 
REMARK   29  A    between atoms: C_37  and  C_34 
REMARK   30  A    between atoms: O_104  and  C_34 
REMARK   31  A    between atoms: C_58  and  C_35 
REMARK   32  A    between atoms: C_59  and  C_36 
REMARK   33  A    between atoms: N_64  and  C_37 
REMARK   34  A    between atoms: N_81  and  C_38 
REMARK   35  A    between atoms: N_82  and  C_39 
REMARK   36  A    between atoms: O_105  and  C_40 
REMARK   37  A    between atoms: O_106  and  C_41 
REMARK   38  A    between atoms: N_65  and  C_44 
REMARK   39  A    between atoms: N_66  and  C_45 
REMARK   40  A    between atoms: N_67  and  C_46 
REMARK   41  A    between atoms: N_68  and  C_47 
REMARK   42  A    between atoms: C_48  and  O_85 
REMARK   43  A    between atoms: O_86  and  C_49 
REMARK   44  A    between atoms: C_54  and  O_91 
REMARK   45  A    between atoms: O_92  and  C_55 
REMARK   46  A    between atoms: O_94  and  C_57 
REMARK   47  A    between atoms: O_95  and  C_58 
REMARK   48  A    between atoms: O_96  and  C_59 
REMARK   49  A    between atoms: C_60  and  O_105 
REMARK   50  A    between atoms: O_106  and  C_61 
REMARK   51  A    between atoms: O_97  and  C_62 
REMARK   52  A    between atoms: O_103  and  C_62 
REMARK   53  A    between atoms: O_98  and  C_63 
REMARK   54  A    between atoms: O_104  and  C_63 
ROOT
HETATM    1  C   UNK N   1      33.590  14.783   4.918  0.00  0.00     0.179 C 
HETATM    2  C   UNK N   1      34.635  14.883   6.051  0.00  0.00     0.180 C 
HETATM    3  C   UNK N   1      33.943  15.477   7.291  0.00  0.00     0.183 C 
HETATM    4  C   UNK N   1      33.275  16.809   6.919  0.00  0.00     0.205 C 
HETATM    5  C   UNK N   1      32.350  16.590   5.674  0.00  0.00     0.298 C 
HETATM    6  O   UNK N   1      34.246  17.764   6.611  0.00  0.00    -0.388 OA
HETATM    7  O   UNK N   1      33.081  16.064   4.591  0.00  0.00    -0.348 OA
HETATM    8  H   UNK N   1      34.823  18.492   6.329  0.00  0.00     0.210 HD
ENDROOT
BRANCH   3   9
HETATM    9  O   UNK N   1      34.861  15.657   8.330  0.00  0.00    -0.390 OA
HETATM   10  H   UNK N   1      35.806  15.841   8.212  0.00  0.00     0.210 HD
ENDBRANCH   3   9
BRANCH   5  11
HETATM   11  O   UNK N   1      31.229  15.791   5.916  0.00  0.00    -0.318 OA
BRANCH  11  12
HETATM   12  C   UNK N   1      30.102  16.415   6.253  0.00  0.00     0.075 A 
HETATM   13  C   UNK N   1      29.472  17.193   5.297  0.00  0.00     0.052 A 
HETATM   14  C   UNK N   1      28.612  18.209   5.686  0.00  0.00     0.019 A 
HETATM   15  C   UNK N   1      28.455  18.488   7.059  0.00  0.00     0.052 A 
HETATM   16  C   UNK N   1      29.056  17.651   8.017  0.00  0.00     0.106 A 
HETATM   17  C   UNK N   1      29.846  16.597   7.596  0.00  0.00     0.073 A 
BRANCH  14  18
HETATM   18  C   UNK N   1      28.092  19.103   4.653  0.00  0.00     0.146 C 
HETATM   19  N   UNK N   1      26.918  18.913   4.183  0.00  0.00    -0.370 N 
ATOM     20  HN  UNK N   1      26.409  18.061   4.420  1.00  0.00     0.161 HD
BRANCH  19  21
HETATM   21  C   UNK N   1      26.312  19.886   3.327  0.00  0.00     0.123 C 
BRANCH  21  22
HETATM   22  C   UNK N   1      24.983  20.245   3.977  0.00  0.00     0.050 C 
BRANCH  22  23
HETATM   23  C   UNK N   1      23.971  20.909   3.038  0.00  0.00     0.274 C 
BRANCH  23  24
HETATM   24  N   UNK N   1      22.837  20.060   2.678  0.00  0.00     0.091 N 
HETATM   25  C   UNK N   1      22.706  19.015   3.713  0.00  0.00     0.302 C 
HETATM   26  C   UNK N   1      21.268  18.664   4.117  0.00  0.00     0.302 C 
HETATM   27  N   UNK N   1      20.320  18.922   3.045  0.00  0.00     0.091 N 
HETATM   28  C   UNK N   1      20.327  20.369   2.829  0.00  0.00     0.302 C 
HETATM   29  C   UNK N   1      21.668  20.879   2.297  0.00  0.00     0.302 C 
BRANCH  27  30
HETATM   30  C   UNK N   1      20.708  18.131   1.866  0.00  0.00     0.274 C 
BRANCH  30  31
HETATM   31  C   UNK N   1      19.710  17.041   1.555  0.00  0.00     0.050 C 
BRANCH  31  32
HETATM   32  C   UNK N   1      20.021  15.744   2.316  0.00  0.00     0.121 C 
BRANCH  32  33
HETATM   33  N   UNK N   1      19.238  15.719   3.531  0.00  0.00    -0.385 N 
HETATM   34  H   UNK N   1      18.522  16.379   3.680  0.00  0.00     0.159 HD
BRANCH  33  35
HETATM   35  C   UNK N   1      19.518  14.729   4.502  0.00  0.00     0.114 A 
HETATM   36  C   UNK N   1      20.472  14.540   5.444  0.00  0.00     0.114 A 
HETATM   37  C   UNK N   1      20.008  13.174   5.690  0.00  0.00     0.252 A 
HETATM   38  C   UNK N   1      18.987  13.380   4.690  0.00  0.00     0.252 A 
HETATM   39  O   UNK N   1      20.406  12.225   6.342  0.00  0.00    -0.281 OA
HETATM   40  O   UNK N   1      18.148  12.691   4.134  0.00  0.00    -0.281 OA
BRANCH  36  41
HETATM   41  N   UNK N   1      21.612  15.236   5.944  0.00  0.00    -0.383 N 
HETATM   42  H   UNK N   1      22.496  14.929   5.638  0.00  0.00     0.159 HD
BRANCH  41  43
HETATM   43  C   UNK N   1      21.579  16.349   6.858  0.00  0.00     0.139 C 
BRANCH  43  44
HETATM   44  C   UNK N   1      20.738  16.054   8.062  0.00  0.00     0.143 C 
BRANCH  44  45
HETATM   45  N   UNK N   1      21.167  14.887   8.784  0.00  0.00    -0.349 N 
HETATM   46  C   UNK N   1      20.334  14.187   9.472  0.00  0.00     0.258 C 
ATOM     47  HN  UNK N   1      22.148  14.609   8.749  1.00  0.00     0.163 HD
BRANCH  46  48
HETATM   48  O   UNK N   1      19.063  14.589   9.626  0.00  0.00    -0.327 OA
HETATM   49  H   UNK N   1      18.358  14.091   9.263  0.00  0.00     0.221 HD
ENDBRANCH  46  48
BRANCH  46  50
HETATM   50  O   UNK N   1      20.647  12.912   9.758  0.00  0.00    -0.315 OA
BRANCH  50  51
HETATM   51  C   UNK N   1      21.254  12.663  10.980  0.00  0.00     0.206 C 
BRANCH  51  52
HETATM   52  C   UNK N   1      22.589  11.890  10.780  0.00  0.00     0.123 C 
BRANCH  52  53
HETATM   53  C   UNK N   1      23.745  12.796  10.312  0.00  0.00     0.206 C 
BRANCH  53  54
HETATM   54  O   UNK N   1      23.610  13.150   8.979  0.00  0.00    -0.315 OA
BRANCH  54  55
HETATM   55  C   UNK N   1      24.411  12.828   7.925  0.00  0.00     0.258 C 
HETATM   56  N   UNK N   1      24.207  11.804   7.157  0.00  0.00    -0.349 N 
ATOM     57  HN  UNK N   1      24.853  11.666   6.380  1.00  0.00     0.163 HD
BRANCH  56  58
HETATM   58  C   UNK N   1      23.139  10.841   7.313  0.00  0.00     0.143 C 
BRANCH  58  59
HETATM   59  C   UNK N   1      23.386   9.611   6.440  0.00  0.00     0.139 C 
BRANCH  59  60
HETATM   60  N   UNK N   1      24.792   9.337   6.406  0.00  0.00    -0.383 N 
HETATM   61  H   UNK N   1      25.370   9.653   7.139  0.00  0.00     0.159 HD
BRANCH  60  62
HETATM   62  C   UNK N   1      25.353   8.619   5.330  0.00  0.00     0.114 A 
HETATM   63  C   UNK N   1      24.935   7.508   4.714  0.00  0.00     0.114 A 
HETATM   64  C   UNK N   1      26.085   7.503   3.811  0.00  0.00     0.252 A 
HETATM   65  C   UNK N   1      26.545   8.710   4.478  0.00  0.00     0.252 A 
HETATM   66  O   UNK N   1      26.499   6.770   2.928  0.00  0.00    -0.281 OA
HETATM   67  O   UNK N   1      27.539   9.415   4.420  0.00  0.00    -0.281 OA
BRANCH  63  68
HETATM   68  N   UNK N   1      23.815   6.662   4.898  0.00  0.00    -0.385 N 
HETATM   69  H   UNK N   1      23.857   5.959   5.586  0.00  0.00     0.159 HD
BRANCH  68  70
HETATM   70  C   UNK N   1      22.612   6.796   4.111  0.00  0.00     0.121 C 
BRANCH  70  71
HETATM   71  C   UNK N   1      21.357   6.396   4.894  0.00  0.00     0.050 C 
BRANCH  71  72
HETATM   72  C   UNK N   1      20.368   5.495   4.139  0.00  0.00     0.274 C 
BRANCH  72  73
HETATM   73  N   UNK N   1      19.866   6.115   2.911  0.00  0.00     0.091 N 
HETATM   74  C   UNK N   1      19.517   5.088   1.928  0.00  0.00     0.302 C 
HETATM   75  C   UNK N   1      19.140   5.761   0.607  0.00  0.00     0.302 C 
HETATM   76  N   UNK N   1      18.308   6.959   0.787  0.00  0.00     0.091 N 
HETATM   77  C   UNK N   1      17.666   7.026   2.108  0.00  0.00     0.302 C 
HETATM   78  C   UNK N   1      18.674   6.892   3.269  0.00  0.00     0.302 C 
BRANCH  76  79
HETATM   79  C   UNK N   1      19.132   8.142   0.580  0.00  0.00     0.274 C 
BRANCH  79  80
HETATM   80  C   UNK N   1      18.262   9.382   0.510  0.00  0.00     0.050 C 
BRANCH  80  81
HETATM   81  C   UNK N   1      18.846  10.515   1.345  0.00  0.00     0.123 C 
BRANCH  81  82
HETATM   82  N   UNK N   1      19.214  10.108   2.689  0.00  0.00    -0.370 N 
HETATM   83  C   UNK N   1      20.404  10.222   3.174  0.00  0.00     0.146 C 
ATOM     84  HN  UNK N   1      18.489   9.709   3.285  1.00  0.00     0.161 HD
BRANCH  83  85
HETATM   85  C   UNK N   1      21.514  10.746   2.374  0.00  0.00     0.019 A 
HETATM   86  C   UNK N   1      22.050  10.035   1.284  0.00  0.00     0.052 A 
HETATM   87  C   UNK N   1      23.154  10.551   0.580  0.00  0.00     0.106 A 
HETATM   88  C   UNK N   1      23.702  11.765   0.988  0.00  0.00     0.073 A 
HETATM   89  C   UNK N   1      23.197  12.423   2.107  0.00  0.00     0.075 A 
HETATM   90  C   UNK N   1      22.113  11.915   2.796  0.00  0.00     0.052 A 
BRANCH  87  91
HETATM   91  N   UNK N   1      23.803   9.798  -0.440  0.00  0.00    -0.116 N 
HETATM   92  O   UNK N   1      23.417   9.863  -1.569  0.00  0.00    -0.532 OA
HETATM   93  O   UNK N   1      24.811   9.205  -0.200  0.00  0.00    -0.532 OA
ENDBRANCH  87  91
BRANCH  89  94
HETATM   94  O   UNK N   1      23.931  13.360   2.706  0.00  0.00    -0.318 OA
BRANCH  94  95
HETATM   95  C   UNK N   1      24.418  13.055   3.972  0.00  0.00     0.298 C 
HETATM   96  C   UNK N   1      25.860  12.486   3.920  0.00  0.00     0.205 C 
HETATM   97  C   UNK N   1      26.772  13.586   3.361  0.00  0.00     0.183 C 
HETATM   98  C   UNK N   1      26.638  14.843   4.236  0.00  0.00     0.180 C 
HETATM   99  C   UNK N   1      25.141  15.243   4.334  0.00  0.00     0.179 C 
HETATM  100  O   UNK N   1      24.344  14.179   4.819  0.00  0.00    -0.348 OA
BRANCH  96 101
HETATM  101  O   UNK N   1      26.260  12.099   5.201  0.00  0.00    -0.388 OA
HETATM  102  H   UNK N   1      26.254  12.157   6.168  0.00  0.00     0.210 HD
ENDBRANCH  96 101
BRANCH  97 103
HETATM  103  O   UNK N   1      28.097  13.149   3.310  0.00  0.00    -0.390 OA
HETATM  104  H   UNK N   1      28.550  13.011   2.463  0.00  0.00     0.210 HD
ENDBRANCH  97 103
BRANCH  98 105
HETATM  105  O   UNK N   1      27.158  14.586   5.508  0.00  0.00    -0.390 OA
HETATM  106  H   UNK N   1      27.431  13.923   6.162  0.00  0.00     0.210 HD
ENDBRANCH  98 105
BRANCH  99 107
HETATM  107  C   UNK N   1      24.931  16.431   5.265  0.00  0.00     0.198 C 
BRANCH 107 108
HETATM  108  O   UNK N   1      24.801  16.001   6.590  0.00  0.00    -0.398 OA
HETATM  109  H   UNK N   1      24.613  15.386   7.317  0.00  0.00     0.209 HD
ENDBRANCH 107 108
ENDBRANCH  99 107
ENDBRANCH  94  95
ENDBRANCH  89  94
ENDBRANCH  83  85
BRANCH  83 110
HETATM  110  O   UNK N   1      20.615   9.948   4.477  0.00  0.00    -0.346 OA
HETATM  111  H   UNK N   1      20.579   9.482   5.289  0.00  0.00     0.219 HD
ENDBRANCH  83 110
ENDBRANCH  81  82
ENDBRANCH  80  81
ENDBRANCH  79  80
ENDBRANCH  76  79
ENDBRANCH  72  73
ENDBRANCH  71  72
ENDBRANCH  70  71
ENDBRANCH  68  70
ENDBRANCH  63  68
ENDBRANCH  60  62
ENDBRANCH  59  60
ENDBRANCH  58  59
ENDBRANCH  56  58
BRANCH  55 112
HETATM  112  O   UNK N   1      25.468  13.623   7.671  0.00  0.00    -0.327 OA
HETATM  113  H   UNK N   1      26.215  14.187   7.705  0.00  0.00     0.221 HD
ENDBRANCH  55 112
ENDBRANCH  54  55
ENDBRANCH  53  54
ENDBRANCH  52  53
BRANCH  52 114
HETATM  114  N   UNK N   1      22.953  11.178  11.991  0.00  0.00    -0.422 N 
HETATM  115  H   UNK N   1      23.352  10.243  12.076  0.00  0.00     0.150 HD
HETATM  116  H   UNK N   1      22.792  11.675  12.867  0.00  0.00     0.150 HD
ENDBRANCH  52 114
ENDBRANCH  51  52
ENDBRANCH  50  51
ENDBRANCH  46  50
ENDBRANCH  44  45
ENDBRANCH  43  44
ENDBRANCH  41  43
ENDBRANCH  36  41
ENDBRANCH  33  35
ENDBRANCH  32  33
ENDBRANCH  31  32
ENDBRANCH  30  31
ENDBRANCH  27  30
ENDBRANCH  23  24
ENDBRANCH  22  23
ENDBRANCH  21  22
ENDBRANCH  19  21
BRANCH  18 117
HETATM  117  O   UNK N   1      28.807  20.193   4.287  0.00  0.00    -0.346 OA
HETATM  118  H   UNK N   1      29.711  20.115   4.052  0.00  0.00     0.219 HD
ENDBRANCH  18 117
ENDBRANCH  14  18
BRANCH  16 119
HETATM  119  N   UNK N   1      29.113  17.996   9.386  0.00  0.00    -0.116 N 
HETATM  120  O   UNK N   1      28.645  17.270  10.200  0.00  0.00    -0.532 OA
HETATM  121  O   UNK N   1      29.921  18.798   9.733  0.00  0.00    -0.532 OA
ENDBRANCH  16 119
ENDBRANCH  11  12
ENDBRANCH   5  11
BRANCH   2 122
HETATM  122  O   UNK N   1      35.703  15.698   5.655  0.00  0.00    -0.390 OA
HETATM  123  H   UNK N   1      36.278  16.317   5.180  0.00  0.00     0.210 HD
ENDBRANCH   2 122
BRANCH   1 124
HETATM  124  C   UNK N   1      34.147  14.156   3.649  0.00  0.00     0.198 C 
BRANCH 124 125
HETATM  125  O   UNK N   1      33.590  14.750   2.515  0.00  0.00    -0.398 OA
HETATM  126  H   UNK N   1      33.525  15.286   1.709  0.00  0.00     0.209 HD
ENDBRANCH 124 125
ENDBRANCH   1 124
TORSDOF 54
ENDMDL
