MODEL 1
REMARK VINA RESULT:      -6.7      0.000      0.000
REMARK  15 active torsions:
REMARK  status: ('A' for Active; 'I' for Inactive)
REMARK    1  A    between atoms: C_4  and  C_5 
REMARK    2  A    between atoms: C_5  and  C_6 
REMARK    3  A    between atoms: C_6  and  C_7 
REMARK    4  A    between atoms: C_9  and  C_10 
REMARK    5  A    between atoms: C_10  and  C_11 
REMARK    6  A    between atoms: C_11  and  C_12 
REMARK    7  A    between atoms: C_12  and  C_24 
REMARK    8  A    between atoms: C_13  and  C_14 
REMARK    9  A    between atoms: C_14  and  O_15 
REMARK   10  A    between atoms: P_16  and  O_15 
REMARK   11  A    between atoms: P_16  and  O_17 
REMARK   12  A    between atoms: P_16  and  O_19 
REMARK   13  A    between atoms: O_19  and  P_20 
REMARK   14  A    between atoms: P_20  and  O_21 
REMARK   15  A    between atoms: P_20  and  O_22 
ROOT
HETATM    1  C   UNK N   1      36.517  12.566  12.871  0.00  0.00     0.024 C 
HETATM    2  C   UNK N   1      36.006  12.627  11.627  0.00  0.00     0.011 C 
ENDROOT
BRANCH   1   3
HETATM    3  C   UNK N   1      37.308  11.339  13.223  0.00  0.00     0.047 C 
BRANCH   3   4
HETATM    4  C   UNK N   1      36.388  10.134  13.295  0.00  0.00     0.032 C 
BRANCH   4   5
HETATM    5  C   UNK N   1      36.039   9.809  14.713  0.00  0.00    -0.024 C 
HETATM    6  C   UNK N   1      34.826  10.060  15.223  0.00  0.00    -0.087 C 
HETATM    7  C   UNK N   1      33.742  10.652  14.364  0.00  0.00     0.043 C 
BRANCH   6   8
HETATM    8  C   UNK N   1      34.585   9.755  16.675  0.00  0.00     0.037 C 
BRANCH   8   9
HETATM    9  C   UNK N   1      35.517  10.517  17.604  0.00  0.00     0.031 C 
BRANCH   9  10
HETATM   10  C   UNK N   1      35.412  11.985  17.341  0.00  0.00    -0.024 C 
HETATM   11  C   UNK N   1      35.302  12.882  18.328  0.00  0.00    -0.091 C 
HETATM   12  C   UNK N   1      35.186  14.327  17.986  0.00  0.00     0.042 C 
HETATM   13  C   UNK N   1      35.277  12.470  19.765  0.00  0.00     0.042 C 
ENDBRANCH   9  10
ENDBRANCH   8   9
ENDBRANCH   6   8
ENDBRANCH   4   5
ENDBRANCH   3   4
ENDBRANCH   1   3
BRANCH   1  14
HETATM   14  C   UNK N   1      36.358  13.637  13.942  0.00  0.00     0.413 C 
HETATM   15  F   UNK N   1      35.059  13.646  14.412  0.00  0.00    -0.166 F 
HETATM   16  F   UNK N   1      37.186  13.463  15.025  0.00  0.00    -0.166 F 
HETATM   17  F   UNK N   1      36.636  14.870  13.383  0.00  0.00    -0.166 F 
ENDBRANCH   1  14
BRANCH   2  18
HETATM   18  C   UNK N   1      35.221  13.754  11.013  0.00  0.00     0.208 C 
BRANCH  18  19
HETATM   19  O   UNK N   1      34.470  13.333   9.912  0.00  0.00    -0.293 OA
BRANCH  19  20
HETATM   20  P   UNK N   1      33.701  14.766   9.261  0.00  0.00     0.402 P 
HETATM   21  O   UNK N   1      32.974  14.383   7.936  0.00  0.00    -0.631 OA
BRANCH  20  22
HETATM   22  O   UNK N   1      32.493  15.369  10.352  0.00  0.00    -0.307 OA
HETATM   23  H   UNK N   1      31.736  15.869  10.009  0.00  0.00     0.222 HD
ENDBRANCH  20  22
BRANCH  20  24
HETATM   24  O   UNK N   1      34.914  15.988   8.932  0.00  0.00    -0.195 OA
BRANCH  24  25
HETATM   25  P   UNK N   1      34.094  17.502   8.652  0.00  0.00     0.399 P 
HETATM   26  O   UNK N   1      34.757  17.218   7.277  0.00  0.00    -0.631 OA
BRANCH  25  27
HETATM   27  O   UNK N   1      35.004  18.949   8.358  0.00  0.00    -0.307 OA
HETATM   28  H   UNK N   1      34.729  19.822   8.682  0.00  0.00     0.222 HD
ENDBRANCH  25  27
BRANCH  25  29
HETATM   29  O   UNK N   1      35.315  17.708   9.868  0.00  0.00    -0.307 OA
HETATM   30  H   UNK N   1      35.307  17.759  10.837  0.00  0.00     0.222 HD
ENDBRANCH  25  29
ENDBRANCH  24  25
ENDBRANCH  20  24
ENDBRANCH  19  20
ENDBRANCH  18  19
ENDBRANCH   2  18
TORSDOF 15
ENDMDL
MODEL 2
REMARK VINA RESULT:      -6.4     12.771     15.232
REMARK  15 active torsions:
REMARK  status: ('A' for Active; 'I' for Inactive)
REMARK    1  A    between atoms: C_4  and  C_5 
REMARK    2  A    between atoms: C_5  and  C_6 
REMARK    3  A    between atoms: C_6  and  C_7 
REMARK    4  A    between atoms: C_9  and  C_10 
REMARK    5  A    between atoms: C_10  and  C_11 
REMARK    6  A    between atoms: C_11  and  C_12 
REMARK    7  A    between atoms: C_12  and  C_24 
REMARK    8  A    between atoms: C_13  and  C_14 
REMARK    9  A    between atoms: C_14  and  O_15 
REMARK   10  A    between atoms: P_16  and  O_15 
REMARK   11  A    between atoms: P_16  and  O_17 
REMARK   12  A    between atoms: P_16  and  O_19 
REMARK   13  A    between atoms: O_19  and  P_20 
REMARK   14  A    between atoms: P_20  and  O_21 
REMARK   15  A    between atoms: P_20  and  O_22 
ROOT
HETATM    1  C   UNK N   1      25.470  19.170   3.605  0.00  0.00     0.024 C 
HETATM    2  C   UNK N   1      24.143  19.247   3.391  0.00  0.00     0.011 C 
ENDROOT
BRANCH   1   3
HETATM    3  C   UNK N   1      26.049  17.799   3.807  0.00  0.00     0.047 C 
BRANCH   3   4
HETATM    4  C   UNK N   1      25.969  17.416   5.273  0.00  0.00     0.032 C 
BRANCH   4   5
HETATM    5  C   UNK N   1      27.318  17.054   5.807  0.00  0.00    -0.024 C 
HETATM    6  C   UNK N   1      28.014  17.878   6.603  0.00  0.00    -0.087 C 
HETATM    7  C   UNK N   1      27.437  19.202   7.024  0.00  0.00     0.043 C 
BRANCH   6   8
HETATM    8  C   UNK N   1      29.387  17.455   7.043  0.00  0.00     0.037 C 
BRANCH   8   9
HETATM    9  C   UNK N   1      30.270  17.010   5.888  0.00  0.00     0.031 C 
BRANCH   9  10
HETATM   10  C   UNK N   1      31.690  16.905   6.343  0.00  0.00    -0.024 C 
HETATM   11  C   UNK N   1      32.721  17.218   5.549  0.00  0.00    -0.091 C 
HETATM   12  C   UNK N   1      34.109  17.074   6.069  0.00  0.00     0.042 C 
HETATM   13  C   UNK N   1      32.516  17.694   4.146  0.00  0.00     0.042 C 
ENDBRANCH   9  10
ENDBRANCH   8   9
ENDBRANCH   6   8
ENDBRANCH   4   5
ENDBRANCH   3   4
ENDBRANCH   1   3
BRANCH   1  14
HETATM   14  C   UNK N   1      26.424  20.357   3.655  0.00  0.00     0.413 C 
HETATM   15  F   UNK N   1      26.174  21.115   4.782  0.00  0.00    -0.166 F 
HETATM   16  F   UNK N   1      27.750  19.999   3.687  0.00  0.00    -0.166 F 
HETATM   17  F   UNK N   1      26.218  21.141   2.537  0.00  0.00    -0.166 F 
ENDBRANCH   1  14
BRANCH   2  18
HETATM   18  C   UNK N   1      23.328  20.481   3.119  0.00  0.00     0.208 C 
BRANCH  18  19
HETATM   19  O   UNK N   1      22.859  20.522   1.803  0.00  0.00    -0.293 OA
BRANCH  19  20
HETATM   20  P   UNK N   1      21.114  20.392   1.896  0.00  0.00     0.402 P 
HETATM   21  O   UNK N   1      20.647  20.940   3.279  0.00  0.00    -0.631 OA
BRANCH  20  22
HETATM   22  O   UNK N   1      20.356  21.368   0.677  0.00  0.00    -0.307 OA
HETATM   23  H   UNK N   1      20.505  22.326   0.661  0.00  0.00     0.222 HD
ENDBRANCH  20  22
BRANCH  20  24
HETATM   24  O   UNK N   1      20.639  18.712   1.740  0.00  0.00    -0.195 OA
BRANCH  24  25
HETATM   25  P   UNK N   1      20.222  18.120   3.328  0.00  0.00     0.399 P 
HETATM   26  O   UNK N   1      20.754  16.844   2.620  0.00  0.00    -0.631 OA
BRANCH  25  27
HETATM   27  O   UNK N   1      18.915  16.995   3.526  0.00  0.00    -0.307 OA
HETATM   28  H   UNK N   1      19.037  16.102   3.886  0.00  0.00     0.222 HD
ENDBRANCH  25  27
BRANCH  25  29
HETATM   29  O   UNK N   1      18.798  18.695   2.520  0.00  0.00    -0.307 OA
HETATM   30  H   UNK N   1      18.581  18.922   1.601  0.00  0.00     0.222 HD
ENDBRANCH  25  29
ENDBRANCH  24  25
ENDBRANCH  20  24
ENDBRANCH  19  20
ENDBRANCH  18  19
ENDBRANCH   2  18
TORSDOF 15
ENDMDL
MODEL 3
REMARK VINA RESULT:      -6.4      2.473      3.477
REMARK  15 active torsions:
REMARK  status: ('A' for Active; 'I' for Inactive)
REMARK    1  A    between atoms: C_4  and  C_5 
REMARK    2  A    between atoms: C_5  and  C_6 
REMARK    3  A    between atoms: C_6  and  C_7 
REMARK    4  A    between atoms: C_9  and  C_10 
REMARK    5  A    between atoms: C_10  and  C_11 
REMARK    6  A    between atoms: C_11  and  C_12 
REMARK    7  A    between atoms: C_12  and  C_24 
REMARK    8  A    between atoms: C_13  and  C_14 
REMARK    9  A    between atoms: C_14  and  O_15 
REMARK   10  A    between atoms: P_16  and  O_15 
REMARK   11  A    between atoms: P_16  and  O_17 
REMARK   12  A    between atoms: P_16  and  O_19 
REMARK   13  A    between atoms: O_19  and  P_20 
REMARK   14  A    between atoms: P_20  and  O_21 
REMARK   15  A    between atoms: P_20  and  O_22 
ROOT
HETATM    1  C   UNK N   1      34.749  12.309  14.288  0.00  0.00     0.024 C 
HETATM    2  C   UNK N   1      35.165  13.362  13.560  0.00  0.00     0.011 C 
ENDROOT
BRANCH   1   3
HETATM    3  C   UNK N   1      34.443  12.561  15.737  0.00  0.00     0.047 C 
BRANCH   3   4
HETATM    4  C   UNK N   1      35.687  12.331  16.576  0.00  0.00     0.032 C 
BRANCH   4   5
HETATM    5  C   UNK N   1      35.419  11.357  17.678  0.00  0.00    -0.024 C 
HETATM    6  C   UNK N   1      35.904  10.109  17.660  0.00  0.00    -0.087 C 
HETATM    7  C   UNK N   1      36.783   9.646  16.530  0.00  0.00     0.043 C 
BRANCH   6   8
HETATM    8  C   UNK N   1      35.533   9.181  18.783  0.00  0.00     0.037 C 
BRANCH   8   9
HETATM    9  C   UNK N   1      34.359   9.687  19.607  0.00  0.00     0.031 C 
BRANCH   9  10
HETATM   10  C   UNK N   1      33.169   8.808  19.392  0.00  0.00    -0.024 C 
HETATM   11  C   UNK N   1      32.167   8.733  20.275  0.00  0.00    -0.091 C 
HETATM   12  C   UNK N   1      31.021   7.823  19.998  0.00  0.00     0.042 C 
HETATM   13  C   UNK N   1      32.173   9.528  21.541  0.00  0.00     0.042 C 
ENDBRANCH   9  10
ENDBRANCH   8   9
ENDBRANCH   6   8
ENDBRANCH   4   5
ENDBRANCH   3   4
ENDBRANCH   1   3
BRANCH   1  14
HETATM   14  C   UNK N   1      34.564  10.892  13.761  0.00  0.00     0.413 C 
HETATM   15  F   UNK N   1      33.729  10.902  12.661  0.00  0.00    -0.166 F 
HETATM   16  F   UNK N   1      35.738  10.286  13.379  0.00  0.00    -0.166 F 
HETATM   17  F   UNK N   1      33.986  10.121  14.751  0.00  0.00    -0.166 F 
ENDBRANCH   1  14
BRANCH   2  18
HETATM   18  C   UNK N   1      35.491  13.389  12.092  0.00  0.00     0.208 C 
BRANCH  18  19
HETATM   19  O   UNK N   1      35.904  14.655  11.669  0.00  0.00    -0.293 OA
BRANCH  19  20
HETATM   20  P   UNK N   1      34.677  15.230  10.558  0.00  0.00     0.402 P 
HETATM   21  O   UNK N   1      34.818  14.453   9.214  0.00  0.00    -0.631 OA
BRANCH  20  22
HETATM   22  O   UNK N   1      33.086  14.905  11.173  0.00  0.00    -0.307 OA
HETATM   23  H   UNK N   1      32.917  14.953  12.126  0.00  0.00     0.222 HD
ENDBRANCH  20  22
BRANCH  20  24
HETATM   24  O   UNK N   1      34.900  16.945  10.270  0.00  0.00    -0.195 OA
BRANCH  24  25
HETATM   25  P   UNK N   1      34.595  17.252   8.580  0.00  0.00     0.399 P 
HETATM   26  O   UNK N   1      35.264  18.573   9.048  0.00  0.00    -0.631 OA
BRANCH  25  27
HETATM   27  O   UNK N   1      33.441  18.458   8.104  0.00  0.00    -0.307 OA
HETATM   28  H   UNK N   1      33.092  18.528   7.201  0.00  0.00     0.222 HD
ENDBRANCH  25  27
BRANCH  25  29
HETATM   29  O   UNK N   1      33.093  17.019   9.418  0.00  0.00    -0.307 OA
HETATM   30  H   UNK N   1      32.848  16.871  10.345  0.00  0.00     0.222 HD
ENDBRANCH  25  29
ENDBRANCH  24  25
ENDBRANCH  20  24
ENDBRANCH  19  20
ENDBRANCH  18  19
ENDBRANCH   2  18
TORSDOF 15
ENDMDL
MODEL 4
REMARK VINA RESULT:      -6.3      1.663      2.504
REMARK  15 active torsions:
REMARK  status: ('A' for Active; 'I' for Inactive)
REMARK    1  A    between atoms: C_4  and  C_5 
REMARK    2  A    between atoms: C_5  and  C_6 
REMARK    3  A    between atoms: C_6  and  C_7 
REMARK    4  A    between atoms: C_9  and  C_10 
REMARK    5  A    between atoms: C_10  and  C_11 
REMARK    6  A    between atoms: C_11  and  C_12 
REMARK    7  A    between atoms: C_12  and  C_24 
REMARK    8  A    between atoms: C_13  and  C_14 
REMARK    9  A    between atoms: C_14  and  O_15 
REMARK   10  A    between atoms: P_16  and  O_15 
REMARK   11  A    between atoms: P_16  and  O_17 
REMARK   12  A    between atoms: P_16  and  O_19 
REMARK   13  A    between atoms: O_19  and  P_20 
REMARK   14  A    between atoms: P_20  and  O_21 
REMARK   15  A    between atoms: P_20  and  O_22 
ROOT
HETATM    1  C   UNK N   1      35.343  12.810  14.287  0.00  0.00     0.024 C 
HETATM    2  C   UNK N   1      35.233  13.129  12.984  0.00  0.00     0.011 C 
ENDROOT
BRANCH   1   3
HETATM    3  C   UNK N   1      34.251  11.964  14.876  0.00  0.00     0.047 C 
BRANCH   3   4
HETATM    4  C   UNK N   1      34.555  10.495  14.647  0.00  0.00     0.032 C 
BRANCH   4   5
HETATM    5  C   UNK N   1      34.848   9.799  15.938  0.00  0.00    -0.024 C 
HETATM    6  C   UNK N   1      36.071   9.345  16.240  0.00  0.00    -0.087 C 
HETATM    7  C   UNK N   1      37.221   9.554  15.293  0.00  0.00     0.043 C 
BRANCH   6   8
HETATM    8  C   UNK N   1      36.258   8.606  17.535  0.00  0.00     0.037 C 
BRANCH   8   9
HETATM    9  C   UNK N   1      36.706   9.507  18.675  0.00  0.00     0.031 C 
BRANCH   9  10
HETATM   10  C   UNK N   1      35.684   9.497  19.765  0.00  0.00    -0.024 C 
HETATM   11  C   UNK N   1      35.021  10.599  20.134  0.00  0.00    -0.091 C 
HETATM   12  C   UNK N   1      34.027  10.513  21.240  0.00  0.00     0.042 C 
HETATM   13  C   UNK N   1      35.262  11.920  19.475  0.00  0.00     0.042 C 
ENDBRANCH   9  10
ENDBRANCH   8   9
ENDBRANCH   6   8
ENDBRANCH   4   5
ENDBRANCH   3   4
ENDBRANCH   1   3
BRANCH   1  14
HETATM   14  C   UNK N   1      36.481  13.237  15.205  0.00  0.00     0.413 C 
HETATM   15  F   UNK N   1      37.662  12.648  14.796  0.00  0.00    -0.166 F 
HETATM   16  F   UNK N   1      36.689  14.595  15.234  0.00  0.00    -0.166 F 
HETATM   17  F   UNK N   1      36.197  12.818  16.490  0.00  0.00    -0.166 F 
ENDBRANCH   1  14
BRANCH   2  18
HETATM   18  C   UNK N   1      36.202  13.919  12.149  0.00  0.00     0.208 C 
BRANCH  18  19
HETATM   19  O   UNK N   1      35.895  15.283  12.134  0.00  0.00    -0.293 OA
BRANCH  19  20
HETATM   20  P   UNK N   1      34.825  15.534  10.770  0.00  0.00     0.402 P 
HETATM   21  O   UNK N   1      35.302  14.634   9.590  0.00  0.00    -0.631 OA
BRANCH  20  22
HETATM   22  O   UNK N   1      33.203  15.052  11.159  0.00  0.00    -0.307 OA
HETATM   23  H   UNK N   1      32.494  15.168  10.508  0.00  0.00     0.222 HD
ENDBRANCH  20  22
BRANCH  20  24
HETATM   24  O   UNK N   1      34.879  17.217  10.281  0.00  0.00    -0.195 OA
BRANCH  24  25
HETATM   25  P   UNK N   1      34.626  17.287   8.556  0.00  0.00     0.399 P 
HETATM   26  O   UNK N   1      35.203  18.694   8.870  0.00  0.00    -0.631 OA
BRANCH  25  27
HETATM   27  O   UNK N   1      33.429  18.352   7.890  0.00  0.00    -0.307 OA
HETATM   28  H   UNK N   1      32.507  18.365   8.193  0.00  0.00     0.222 HD
ENDBRANCH  25  27
BRANCH  25  29
HETATM   29  O   UNK N   1      33.107  17.075   9.368  0.00  0.00    -0.307 OA
HETATM   30  H   UNK N   1      32.744  16.404   9.968  0.00  0.00     0.222 HD
ENDBRANCH  25  29
ENDBRANCH  24  25
ENDBRANCH  20  24
ENDBRANCH  19  20
ENDBRANCH  18  19
ENDBRANCH   2  18
TORSDOF 15
ENDMDL
MODEL 5
REMARK VINA RESULT:      -6.2      2.177      3.196
REMARK  15 active torsions:
REMARK  status: ('A' for Active; 'I' for Inactive)
REMARK    1  A    between atoms: C_4  and  C_5 
REMARK    2  A    between atoms: C_5  and  C_6 
REMARK    3  A    between atoms: C_6  and  C_7 
REMARK    4  A    between atoms: C_9  and  C_10 
REMARK    5  A    between atoms: C_10  and  C_11 
REMARK    6  A    between atoms: C_11  and  C_12 
REMARK    7  A    between atoms: C_12  and  C_24 
REMARK    8  A    between atoms: C_13  and  C_14 
REMARK    9  A    between atoms: C_14  and  O_15 
REMARK   10  A    between atoms: P_16  and  O_15 
REMARK   11  A    between atoms: P_16  and  O_17 
REMARK   12  A    between atoms: P_16  and  O_19 
REMARK   13  A    between atoms: O_19  and  P_20 
REMARK   14  A    between atoms: P_20  and  O_21 
REMARK   15  A    between atoms: P_20  and  O_22 
ROOT
HETATM    1  C   UNK N   1      36.382  13.150  13.879  0.00  0.00     0.024 C 
HETATM    2  C   UNK N   1      35.683  14.062  13.178  0.00  0.00     0.011 C 
ENDROOT
BRANCH   1   3
HETATM    3  C   UNK N   1      36.583  13.422  15.342  0.00  0.00     0.047 C 
BRANCH   3   4
HETATM    4  C   UNK N   1      35.323  13.068  16.112  0.00  0.00     0.032 C 
BRANCH   4   5
HETATM    5  C   UNK N   1      35.543  11.869  16.978  0.00  0.00    -0.024 C 
HETATM    6  C   UNK N   1      35.014  10.674  16.687  0.00  0.00    -0.087 C 
HETATM    7  C   UNK N   1      34.197  10.482  15.438  0.00  0.00     0.043 C 
BRANCH   6   8
HETATM    8  C   UNK N   1      35.239   9.540  17.647  0.00  0.00     0.037 C 
BRANCH   8   9
HETATM    9  C   UNK N   1      34.611   9.783  19.010  0.00  0.00     0.031 C 
BRANCH   9  10
HETATM   10  C   UNK N   1      33.420   8.896  19.188  0.00  0.00    -0.024 C 
HETATM   11  C   UNK N   1      32.649   8.946  20.280  0.00  0.00    -0.091 C 
HETATM   12  C   UNK N   1      31.488   8.020  20.392  0.00  0.00     0.042 C 
HETATM   13  C   UNK N   1      32.930   9.898  21.399  0.00  0.00     0.042 C 
ENDBRANCH   9  10
ENDBRANCH   8   9
ENDBRANCH   6   8
ENDBRANCH   4   5
ENDBRANCH   3   4
ENDBRANCH   1   3
BRANCH   1  14
HETATM   14  C   UNK N   1      36.979  11.870  13.308  0.00  0.00     0.413 C 
HETATM   15  F   UNK N   1      37.569  11.133  14.317  0.00  0.00    -0.166 F 
HETATM   16  F   UNK N   1      36.058  11.057  12.692  0.00  0.00    -0.166 F 
HETATM   17  F   UNK N   1      37.945  12.205  12.380  0.00  0.00    -0.166 F 
ENDBRANCH   1  14
BRANCH   2  18
HETATM   18  C   UNK N   1      35.305  14.007  11.723  0.00  0.00     0.208 C 
BRANCH  18  19
HETATM   19  O   UNK N   1      34.364  14.985  11.387  0.00  0.00    -0.293 OA
BRANCH  19  20
HETATM   20  P   UNK N   1      35.037  15.875  10.035  0.00  0.00     0.402 P 
HETATM   21  O   UNK N   1      35.685  17.186  10.575  0.00  0.00    -0.631 OA
BRANCH  20  22
HETATM   22  O   UNK N   1      36.295  14.963   9.260  0.00  0.00    -0.307 OA
HETATM   23  H   UNK N   1      36.740  15.322   8.477  0.00  0.00     0.222 HD
ENDBRANCH  20  22
BRANCH  20  24
HETATM   24  O   UNK N   1      33.762  16.275   8.901  0.00  0.00    -0.195 OA
BRANCH  24  25
HETATM   25  P   UNK N   1      34.191  17.771   8.112  0.00  0.00     0.399 P 
HETATM   26  O   UNK N   1      32.650  17.719   7.923  0.00  0.00    -0.631 OA
BRANCH  25  27
HETATM   27  O   UNK N   1      34.008  17.938   6.395  0.00  0.00    -0.307 OA
HETATM   28  H   UNK N   1      34.555  17.454   5.756  0.00  0.00     0.222 HD
ENDBRANCH  25  27
BRANCH  25  29
HETATM   29  O   UNK N   1      34.934  16.435   7.290  0.00  0.00    -0.307 OA
HETATM   30  H   UNK N   1      35.791  15.986   7.360  0.00  0.00     0.222 HD
ENDBRANCH  25  29
ENDBRANCH  24  25
ENDBRANCH  20  24
ENDBRANCH  19  20
ENDBRANCH  18  19
ENDBRANCH   2  18
TORSDOF 15
ENDMDL
MODEL 6
REMARK VINA RESULT:      -6.2     21.109     23.065
REMARK  15 active torsions:
REMARK  status: ('A' for Active; 'I' for Inactive)
REMARK    1  A    between atoms: C_4  and  C_5 
REMARK    2  A    between atoms: C_5  and  C_6 
REMARK    3  A    between atoms: C_6  and  C_7 
REMARK    4  A    between atoms: C_9  and  C_10 
REMARK    5  A    between atoms: C_10  and  C_11 
REMARK    6  A    between atoms: C_11  and  C_12 
REMARK    7  A    between atoms: C_12  and  C_24 
REMARK    8  A    between atoms: C_13  and  C_14 
REMARK    9  A    between atoms: C_14  and  O_15 
REMARK   10  A    between atoms: P_16  and  O_15 
REMARK   11  A    between atoms: P_16  and  O_17 
REMARK   12  A    between atoms: P_16  and  O_19 
REMARK   13  A    between atoms: O_19  and  P_20 
REMARK   14  A    between atoms: P_20  and  O_21 
REMARK   15  A    between atoms: P_20  and  O_22 
ROOT
HETATM    1  C   UNK N   1      26.601  24.625  -4.996  0.00  0.00     0.024 C 
HETATM    2  C   UNK N   1      27.074  23.803  -5.952  0.00  0.00     0.011 C 
ENDROOT
BRANCH   1   3
HETATM    3  C   UNK N   1      25.248  25.232  -5.228  0.00  0.00     0.047 C 
BRANCH   3   4
HETATM    4  C   UNK N   1      25.370  26.427  -6.157  0.00  0.00     0.032 C 
BRANCH   4   5
HETATM    5  C   UNK N   1      25.680  27.673  -5.390  0.00  0.00    -0.024 C 
HETATM    6  C   UNK N   1      26.775  28.405  -5.634  0.00  0.00    -0.087 C 
HETATM    7  C   UNK N   1      27.728  28.014  -6.730  0.00  0.00     0.043 C 
BRANCH   6   8
HETATM    8  C   UNK N   1      27.035  29.609  -4.773  0.00  0.00     0.037 C 
BRANCH   8   9
HETATM    9  C   UNK N   1      27.094  29.277  -3.290  0.00  0.00     0.031 C 
BRANCH   9  10
HETATM   10  C   UNK N   1      28.447  28.745  -2.941  0.00  0.00    -0.024 C 
HETATM   11  C   UNK N   1      29.426  29.530  -2.479  0.00  0.00    -0.091 C 
HETATM   12  C   UNK N   1      30.752  28.929  -2.166  0.00  0.00     0.042 C 
HETATM   13  C   UNK N   1      29.230  31.000  -2.282  0.00  0.00     0.042 C 
ENDBRANCH   9  10
ENDBRANCH   8   9
ENDBRANCH   6   8
ENDBRANCH   4   5
ENDBRANCH   3   4
ENDBRANCH   1   3
BRANCH   1  14
HETATM   14  C   UNK N   1      27.327  24.983  -3.706  0.00  0.00     0.413 C 
HETATM   15  F   UNK N   1      26.519  25.778  -2.915  0.00  0.00    -0.166 F 
HETATM   16  F   UNK N   1      27.690  23.891  -2.954  0.00  0.00    -0.166 F 
HETATM   17  F   UNK N   1      28.472  25.688  -4.020  0.00  0.00    -0.166 F 
ENDBRANCH   1  14
BRANCH   2  18
HETATM   18  C   UNK N   1      28.369  23.038  -5.944  0.00  0.00     0.208 C 
BRANCH  18  19
HETATM   19  O   UNK N   1      29.456  23.841  -6.302  0.00  0.00    -0.293 OA
BRANCH  19  20
HETATM   20  P   UNK N   1      30.877  23.090  -5.603  0.00  0.00     0.402 P 
HETATM   21  O   UNK N   1      30.809  21.555  -5.864  0.00  0.00    -0.631 OA
BRANCH  20  22
HETATM   22  O   UNK N   1      32.323  23.676  -6.364  0.00  0.00    -0.307 OA
HETATM   23  H   UNK N   1      32.916  23.058  -6.818  0.00  0.00     0.222 HD
ENDBRANCH  20  22
BRANCH  20  24
HETATM   24  O   UNK N   1      30.911  23.390  -3.876  0.00  0.00    -0.195 OA
BRANCH  24  25
HETATM   25  P   UNK N   1      31.055  21.852  -3.064  0.00  0.00     0.399 P 
HETATM   26  O   UNK N   1      30.824  22.837  -1.885  0.00  0.00    -0.631 OA
BRANCH  25  27
HETATM   27  O   UNK N   1      32.409  21.534  -2.026  0.00  0.00    -0.307 OA
HETATM   28  H   UNK N   1      32.427  21.788  -1.090  0.00  0.00     0.222 HD
ENDBRANCH  25  27
BRANCH  25  29
HETATM   29  O   UNK N   1      32.542  22.234  -3.873  0.00  0.00    -0.307 OA
HETATM   30  H   UNK N   1      33.314  22.779  -3.654  0.00  0.00     0.222 HD
ENDBRANCH  25  29
ENDBRANCH  24  25
ENDBRANCH  20  24
ENDBRANCH  19  20
ENDBRANCH  18  19
ENDBRANCH   2  18
TORSDOF 15
ENDMDL
MODEL 7
REMARK VINA RESULT:      -6.2      2.685      4.979
REMARK  15 active torsions:
REMARK  status: ('A' for Active; 'I' for Inactive)
REMARK    1  A    between atoms: C_4  and  C_5 
REMARK    2  A    between atoms: C_5  and  C_6 
REMARK    3  A    between atoms: C_6  and  C_7 
REMARK    4  A    between atoms: C_9  and  C_10 
REMARK    5  A    between atoms: C_10  and  C_11 
REMARK    6  A    between atoms: C_11  and  C_12 
REMARK    7  A    between atoms: C_12  and  C_24 
REMARK    8  A    between atoms: C_13  and  C_14 
REMARK    9  A    between atoms: C_14  and  O_15 
REMARK   10  A    between atoms: P_16  and  O_15 
REMARK   11  A    between atoms: P_16  and  O_17 
REMARK   12  A    between atoms: P_16  and  O_19 
REMARK   13  A    between atoms: O_19  and  P_20 
REMARK   14  A    between atoms: P_20  and  O_21 
REMARK   15  A    between atoms: P_20  and  O_22 
ROOT
HETATM    1  C   UNK N   1      35.956  12.127  16.208  0.00  0.00     0.024 C 
HETATM    2  C   UNK N   1      36.506  12.429  15.018  0.00  0.00     0.011 C 
ENDROOT
BRANCH   1   3
HETATM    3  C   UNK N   1      36.178  10.735  16.728  0.00  0.00     0.047 C 
BRANCH   3   4
HETATM    4  C   UNK N   1      35.041   9.831  16.285  0.00  0.00     0.032 C 
BRANCH   4   5
HETATM    5  C   UNK N   1      35.427   9.036  15.079  0.00  0.00    -0.024 C 
HETATM    6  C   UNK N   1      34.912   9.285  13.868  0.00  0.00    -0.087 C 
HETATM    7  C   UNK N   1      33.940  10.415  13.667  0.00  0.00     0.043 C 
BRANCH   6   8
HETATM    8  C   UNK N   1      35.313   8.395  12.725  0.00  0.00     0.037 C 
BRANCH   8   9
HETATM    9  C   UNK N   1      34.862   8.925  11.373  0.00  0.00     0.031 C 
BRANCH   9  10
HETATM   10  C   UNK N   1      33.638   8.196  10.922  0.00  0.00    -0.024 C 
HETATM   11  C   UNK N   1      32.650   8.803  10.254  0.00  0.00    -0.091 C 
HETATM   12  C   UNK N   1      31.454   8.013   9.850  0.00  0.00     0.042 C 
HETATM   13  C   UNK N   1      32.708  10.258   9.914  0.00  0.00     0.042 C 
ENDBRANCH   9  10
ENDBRANCH   8   9
ENDBRANCH   6   8
ENDBRANCH   4   5
ENDBRANCH   3   4
ENDBRANCH   1   3
BRANCH   1  14
HETATM   14  C   UNK N   1      35.133  13.079  17.066  0.00  0.00     0.413 C 
HETATM   15  F   UNK N   1      35.853  14.232  17.314  0.00  0.00    -0.166 F 
HETATM   16  F   UNK N   1      33.943  13.455  16.489  0.00  0.00    -0.166 F 
HETATM   17  F   UNK N   1      34.851  12.464  18.270  0.00  0.00    -0.166 F 
ENDBRANCH   1  14
BRANCH   2  18
HETATM   18  C   UNK N   1      36.472  13.752  14.302  0.00  0.00     0.208 C 
BRANCH  18  19
HETATM   19  O   UNK N   1      35.234  13.990  13.697  0.00  0.00    -0.293 OA
BRANCH  19  20
HETATM   20  P   UNK N   1      35.553  14.205  11.987  0.00  0.00     0.402 P 
HETATM   21  O   UNK N   1      37.028  13.792  11.699  0.00  0.00    -0.631 OA
BRANCH  20  22
HETATM   22  O   UNK N   1      34.536  13.171  11.034  0.00  0.00    -0.307 OA
HETATM   23  H   UNK N   1      33.694  13.505  10.688  0.00  0.00     0.222 HD
ENDBRANCH  20  22
BRANCH  20  24
HETATM   24  O   UNK N   1      35.321  15.888  11.553  0.00  0.00    -0.195 OA
BRANCH  24  25
HETATM   25  P   UNK N   1      34.985  15.962   9.842  0.00  0.00     0.399 P 
HETATM   26  O   UNK N   1      35.469  17.404  10.154  0.00  0.00    -0.631 OA
BRANCH  25  27
HETATM   27  O   UNK N   1      33.683  16.942   9.247  0.00  0.00    -0.307 OA
HETATM   28  H   UNK N   1      33.800  17.613   8.556  0.00  0.00     0.222 HD
ENDBRANCH  25  27
BRANCH  25  29
HETATM   29  O   UNK N   1      33.525  15.625  10.716  0.00  0.00    -0.307 OA
HETATM   30  H   UNK N   1      33.205  15.825  11.610  0.00  0.00     0.222 HD
ENDBRANCH  25  29
ENDBRANCH  24  25
ENDBRANCH  20  24
ENDBRANCH  19  20
ENDBRANCH  18  19
ENDBRANCH   2  18
TORSDOF 15
ENDMDL
MODEL 8
REMARK VINA RESULT:      -6.1     12.311     14.696
REMARK  15 active torsions:
REMARK  status: ('A' for Active; 'I' for Inactive)
REMARK    1  A    between atoms: C_4  and  C_5 
REMARK    2  A    between atoms: C_5  and  C_6 
REMARK    3  A    between atoms: C_6  and  C_7 
REMARK    4  A    between atoms: C_9  and  C_10 
REMARK    5  A    between atoms: C_10  and  C_11 
REMARK    6  A    between atoms: C_11  and  C_12 
REMARK    7  A    between atoms: C_12  and  C_24 
REMARK    8  A    between atoms: C_13  and  C_14 
REMARK    9  A    between atoms: C_14  and  O_15 
REMARK   10  A    between atoms: P_16  and  O_15 
REMARK   11  A    between atoms: P_16  and  O_17 
REMARK   12  A    between atoms: P_16  and  O_19 
REMARK   13  A    between atoms: O_19  and  P_20 
REMARK   14  A    between atoms: P_20  and  O_21 
REMARK   15  A    between atoms: P_20  and  O_22 
ROOT
HETATM    1  C   UNK N   1      25.740  18.478   3.793  0.00  0.00     0.024 C 
HETATM    2  C   UNK N   1      24.476  18.102   4.065  0.00  0.00     0.011 C 
ENDROOT
BRANCH   1   3
HETATM    3  C   UNK N   1      26.749  17.384   3.594  0.00  0.00     0.047 C 
BRANCH   3   4
HETATM    4  C   UNK N   1      27.204  16.851   4.941  0.00  0.00     0.032 C 
BRANCH   4   5
HETATM    5  C   UNK N   1      28.567  17.361   5.287  0.00  0.00    -0.024 C 
HETATM    6  C   UNK N   1      29.649  16.572   5.267  0.00  0.00    -0.087 C 
HETATM    7  C   UNK N   1      29.537  15.130   4.854  0.00  0.00     0.043 C 
BRANCH   6   8
HETATM    8  C   UNK N   1      30.967  17.158   5.688  0.00  0.00     0.037 C 
BRANCH   8   9
HETATM    9  C   UNK N   1      31.406  16.701   7.071  0.00  0.00     0.031 C 
BRANCH   9  10
HETATM   10  C   UNK N   1      32.380  17.679   7.645  0.00  0.00    -0.024 C 
HETATM   11  C   UNK N   1      33.703  17.498   7.570  0.00  0.00    -0.091 C 
HETATM   12  C   UNK N   1      34.610  18.510   8.179  0.00  0.00     0.042 C 
HETATM   13  C   UNK N   1      34.296  16.299   6.902  0.00  0.00     0.042 C 
ENDBRANCH   9  10
ENDBRANCH   8   9
ENDBRANCH   6   8
ENDBRANCH   4   5
ENDBRANCH   3   4
ENDBRANCH   1   3
BRANCH   1  14
HETATM   14  C   UNK N   1      26.222  19.918   3.670  0.00  0.00     0.413 C 
HETATM   15  F   UNK N   1      27.583  19.941   3.434  0.00  0.00    -0.166 F 
HETATM   16  F   UNK N   1      25.618  20.619   2.654  0.00  0.00    -0.166 F 
HETATM   17  F   UNK N   1      25.966  20.576   4.858  0.00  0.00    -0.166 F 
ENDBRANCH   1  14
BRANCH   2  18
HETATM   18  C   UNK N   1      23.278  18.989   4.261  0.00  0.00     0.208 C 
BRANCH  18  19
HETATM   19  O   UNK N   1      22.145  18.496   3.606  0.00  0.00    -0.293 OA
BRANCH  19  20
HETATM   20  P   UNK N   1      21.355  19.879   2.875  0.00  0.00     0.402 P 
HETATM   21  O   UNK N   1      20.276  20.416   3.863  0.00  0.00    -0.631 OA
BRANCH  20  22
HETATM   22  O   UNK N   1      22.488  21.166   2.605  0.00  0.00    -0.307 OA
HETATM   23  H   UNK N   1      22.919  21.598   3.358  0.00  0.00     0.222 HD
ENDBRANCH  20  22
BRANCH  20  24
HETATM   24  O   UNK N   1      20.588  19.393   1.375  0.00  0.00    -0.195 OA
BRANCH  24  25
HETATM   25  P   UNK N   1      20.250  17.684   1.471  0.00  0.00     0.399 P 
HETATM   26  O   UNK N   1      20.463  17.901  -0.051  0.00  0.00    -0.631 OA
BRANCH  25  27
HETATM   27  O   UNK N   1      18.793  17.040   0.782  0.00  0.00    -0.307 OA
HETATM   28  H   UNK N   1      18.615  17.041  -0.172  0.00  0.00     0.222 HD
ENDBRANCH  25  27
BRANCH  25  29
HETATM   29  O   UNK N   1      18.871  18.589   2.012  0.00  0.00    -0.307 OA
HETATM   30  H   UNK N   1      18.715  19.230   2.723  0.00  0.00     0.222 HD
ENDBRANCH  25  29
ENDBRANCH  24  25
ENDBRANCH  20  24
ENDBRANCH  19  20
ENDBRANCH  18  19
ENDBRANCH   2  18
TORSDOF 15
ENDMDL
MODEL 9
REMARK VINA RESULT:      -6.0      9.449     12.445
REMARK  15 active torsions:
REMARK  status: ('A' for Active; 'I' for Inactive)
REMARK    1  A    between atoms: C_4  and  C_5 
REMARK    2  A    between atoms: C_5  and  C_6 
REMARK    3  A    between atoms: C_6  and  C_7 
REMARK    4  A    between atoms: C_9  and  C_10 
REMARK    5  A    between atoms: C_10  and  C_11 
REMARK    6  A    between atoms: C_11  and  C_12 
REMARK    7  A    between atoms: C_12  and  C_24 
REMARK    8  A    between atoms: C_13  and  C_14 
REMARK    9  A    between atoms: C_14  and  O_15 
REMARK   10  A    between atoms: P_16  and  O_15 
REMARK   11  A    between atoms: P_16  and  O_17 
REMARK   12  A    between atoms: P_16  and  O_19 
REMARK   13  A    between atoms: O_19  and  P_20 
REMARK   14  A    between atoms: P_20  and  O_21 
REMARK   15  A    between atoms: P_20  and  O_22 
ROOT
HETATM    1  C   UNK N   1      29.276  17.630   7.679  0.00  0.00     0.024 C 
HETATM    2  C   UNK N   1      30.552  17.275   7.442  0.00  0.00     0.011 C 
ENDROOT
BRANCH   1   3
HETATM    3  C   UNK N   1      28.299  17.453   6.552  0.00  0.00     0.047 C 
BRANCH   3   4
HETATM    4  C   UNK N   1      28.680  18.354   5.391  0.00  0.00     0.032 C 
BRANCH   4   5
HETATM    5  C   UNK N   1      27.474  19.017   4.807  0.00  0.00    -0.024 C 
HETATM    6  C   UNK N   1      27.081  20.241   5.185  0.00  0.00    -0.087 C 
HETATM    7  C   UNK N   1      27.874  21.020   6.199  0.00  0.00     0.043 C 
BRANCH   6   8
HETATM    8  C   UNK N   1      25.822  20.803   4.587  0.00  0.00     0.037 C 
BRANCH   8   9
HETATM    9  C   UNK N   1      25.338  20.019   3.377  0.00  0.00     0.031 C 
BRANCH   9  10
HETATM   10  C   UNK N   1      23.879  20.263   3.162  0.00  0.00    -0.024 C 
HETATM   11  C   UNK N   1      22.942  19.394   3.559  0.00  0.00    -0.091 C 
HETATM   12  C   UNK N   1      21.509  19.701   3.297  0.00  0.00     0.042 C 
HETATM   13  C   UNK N   1      23.298  18.115   4.248  0.00  0.00     0.042 C 
ENDBRANCH   9  10
ENDBRANCH   8   9
ENDBRANCH   6   8
ENDBRANCH   4   5
ENDBRANCH   3   4
ENDBRANCH   1   3
BRANCH   1  14
HETATM   14  C   UNK N   1      28.748  18.193   8.992  0.00  0.00     0.413 C 
HETATM   15  F   UNK N   1      28.290  17.166   9.795  0.00  0.00    -0.166 F 
HETATM   16  F   UNK N   1      29.689  18.889   9.713  0.00  0.00    -0.166 F 
HETATM   17  F   UNK N   1      27.697  19.047   8.720  0.00  0.00    -0.166 F 
ENDBRANCH   1  14
BRANCH   2  18
HETATM   18  C   UNK N   1      31.707  17.309   8.405  0.00  0.00     0.208 C 
BRANCH  18  19
HETATM   19  O   UNK N   1      31.811  16.127   9.144  0.00  0.00    -0.293 OA
BRANCH  19  20
HETATM   20  P   UNK N   1      33.263  15.321   8.587  0.00  0.00     0.402 P 
HETATM   21  O   UNK N   1      33.429  13.989   9.380  0.00  0.00    -0.631 OA
BRANCH  20  22
HETATM   22  O   UNK N   1      33.133  14.904   6.907  0.00  0.00    -0.307 OA
HETATM   23  H   UNK N   1      33.390  14.019   6.606  0.00  0.00     0.222 HD
ENDBRANCH  20  22
BRANCH  20  24
HETATM   24  O   UNK N   1      34.654  16.350   8.872  0.00  0.00    -0.195 OA
BRANCH  24  25
HETATM   25  P   UNK N   1      35.179  16.103  10.518  0.00  0.00     0.399 P 
HETATM   26  O   UNK N   1      35.530  17.596  10.271  0.00  0.00    -0.631 OA
BRANCH  25  27
HETATM   27  O   UNK N   1      36.866  16.173  10.918  0.00  0.00    -0.307 OA
HETATM   28  H   UNK N   1      37.506  16.704  10.417  0.00  0.00     0.222 HD
ENDBRANCH  25  27
BRANCH  25  29
HETATM   29  O   UNK N   1      36.099  15.093   9.447  0.00  0.00    -0.307 OA
HETATM   30  H   UNK N   1      36.808  14.443   9.569  0.00  0.00     0.222 HD
ENDBRANCH  25  29
ENDBRANCH  24  25
ENDBRANCH  20  24
ENDBRANCH  19  20
ENDBRANCH  18  19
ENDBRANCH   2  18
TORSDOF 15
ENDMDL
