MODEL 1
REMARK VINA RESULT:      -5.1      0.000      0.000
REMARK  18 active torsions:
REMARK  status: ('A' for Active; 'I' for Inactive)
REMARK    1  A    between atoms: C_4  and  C_1 
REMARK    2  A    between atoms: N_8  and  C_1 
REMARK    3  A    between atoms: C_5  and  C_2 
REMARK    4  A    between atoms: O_19  and  C_2 
REMARK    5  A    between atoms: N_8  and  C_3 
REMARK    6  A    between atoms: P_20  and  C_3 
REMARK    7  A    between atoms: C_6  and  C_4 
REMARK    8  A    between atoms: C_4  and  O_9 
REMARK    9  A    between atoms: C_7  and  C_5 
REMARK   10  A    between atoms: C_5  and  O_10 
REMARK   11  A    between atoms: C_7  and  C_6 
REMARK   12  A    between atoms: C_6  and  O_11 
REMARK   13  A    between atoms: C_7  and  O_12 
REMARK   14  A    between atoms: P_20  and  O_13 
REMARK   15  A    between atoms: P_20  and  O_14 
REMARK   16  A    between atoms: P_21  and  O_16 
REMARK   17  A    between atoms: P_21  and  O_17 
REMARK   18  A    between atoms: P_21  and  O_19 
ROOT
HETATM    1  C   UNK N   1      34.996  16.436   8.754  0.00  0.00     0.179 C 
ENDROOT
BRANCH   1   2
HETATM    2  C   UNK N   1      34.166  17.733   8.631  0.00  0.00     0.166 C 
BRANCH   2   3
HETATM    3  C   UNK N   1      32.851  17.504   7.889  0.00  0.00     0.148 C 
BRANCH   3   4
HETATM    4  N   UNK N   1      31.813  16.986   8.771  0.00  0.00    -0.409 N 
HETATM    5  H   UNK N   1      31.882  16.174   9.385  0.00  0.00     0.153 HD
BRANCH   4   6
HETATM    6  C   UNK N   1      30.653  17.862   8.600  0.00  0.00     0.239 C 
BRANCH   6   7
HETATM    7  P   UNK N   1      29.224  17.542   9.805  0.00  0.00     0.253 P 
HETATM    8  O   UNK N   1      29.622  18.968  10.274  0.00  0.00    -0.652 OA
BRANCH   7   9
HETATM    9  O   UNK N   1      28.461  17.533   8.246  0.00  0.00    -0.328 OA
HETATM   10  H   UNK N   1      27.804  17.220   7.604  0.00  0.00     0.220 HD
ENDBRANCH   7   9
BRANCH   7  11
HETATM   11  O   UNK N   1      30.486  16.388  10.103  0.00  0.00    -0.328 OA
HETATM   12  H   UNK N   1      31.125  16.535  10.817  0.00  0.00     0.220 HD
ENDBRANCH   7  11
ENDBRANCH   6   7
ENDBRANCH   4   6
ENDBRANCH   3   4
ENDBRANCH   2   3
BRANCH   2  13
HETATM   13  O   UNK N   1      34.888  18.743   7.988  0.00  0.00    -0.391 OA
HETATM   14  H   UNK N   1      35.853  18.702   7.901  0.00  0.00     0.210 HD
ENDBRANCH   2  13
ENDBRANCH   1   2
BRANCH   1  15
HETATM   15  C   UNK N   1      35.228  16.034  10.236  0.00  0.00     0.180 C 
BRANCH  15  16
HETATM   16  C   UNK N   1      34.386  14.808  10.653  0.00  0.00     0.173 C 
BRANCH  16  17
HETATM   17  C   UNK N   1      35.026  14.029  11.802  0.00  0.00     0.214 C 
BRANCH  17  18
HETATM   18  O   UNK N   1      35.548  14.881  12.782  0.00  0.00    -0.294 OA
BRANCH  18  19
HETATM   19  P   UNK N   1      36.239  13.804  13.960  0.00  0.00     0.390 P 
HETATM   20  O   UNK N   1      34.850  13.152  13.723  0.00  0.00    -0.632 OA
BRANCH  19  21
HETATM   21  O   UNK N   1      36.670  12.174  13.546  0.00  0.00    -0.307 OA
HETATM   22  H   UNK N   1      36.548  11.544  12.819  0.00  0.00     0.222 HD
ENDBRANCH  19  21
BRANCH  19  23
HETATM   23  O   UNK N   1      37.153  13.751  12.484  0.00  0.00    -0.307 OA
HETATM   24  H   UNK N   1      38.069  13.443  12.399  0.00  0.00     0.222 HD
ENDBRANCH  19  23
ENDBRANCH  18  19
ENDBRANCH  17  18
ENDBRANCH  16  17
BRANCH  16  25
HETATM   25  O   UNK N   1      33.099  15.199  11.035  0.00  0.00    -0.391 OA
HETATM   26  H   UNK N   1      32.494  14.644  11.552  0.00  0.00     0.210 HD
ENDBRANCH  16  25
ENDBRANCH  15  16
BRANCH  15  27
HETATM   27  O   UNK N   1      36.581  15.736  10.426  0.00  0.00    -0.390 OA
HETATM   28  H   UNK N   1      37.227  16.384  10.745  0.00  0.00     0.210 HD
ENDBRANCH  15  27
ENDBRANCH   1  15
BRANCH   1  29
HETATM   29  O   UNK N   1      34.315  15.414   8.086  0.00  0.00    -0.390 OA
HETATM   30  H   UNK N   1      33.536  14.978   8.467  0.00  0.00     0.210 HD
ENDBRANCH   1  29
TORSDOF 18
ENDMDL
MODEL 2
REMARK VINA RESULT:      -5.1      3.062      4.423
REMARK  18 active torsions:
REMARK  status: ('A' for Active; 'I' for Inactive)
REMARK    1  A    between atoms: C_4  and  C_1 
REMARK    2  A    between atoms: N_8  and  C_1 
REMARK    3  A    between atoms: C_5  and  C_2 
REMARK    4  A    between atoms: O_19  and  C_2 
REMARK    5  A    between atoms: N_8  and  C_3 
REMARK    6  A    between atoms: P_20  and  C_3 
REMARK    7  A    between atoms: C_6  and  C_4 
REMARK    8  A    between atoms: C_4  and  O_9 
REMARK    9  A    between atoms: C_7  and  C_5 
REMARK   10  A    between atoms: C_5  and  O_10 
REMARK   11  A    between atoms: C_7  and  C_6 
REMARK   12  A    between atoms: C_6  and  O_11 
REMARK   13  A    between atoms: C_7  and  O_12 
REMARK   14  A    between atoms: P_20  and  O_13 
REMARK   15  A    between atoms: P_20  and  O_14 
REMARK   16  A    between atoms: P_21  and  O_16 
REMARK   17  A    between atoms: P_21  and  O_17 
REMARK   18  A    between atoms: P_21  and  O_19 
ROOT
HETATM    1  C   UNK N   1      35.027  14.764  11.377  0.00  0.00     0.179 C 
ENDROOT
BRANCH   1   2
HETATM    2  C   UNK N   1      35.617  16.160  11.073  0.00  0.00     0.166 C 
BRANCH   2   3
HETATM    3  C   UNK N   1      34.953  16.811   9.861  0.00  0.00     0.148 C 
BRANCH   3   4
HETATM    4  N   UNK N   1      34.914  15.914   8.715  0.00  0.00    -0.409 N 
HETATM    5  H   UNK N   1      35.467  15.066   8.583  0.00  0.00     0.153 HD
BRANCH   4   6
HETATM    6  C   UNK N   1      33.926  16.469   7.790  0.00  0.00     0.239 C 
BRANCH   6   7
HETATM    7  P   UNK N   1      34.258  16.116   5.957  0.00  0.00     0.253 P 
HETATM    8  O   UNK N   1      35.524  15.453   6.565  0.00  0.00    -0.652 OA
BRANCH   7   9
HETATM    9  O   UNK N   1      32.804  15.228   6.293  0.00  0.00    -0.328 OA
HETATM   10  H   UNK N   1      31.870  15.159   6.543  0.00  0.00     0.220 HD
ENDBRANCH   7   9
BRANCH   7  11
HETATM   11  O   UNK N   1      34.243  17.832   6.208  0.00  0.00    -0.328 OA
HETATM   12  H   UNK N   1      34.416  18.199   7.089  0.00  0.00     0.220 HD
ENDBRANCH   7  11
ENDBRANCH   6   7
ENDBRANCH   4   6
ENDBRANCH   3   4
ENDBRANCH   2   3
BRANCH   2  13
HETATM   13  O   UNK N   1      36.998  16.097  10.863  0.00  0.00    -0.391 OA
HETATM   14  H   UNK N   1      37.627  16.171  11.597  0.00  0.00     0.210 HD
ENDBRANCH   2  13
ENDBRANCH   1   2
BRANCH   1  15
HETATM   15  C   UNK N   1      35.520  14.211  12.742  0.00  0.00     0.180 C 
BRANCH  15  16
HETATM   16  C   UNK N   1      36.224  12.842  12.604  0.00  0.00     0.173 C 
BRANCH  16  17
HETATM   17  C   UNK N   1      36.389  12.421  11.143  0.00  0.00     0.214 C 
BRANCH  17  18
HETATM   18  O   UNK N   1      37.704  12.037  10.858  0.00  0.00    -0.294 OA
BRANCH  18  19
HETATM   19  P   UNK N   1      37.968  12.596   9.232  0.00  0.00     0.390 P 
HETATM   20  O   UNK N   1      36.429  12.400   9.244  0.00  0.00    -0.632 OA
BRANCH  19  21
HETATM   21  O   UNK N   1      37.402  14.152   8.712  0.00  0.00    -0.307 OA
HETATM   22  H   UNK N   1      37.628  15.089   8.816  0.00  0.00     0.222 HD
ENDBRANCH  19  21
BRANCH  19  23
HETATM   23  O   UNK N   1      38.396  13.834  10.372  0.00  0.00    -0.307 OA
HETATM   24  H   UNK N   1      38.328  13.760  11.337  0.00  0.00     0.222 HD
ENDBRANCH  19  23
ENDBRANCH  18  19
ENDBRANCH  17  18
ENDBRANCH  16  17
BRANCH  16  25
HETATM   25  O   UNK N   1      37.482  12.870  13.210  0.00  0.00    -0.391 OA
HETATM   26  H   UNK N   1      37.779  12.229  13.876  0.00  0.00     0.210 HD
ENDBRANCH  16  25
ENDBRANCH  15  16
BRANCH  15  27
HETATM   27  O   UNK N   1      36.415  15.122  13.312  0.00  0.00    -0.390 OA
HETATM   28  H   UNK N   1      37.355  15.156  13.082  0.00  0.00     0.210 HD
ENDBRANCH  15  27
ENDBRANCH   1  15
BRANCH   1  29
HETATM   29  O   UNK N   1      33.633  14.869  11.382  0.00  0.00    -0.390 OA
HETATM   30  H   UNK N   1      33.109  14.745  12.188  0.00  0.00     0.210 HD
ENDBRANCH   1  29
TORSDOF 18
ENDMDL
MODEL 3
REMARK VINA RESULT:      -5.1      3.224      6.872
REMARK  18 active torsions:
REMARK  status: ('A' for Active; 'I' for Inactive)
REMARK    1  A    between atoms: C_4  and  C_1 
REMARK    2  A    between atoms: N_8  and  C_1 
REMARK    3  A    between atoms: C_5  and  C_2 
REMARK    4  A    between atoms: O_19  and  C_2 
REMARK    5  A    between atoms: N_8  and  C_3 
REMARK    6  A    between atoms: P_20  and  C_3 
REMARK    7  A    between atoms: C_6  and  C_4 
REMARK    8  A    between atoms: C_4  and  O_9 
REMARK    9  A    between atoms: C_7  and  C_5 
REMARK   10  A    between atoms: C_5  and  O_10 
REMARK   11  A    between atoms: C_7  and  C_6 
REMARK   12  A    between atoms: C_6  and  O_11 
REMARK   13  A    between atoms: C_7  and  O_12 
REMARK   14  A    between atoms: P_20  and  O_13 
REMARK   15  A    between atoms: P_20  and  O_14 
REMARK   16  A    between atoms: P_21  and  O_16 
REMARK   17  A    between atoms: P_21  and  O_17 
REMARK   18  A    between atoms: P_21  and  O_19 
ROOT
HETATM    1  C   UNK N   1      36.341  13.609  11.080  0.00  0.00     0.179 C 
ENDROOT
BRANCH   1   2
HETATM    2  C   UNK N   1      35.609  12.296  11.437  0.00  0.00     0.166 C 
BRANCH   2   3
HETATM    3  C   UNK N   1      36.583  11.184  11.824  0.00  0.00     0.148 C 
BRANCH   3   4
HETATM    4  N   UNK N   1      37.016  11.300  13.210  0.00  0.00    -0.409 N 
HETATM    5  H   UNK N   1      37.970  11.213  13.562  0.00  0.00     0.153 HD
BRANCH   4   6
HETATM    6  C   UNK N   1      35.811  11.564  13.997  0.00  0.00     0.239 C 
BRANCH   6   7
HETATM    7  P   UNK N   1      36.027  12.832  15.391  0.00  0.00     0.253 P 
HETATM    8  O   UNK N   1      35.851  11.552  16.253  0.00  0.00    -0.652 OA
BRANCH   7   9
HETATM    9  O   UNK N   1      37.546  12.875  14.551  0.00  0.00    -0.328 OA
HETATM   10  H   UNK N   1      38.478  13.126  14.459  0.00  0.00     0.220 HD
ENDBRANCH   7   9
BRANCH   7  11
HETATM   11  O   UNK N   1      34.589  13.212  14.497  0.00  0.00    -0.328 OA
HETATM   12  H   UNK N   1      34.620  13.291  13.531  0.00  0.00     0.220 HD
ENDBRANCH   7  11
ENDBRANCH   6   7
ENDBRANCH   4   6
ENDBRANCH   3   4
ENDBRANCH   2   3
BRANCH   2  13
HETATM   13  O   UNK N   1      34.804  11.856  10.383  0.00  0.00    -0.391 OA
HETATM   14  H   UNK N   1      33.884  11.583  10.526  0.00  0.00     0.210 HD
ENDBRANCH   2  13
ENDBRANCH   1   2
BRANCH   1  15
HETATM   15  C   UNK N   1      35.527  14.861  11.506  0.00  0.00     0.180 C 
BRANCH  15  16
HETATM   16  C   UNK N   1      35.554  15.974  10.434  0.00  0.00     0.173 C 
BRANCH  16  17
HETATM   17  C   UNK N   1      34.812  15.569   9.161  0.00  0.00     0.214 C 
BRANCH  17  18
HETATM   18  O   UNK N   1      33.503  16.063   9.141  0.00  0.00    -0.294 OA
BRANCH  18  19
HETATM   19  P   UNK N   1      32.558  14.745   8.511  0.00  0.00     0.390 P 
HETATM   20  O   UNK N   1      33.984  14.132   8.507  0.00  0.00    -0.632 OA
BRANCH  19  21
HETATM   21  O   UNK N   1      32.328  13.286   9.423  0.00  0.00    -0.307 OA
HETATM   22  H   UNK N   1      32.197  12.338   9.271  0.00  0.00     0.222 HD
ENDBRANCH  19  21
BRANCH  19  23
HETATM   23  O   UNK N   1      32.092  15.094  10.147  0.00  0.00    -0.307 OA
HETATM   24  H   UNK N   1      31.229  14.895  10.542  0.00  0.00     0.222 HD
ENDBRANCH  19  23
ENDBRANCH  18  19
ENDBRANCH  17  18
ENDBRANCH  16  17
BRANCH  16  25
HETATM   25  O   UNK N   1      34.988  17.151  10.930  0.00  0.00    -0.391 OA
HETATM   26  H   UNK N   1      34.033  17.306  11.007  0.00  0.00     0.210 HD
ENDBRANCH  16  25
ENDBRANCH  15  16
BRANCH  15  27
HETATM   27  O   UNK N   1      34.199  14.490  11.737  0.00  0.00    -0.390 OA
HETATM   28  H   UNK N   1      33.945  13.771  12.334  0.00  0.00     0.210 HD
ENDBRANCH  15  27
ENDBRANCH   1  15
BRANCH   1  29
HETATM   29  O   UNK N   1      37.583  13.608  11.723  0.00  0.00    -0.390 OA
HETATM   30  H   UNK N   1      37.750  14.129  12.523  0.00  0.00     0.210 HD
ENDBRANCH   1  29
TORSDOF 18
ENDMDL
MODEL 4
REMARK VINA RESULT:      -5.1      2.029      6.386
REMARK  18 active torsions:
REMARK  status: ('A' for Active; 'I' for Inactive)
REMARK    1  A    between atoms: C_4  and  C_1 
REMARK    2  A    between atoms: N_8  and  C_1 
REMARK    3  A    between atoms: C_5  and  C_2 
REMARK    4  A    between atoms: O_19  and  C_2 
REMARK    5  A    between atoms: N_8  and  C_3 
REMARK    6  A    between atoms: P_20  and  C_3 
REMARK    7  A    between atoms: C_6  and  C_4 
REMARK    8  A    between atoms: C_4  and  O_9 
REMARK    9  A    between atoms: C_7  and  C_5 
REMARK   10  A    between atoms: C_5  and  O_10 
REMARK   11  A    between atoms: C_7  and  C_6 
REMARK   12  A    between atoms: C_6  and  O_11 
REMARK   13  A    between atoms: C_7  and  O_12 
REMARK   14  A    between atoms: P_20  and  O_13 
REMARK   15  A    between atoms: P_20  and  O_14 
REMARK   16  A    between atoms: P_21  and  O_16 
REMARK   17  A    between atoms: P_21  and  O_17 
REMARK   18  A    between atoms: P_21  and  O_19 
ROOT
HETATM    1  C   UNK N   1      33.693  16.748   6.260  0.00  0.00     0.179 C 
ENDROOT
BRANCH   1   2
HETATM    2  C   UNK N   1      34.432  15.391   6.294  0.00  0.00     0.166 C 
BRANCH   2   3
HETATM    3  C   UNK N   1      34.429  14.771   7.690  0.00  0.00     0.148 C 
BRANCH   3   4
HETATM    4  N   UNK N   1      35.372  15.432   8.581  0.00  0.00    -0.409 N 
HETATM    5  H   UNK N   1      35.884  16.296   8.397  0.00  0.00     0.153 HD
BRANCH   4   6
HETATM    6  C   UNK N   1      35.441  14.612   9.790  0.00  0.00     0.239 C 
BRANCH   6   7
HETATM    7  P   UNK N   1      35.500  15.586  11.416  0.00  0.00     0.253 P 
HETATM    8  O   UNK N   1      35.831  16.740  10.430  0.00  0.00    -0.652 OA
BRANCH   7   9
HETATM    9  O   UNK N   1      33.849  15.059  11.309  0.00  0.00    -0.328 OA
HETATM   10  H   UNK N   1      32.922  15.048  11.595  0.00  0.00     0.220 HD
ENDBRANCH   7   9
BRANCH   7  11
HETATM   11  O   UNK N   1      36.743  14.376  11.436  0.00  0.00    -0.328 OA
HETATM   12  H   UNK N   1      37.599  14.547  11.013  0.00  0.00     0.220 HD
ENDBRANCH   7  11
ENDBRANCH   6   7
ENDBRANCH   4   6
ENDBRANCH   3   4
ENDBRANCH   2   3
BRANCH   2  13
HETATM   13  O   UNK N   1      35.752  15.516   5.849  0.00  0.00    -0.391 OA
HETATM   14  H   UNK N   1      35.958  15.726   4.925  0.00  0.00     0.210 HD
ENDBRANCH   2  13
ENDBRANCH   1   2
BRANCH   1  15
HETATM   15  C   UNK N   1      32.459  16.759   7.202  0.00  0.00     0.180 C 
BRANCH  15  16
HETATM   16  C   UNK N   1      32.529  17.891   8.252  0.00  0.00     0.173 C 
BRANCH  16  17
HETATM   17  C   UNK N   1      31.142  18.374   8.676  0.00  0.00     0.214 C 
BRANCH  17  18
HETATM   18  O   UNK N   1      30.340  17.321   9.132  0.00  0.00    -0.294 OA
BRANCH  18  19
HETATM   19  P   UNK N   1      28.740  17.999   9.193  0.00  0.00     0.390 P 
HETATM   20  O   UNK N   1      28.731  17.313   7.801  0.00  0.00    -0.632 OA
BRANCH  19  21
HETATM   21  O   UNK N   1      27.336  16.982   9.299  0.00  0.00    -0.307 OA
HETATM   22  H   UNK N   1      26.928  16.241   8.826  0.00  0.00     0.222 HD
ENDBRANCH  19  21
BRANCH  19  23
HETATM   23  O   UNK N   1      28.931  16.789  10.424  0.00  0.00    -0.307 OA
HETATM   24  H   UNK N   1      28.845  15.831  10.292  0.00  0.00     0.222 HD
ENDBRANCH  19  23
ENDBRANCH  18  19
ENDBRANCH  17  18
ENDBRANCH  16  17
BRANCH  16  25
HETATM   25  O   UNK N   1      33.226  17.470   9.388  0.00  0.00    -0.391 OA
HETATM   26  H   UNK N   1      33.966  17.958   9.784  0.00  0.00     0.210 HD
ENDBRANCH  16  25
ENDBRANCH  15  16
BRANCH  15  27
HETATM   27  O   UNK N   1      31.299  16.924   6.440  0.00  0.00    -0.390 OA
HETATM   28  H   UNK N   1      30.607  16.249   6.373  0.00  0.00     0.210 HD
ENDBRANCH  15  27
ENDBRANCH   1  15
BRANCH   1  29
HETATM   29  O   UNK N   1      34.593  17.747   6.644  0.00  0.00    -0.390 OA
HETATM   30  H   UNK N   1      35.159  18.205   6.004  0.00  0.00     0.210 HD
ENDBRANCH   1  29
TORSDOF 18
ENDMDL
MODEL 5
REMARK VINA RESULT:      -5.1      2.076      6.787
REMARK  18 active torsions:
REMARK  status: ('A' for Active; 'I' for Inactive)
REMARK    1  A    between atoms: C_4  and  C_1 
REMARK    2  A    between atoms: N_8  and  C_1 
REMARK    3  A    between atoms: C_5  and  C_2 
REMARK    4  A    between atoms: O_19  and  C_2 
REMARK    5  A    between atoms: N_8  and  C_3 
REMARK    6  A    between atoms: P_20  and  C_3 
REMARK    7  A    between atoms: C_6  and  C_4 
REMARK    8  A    between atoms: C_4  and  O_9 
REMARK    9  A    between atoms: C_7  and  C_5 
REMARK   10  A    between atoms: C_5  and  O_10 
REMARK   11  A    between atoms: C_7  and  C_6 
REMARK   12  A    between atoms: C_6  and  O_11 
REMARK   13  A    between atoms: C_7  and  O_12 
REMARK   14  A    between atoms: P_20  and  O_13 
REMARK   15  A    between atoms: P_20  and  O_14 
REMARK   16  A    between atoms: P_21  and  O_16 
REMARK   17  A    between atoms: P_21  and  O_17 
REMARK   18  A    between atoms: P_21  and  O_19 
ROOT
HETATM    1  C   UNK N   1      34.866  15.072   9.336  0.00  0.00     0.179 C 
ENDROOT
BRANCH   1   2
HETATM    2  C   UNK N   1      34.518  14.815  10.820  0.00  0.00     0.166 C 
BRANCH   2   3
HETATM    3  C   UNK N   1      34.999  13.445  11.292  0.00  0.00     0.148 C 
BRANCH   3   4
HETATM    4  N   UNK N   1      36.226  13.538  12.072  0.00  0.00    -0.409 N 
HETATM    5  H   UNK N   1      37.145  13.179  11.812  0.00  0.00     0.153 HD
BRANCH   4   6
HETATM    6  C   UNK N   1      35.878  14.249  13.303  0.00  0.00     0.239 C 
BRANCH   6   7
HETATM    7  P   UNK N   1      36.520  13.449  14.898  0.00  0.00     0.253 P 
HETATM    8  O   UNK N   1      37.157  12.478  13.866  0.00  0.00    -0.652 OA
BRANCH   7   9
HETATM    9  O   UNK N   1      37.262  15.019  14.893  0.00  0.00    -0.328 OA
HETATM   10  H   UNK N   1      37.774  15.734  14.485  0.00  0.00     0.220 HD
ENDBRANCH   7   9
BRANCH   7  11
HETATM   11  O   UNK N   1      34.788  13.365  14.881  0.00  0.00    -0.328 OA
HETATM   12  H   UNK N   1      34.289  13.383  15.712  0.00  0.00     0.220 HD
ENDBRANCH   7  11
ENDBRANCH   6   7
ENDBRANCH   4   6
ENDBRANCH   3   4
ENDBRANCH   2   3
BRANCH   2  13
HETATM   13  O   UNK N   1      33.144  14.926  11.050  0.00  0.00    -0.391 OA
HETATM   14  H   UNK N   1      32.775  14.896  11.946  0.00  0.00     0.210 HD
ENDBRANCH   2  13
ENDBRANCH   1   2
BRANCH   1  15
HETATM   15  C   UNK N   1      34.881  16.588   8.999  0.00  0.00     0.180 C 
BRANCH  15  16
HETATM   16  C   UNK N   1      34.312  16.885   7.594  0.00  0.00     0.173 C 
BRANCH  16  17
HETATM   17  C   UNK N   1      32.794  16.711   7.536  0.00  0.00     0.214 C 
BRANCH  17  18
HETATM   18  O   UNK N   1      32.122  17.807   8.088  0.00  0.00    -0.294 OA
BRANCH  18  19
HETATM   19  P   UNK N   1      30.530  17.201   8.437  0.00  0.00     0.390 P 
HETATM   20  O   UNK N   1      31.423  16.080   9.031  0.00  0.00    -0.632 OA
BRANCH  19  21
HETATM   21  O   UNK N   1      29.944  17.097  10.067  0.00  0.00    -0.307 OA
HETATM   22  H   UNK N   1      29.899  17.642  10.868  0.00  0.00     0.222 HD
ENDBRANCH  19  21
BRANCH  19  23
HETATM   23  O   UNK N   1      30.817  18.678   9.304  0.00  0.00    -0.307 OA
HETATM   24  H   UNK N   1      30.384  18.939  10.131  0.00  0.00     0.222 HD
ENDBRANCH  19  23
ENDBRANCH  18  19
ENDBRANCH  17  18
ENDBRANCH  16  17
BRANCH  16  25
HETATM   25  O   UNK N   1      34.632  18.185   7.194  0.00  0.00    -0.391 OA
HETATM   26  H   UNK N   1      33.998  18.803   6.797  0.00  0.00     0.210 HD
ENDBRANCH  16  25
ENDBRANCH  15  16
BRANCH  15  27
HETATM   27  O   UNK N   1      34.122  17.279   9.947  0.00  0.00    -0.390 OA
HETATM   28  H   UNK N   1      34.503  17.915  10.571  0.00  0.00     0.210 HD
ENDBRANCH  15  27
ENDBRANCH   1  15
BRANCH   1  29
HETATM   29  O   UNK N   1      36.122  14.515   9.077  0.00  0.00    -0.390 OA
HETATM   30  H   UNK N   1      36.936  15.042   9.106  0.00  0.00     0.210 HD
ENDBRANCH   1  29
TORSDOF 18
ENDMDL
MODEL 6
REMARK VINA RESULT:      -5.0      2.424      3.768
REMARK  18 active torsions:
REMARK  status: ('A' for Active; 'I' for Inactive)
REMARK    1  A    between atoms: C_4  and  C_1 
REMARK    2  A    between atoms: N_8  and  C_1 
REMARK    3  A    between atoms: C_5  and  C_2 
REMARK    4  A    between atoms: O_19  and  C_2 
REMARK    5  A    between atoms: N_8  and  C_3 
REMARK    6  A    between atoms: P_20  and  C_3 
REMARK    7  A    between atoms: C_6  and  C_4 
REMARK    8  A    between atoms: C_4  and  O_9 
REMARK    9  A    between atoms: C_7  and  C_5 
REMARK   10  A    between atoms: C_5  and  O_10 
REMARK   11  A    between atoms: C_7  and  C_6 
REMARK   12  A    between atoms: C_6  and  O_11 
REMARK   13  A    between atoms: C_7  and  O_12 
REMARK   14  A    between atoms: P_20  and  O_13 
REMARK   15  A    between atoms: P_20  and  O_14 
REMARK   16  A    between atoms: P_21  and  O_16 
REMARK   17  A    between atoms: P_21  and  O_17 
REMARK   18  A    between atoms: P_21  and  O_19 
ROOT
HETATM    1  C   UNK N   1      34.586  14.340  11.074  0.00  0.00     0.179 C 
ENDROOT
BRANCH   1   2
HETATM    2  C   UNK N   1      35.175  14.460   9.650  0.00  0.00     0.166 C 
BRANCH   2   3
HETATM    3  C   UNK N   1      34.136  14.161   8.572  0.00  0.00     0.148 C 
BRANCH   3   4
HETATM    4  N   UNK N   1      33.593  15.380   7.988  0.00  0.00    -0.409 N 
HETATM    5  H   UNK N   1      32.689  15.488   7.528  0.00  0.00     0.153 HD
BRANCH   4   6
HETATM    6  C   UNK N   1      34.604  16.419   8.191  0.00  0.00     0.239 C 
BRANCH   6   7
HETATM    7  P   UNK N   1      33.953  18.198   8.101  0.00  0.00     0.253 P 
HETATM    8  O   UNK N   1      35.246  18.454   8.922  0.00  0.00    -0.652 OA
BRANCH   7   9
HETATM    9  O   UNK N   1      34.275  17.790   6.444  0.00  0.00    -0.328 OA
HETATM   10  H   UNK N   1      34.105  17.840   5.491  0.00  0.00     0.220 HD
ENDBRANCH   7   9
BRANCH   7  11
HETATM   11  O   UNK N   1      32.816  17.222   8.975  0.00  0.00    -0.328 OA
HETATM   12  H   UNK N   1      31.941  17.575   9.203  0.00  0.00     0.220 HD
ENDBRANCH   7  11
ENDBRANCH   6   7
ENDBRANCH   4   6
ENDBRANCH   3   4
ENDBRANCH   2   3
BRANCH   2  13
HETATM   13  O   UNK N   1      36.274  13.612   9.478  0.00  0.00    -0.391 OA
HETATM   14  H   UNK N   1      37.175  13.898   9.696  0.00  0.00     0.210 HD
ENDBRANCH   2  13
ENDBRANCH   1   2
BRANCH   1  15
HETATM   15  C   UNK N   1      35.555  14.897  12.151  0.00  0.00     0.180 C 
BRANCH  15  16
HETATM   16  C   UNK N   1      36.261  13.774  12.945  0.00  0.00     0.173 C 
BRANCH  16  17
HETATM   17  C   UNK N   1      35.378  12.538  13.109  0.00  0.00     0.214 C 
BRANCH  17  18
HETATM   18  O   UNK N   1      34.454  12.692  14.148  0.00  0.00    -0.294 OA
BRANCH  18  19
HETATM   19  P   UNK N   1      35.436  12.835  15.577  0.00  0.00     0.390 P 
HETATM   20  O   UNK N   1      34.064  13.346  16.093  0.00  0.00    -0.632 OA
BRANCH  19  21
HETATM   21  O   UNK N   1      35.168  11.819  16.958  0.00  0.00    -0.307 OA
HETATM   22  H   UNK N   1      34.429  11.462  17.476  0.00  0.00     0.222 HD
ENDBRANCH  19  21
BRANCH  19  23
HETATM   23  O   UNK N   1      35.286  11.169  15.111  0.00  0.00    -0.307 OA
HETATM   24  H   UNK N   1      34.588  10.802  14.547  0.00  0.00     0.222 HD
ENDBRANCH  19  23
ENDBRANCH  18  19
ENDBRANCH  17  18
ENDBRANCH  16  17
BRANCH  16  25
HETATM   25  O   UNK N   1      37.452  13.398  12.317  0.00  0.00    -0.391 OA
HETATM   26  H   UNK N   1      38.336  13.584  12.671  0.00  0.00     0.210 HD
ENDBRANCH  16  25
ENDBRANCH  15  16
BRANCH  15  27
HETATM   27  O   UNK N   1      36.526  15.689  11.533  0.00  0.00    -0.390 OA
HETATM   28  H   UNK N   1      36.758  16.580  11.837  0.00  0.00     0.210 HD
ENDBRANCH  15  27
ENDBRANCH   1  15
BRANCH   1  29
HETATM   29  O   UNK N   1      33.380  15.046  11.110  0.00  0.00    -0.390 OA
HETATM   30  H   UNK N   1      32.740  15.012  10.381  0.00  0.00     0.210 HD
ENDBRANCH   1  29
TORSDOF 18
ENDMDL
MODEL 7
REMARK VINA RESULT:      -5.0      3.219      6.916
REMARK  18 active torsions:
REMARK  status: ('A' for Active; 'I' for Inactive)
REMARK    1  A    between atoms: C_4  and  C_1 
REMARK    2  A    between atoms: N_8  and  C_1 
REMARK    3  A    between atoms: C_5  and  C_2 
REMARK    4  A    between atoms: O_19  and  C_2 
REMARK    5  A    between atoms: N_8  and  C_3 
REMARK    6  A    between atoms: P_20  and  C_3 
REMARK    7  A    between atoms: C_6  and  C_4 
REMARK    8  A    between atoms: C_4  and  O_9 
REMARK    9  A    between atoms: C_7  and  C_5 
REMARK   10  A    between atoms: C_5  and  O_10 
REMARK   11  A    between atoms: C_7  and  C_6 
REMARK   12  A    between atoms: C_6  and  O_11 
REMARK   13  A    between atoms: C_7  and  O_12 
REMARK   14  A    between atoms: P_20  and  O_13 
REMARK   15  A    between atoms: P_20  and  O_14 
REMARK   16  A    between atoms: P_21  and  O_16 
REMARK   17  A    between atoms: P_21  and  O_17 
REMARK   18  A    between atoms: P_21  and  O_19 
ROOT
HETATM    1  C   UNK N   1      36.765  14.478  10.546  0.00  0.00     0.179 C 
ENDROOT
BRANCH   1   2
HETATM    2  C   UNK N   1      37.654  13.216  10.488  0.00  0.00     0.166 C 
BRANCH   2   3
HETATM    3  C   UNK N   1      37.136  12.107  11.402  0.00  0.00     0.148 C 
BRANCH   3   4
HETATM    4  N   UNK N   1      37.419  12.383  12.804  0.00  0.00    -0.409 N 
HETATM    5  H   UNK N   1      38.235  12.867  13.180  0.00  0.00     0.153 HD
BRANCH   4   6
HETATM    6  C   UNK N   1      36.300  11.827  13.566  0.00  0.00     0.239 C 
BRANCH   6   7
HETATM    7  P   UNK N   1      35.463  13.040  14.760  0.00  0.00     0.253 P 
HETATM    8  O   UNK N   1      36.827  13.764  14.595  0.00  0.00    -0.652 OA
BRANCH   7   9
HETATM    9  O   UNK N   1      34.480  13.119  13.331  0.00  0.00    -0.328 OA
HETATM   10  H   UNK N   1      33.636  13.069  12.856  0.00  0.00     0.220 HD
ENDBRANCH   7   9
BRANCH   7  11
HETATM   11  O   UNK N   1      35.639  11.503  15.546  0.00  0.00    -0.328 OA
HETATM   12  H   UNK N   1      35.292  11.370  16.441  0.00  0.00     0.220 HD
ENDBRANCH   7  11
ENDBRANCH   6   7
ENDBRANCH   4   6
ENDBRANCH   3   4
ENDBRANCH   2   3
BRANCH   2  13
HETATM   13  O   UNK N   1      38.979  13.508  10.823  0.00  0.00    -0.391 OA
HETATM   14  H   UNK N   1      39.587  12.821  11.139  0.00  0.00     0.210 HD
ENDBRANCH   2  13
ENDBRANCH   1   2
BRANCH   1  15
HETATM   15  C   UNK N   1      35.318  14.191  10.062  0.00  0.00     0.180 C 
BRANCH  15  16
HETATM   16  C   UNK N   1      34.320  15.286  10.502  0.00  0.00     0.173 C 
BRANCH  16  17
HETATM   17  C   UNK N   1      33.682  16.001   9.311  0.00  0.00     0.214 C 
BRANCH  17  18
HETATM   18  O   UNK N   1      34.588  16.851   8.667  0.00  0.00    -0.294 OA
BRANCH  18  19
HETATM   19  P   UNK N   1      33.617  17.713   7.510  0.00  0.00     0.390 P 
HETATM   20  O   UNK N   1      34.841  18.658   7.651  0.00  0.00    -0.632 OA
BRANCH  19  21
HETATM   21  O   UNK N   1      34.130  17.891   5.861  0.00  0.00    -0.307 OA
HETATM   22  H   UNK N   1      34.816  18.347   5.350  0.00  0.00     0.222 HD
ENDBRANCH  19  21
BRANCH  19  23
HETATM   23  O   UNK N   1      34.142  16.196   6.847  0.00  0.00    -0.307 OA
HETATM   24  H   UNK N   1      34.777  16.087   6.122  0.00  0.00     0.222 HD
ENDBRANCH  19  23
ENDBRANCH  18  19
ENDBRANCH  17  18
ENDBRANCH  16  17
BRANCH  16  25
HETATM   25  O   UNK N   1      33.307  14.742  11.296  0.00  0.00    -0.391 OA
HETATM   26  H   UNK N   1      32.367  14.745  11.056  0.00  0.00     0.210 HD
ENDBRANCH  16  25
ENDBRANCH  15  16
BRANCH  15  27
HETATM   27  O   UNK N   1      35.307  14.107   8.667  0.00  0.00    -0.390 OA
HETATM   28  H   UNK N   1      34.593  13.684   8.166  0.00  0.00     0.210 HD
ENDBRANCH  15  27
ENDBRANCH   1  15
BRANCH   1  29
HETATM   29  O   UNK N   1      36.741  14.938  11.866  0.00  0.00    -0.390 OA
HETATM   30  H   UNK N   1      36.263  15.741  12.125  0.00  0.00     0.210 HD
ENDBRANCH   1  29
TORSDOF 18
ENDMDL
MODEL 8
REMARK VINA RESULT:      -5.0      2.573      4.385
REMARK  18 active torsions:
REMARK  status: ('A' for Active; 'I' for Inactive)
REMARK    1  A    between atoms: C_4  and  C_1 
REMARK    2  A    between atoms: N_8  and  C_1 
REMARK    3  A    between atoms: C_5  and  C_2 
REMARK    4  A    between atoms: O_19  and  C_2 
REMARK    5  A    between atoms: N_8  and  C_3 
REMARK    6  A    between atoms: P_20  and  C_3 
REMARK    7  A    between atoms: C_6  and  C_4 
REMARK    8  A    between atoms: C_4  and  O_9 
REMARK    9  A    between atoms: C_7  and  C_5 
REMARK   10  A    between atoms: C_5  and  O_10 
REMARK   11  A    between atoms: C_7  and  C_6 
REMARK   12  A    between atoms: C_6  and  O_11 
REMARK   13  A    between atoms: C_7  and  O_12 
REMARK   14  A    between atoms: P_20  and  O_13 
REMARK   15  A    between atoms: P_20  and  O_14 
REMARK   16  A    between atoms: P_21  and  O_16 
REMARK   17  A    between atoms: P_21  and  O_17 
REMARK   18  A    between atoms: P_21  and  O_19 
ROOT
HETATM    1  C   UNK N   1      35.540  14.684  12.051  0.00  0.00     0.179 C 
ENDROOT
BRANCH   1   2
HETATM    2  C   UNK N   1      34.530  14.403  10.915  0.00  0.00     0.166 C 
BRANCH   2   3
HETATM    3  C   UNK N   1      35.072  14.822   9.550  0.00  0.00     0.148 C 
BRANCH   3   4
HETATM    4  N   UNK N   1      34.119  15.645   8.817  0.00  0.00    -0.409 N 
HETATM    5  H   UNK N   1      33.114  15.491   8.735  0.00  0.00     0.153 HD
BRANCH   4   6
HETATM    6  C   UNK N   1      34.892  16.736   8.221  0.00  0.00     0.239 C 
BRANCH   6   7
HETATM    7  P   UNK N   1      33.923  18.341   7.940  0.00  0.00     0.253 P 
HETATM    8  O   UNK N   1      35.203  18.940   8.584  0.00  0.00    -0.652 OA
BRANCH   7   9
HETATM    9  O   UNK N   1      34.195  17.735   6.335  0.00  0.00    -0.328 OA
HETATM   10  H   UNK N   1      34.515  17.811   5.423  0.00  0.00     0.220 HD
ENDBRANCH   7   9
BRANCH   7  11
HETATM   11  O   UNK N   1      33.047  17.339   9.053  0.00  0.00    -0.328 OA
HETATM   12  H   UNK N   1      33.378  17.205   9.955  0.00  0.00     0.220 HD
ENDBRANCH   7  11
ENDBRANCH   6   7
ENDBRANCH   4   6
ENDBRANCH   3   4
ENDBRANCH   2   3
BRANCH   2  13
HETATM   13  O   UNK N   1      33.311  15.047  11.145  0.00  0.00    -0.391 OA
HETATM   14  H   UNK N   1      33.122  15.493  11.985  0.00  0.00     0.210 HD
ENDBRANCH   2  13
ENDBRANCH   1   2
BRANCH   1  15
HETATM   15  C   UNK N   1      35.655  13.488  13.034  0.00  0.00     0.180 C 
BRANCH  15  16
HETATM   16  C   UNK N   1      36.175  13.915  14.425  0.00  0.00     0.173 C 
BRANCH  16  17
HETATM   17  C   UNK N   1      36.967  12.804  15.114  0.00  0.00     0.214 C 
BRANCH  17  18
HETATM   18  O   UNK N   1      36.295  11.578  15.067  0.00  0.00    -0.294 OA
BRANCH  18  19
HETATM   19  P   UNK N   1      35.358  11.549  16.532  0.00  0.00     0.390 P 
HETATM   20  O   UNK N   1      34.324  11.036  15.494  0.00  0.00    -0.632 OA
BRANCH  19  21
HETATM   21  O   UNK N   1      34.845  10.050  17.242  0.00  0.00    -0.307 OA
HETATM   22  H   UNK N   1      34.289   9.286  17.024  0.00  0.00     0.222 HD
ENDBRANCH  19  21
BRANCH  19  23
HETATM   23  O   UNK N   1      36.673  10.419  16.633  0.00  0.00    -0.307 OA
HETATM   24  H   UNK N   1      37.365  10.419  17.313  0.00  0.00     0.222 HD
ENDBRANCH  19  23
ENDBRANCH  18  19
ENDBRANCH  17  18
ENDBRANCH  16  17
BRANCH  16  25
HETATM   25  O   UNK N   1      36.984  15.050  14.323  0.00  0.00    -0.391 OA
HETATM   26  H   UNK N   1      36.646  15.947  14.176  0.00  0.00     0.210 HD
ENDBRANCH  16  25
ENDBRANCH  15  16
BRANCH  15  27
HETATM   27  O   UNK N   1      34.399  12.894  13.186  0.00  0.00    -0.390 OA
HETATM   28  H   UNK N   1      34.247  12.105  13.728  0.00  0.00     0.210 HD
ENDBRANCH  15  27
ENDBRANCH   1  15
BRANCH   1  29
HETATM   29  O   UNK N   1      36.786  14.947  11.474  0.00  0.00    -0.390 OA
HETATM   30  H   UNK N   1      37.568  15.159  12.008  0.00  0.00     0.210 HD
ENDBRANCH   1  29
TORSDOF 18
ENDMDL
MODEL 9
REMARK VINA RESULT:      -5.0      1.850      2.860
REMARK  18 active torsions:
REMARK  status: ('A' for Active; 'I' for Inactive)
REMARK    1  A    between atoms: C_4  and  C_1 
REMARK    2  A    between atoms: N_8  and  C_1 
REMARK    3  A    between atoms: C_5  and  C_2 
REMARK    4  A    between atoms: O_19  and  C_2 
REMARK    5  A    between atoms: N_8  and  C_3 
REMARK    6  A    between atoms: P_20  and  C_3 
REMARK    7  A    between atoms: C_6  and  C_4 
REMARK    8  A    between atoms: C_4  and  O_9 
REMARK    9  A    between atoms: C_7  and  C_5 
REMARK   10  A    between atoms: C_5  and  O_10 
REMARK   11  A    between atoms: C_7  and  C_6 
REMARK   12  A    between atoms: C_6  and  O_11 
REMARK   13  A    between atoms: C_7  and  O_12 
REMARK   14  A    between atoms: P_20  and  O_13 
REMARK   15  A    between atoms: P_20  and  O_14 
REMARK   16  A    between atoms: P_21  and  O_16 
REMARK   17  A    between atoms: P_21  and  O_17 
REMARK   18  A    between atoms: P_21  and  O_19 
ROOT
HETATM    1  C   UNK N   1      34.124  16.289   9.441  0.00  0.00     0.179 C 
ENDROOT
BRANCH   1   2
HETATM    2  C   UNK N   1      34.616  15.906   8.027  0.00  0.00     0.166 C 
BRANCH   2   3
HETATM    3  C   UNK N   1      34.357  17.015   7.010  0.00  0.00     0.148 C 
BRANCH   3   4
HETATM    4  N   UNK N   1      33.103  17.709   7.271  0.00  0.00    -0.409 N 
HETATM    5  H   UNK N   1      32.912  18.363   8.030  0.00  0.00     0.153 HD
BRANCH   4   6
HETATM    6  C   UNK N   1      32.170  17.281   6.227  0.00  0.00     0.239 C 
BRANCH   6   7
HETATM    7  P   UNK N   1      30.490  16.668   6.858  0.00  0.00     0.253 P 
HETATM    8  O   UNK N   1      31.220  15.301   6.747  0.00  0.00    -0.652 OA
BRANCH   7   9
HETATM    9  O   UNK N   1      31.089  17.649   8.160  0.00  0.00    -0.328 OA
HETATM   10  H   UNK N   1      31.117  17.937   9.085  0.00  0.00     0.220 HD
ENDBRANCH   7   9
BRANCH   7  11
HETATM   11  O   UNK N   1      30.274  17.413   5.307  0.00  0.00    -0.328 OA
HETATM   12  H   UNK N   1      30.920  18.058   4.980  0.00  0.00     0.220 HD
ENDBRANCH   7  11
ENDBRANCH   6   7
ENDBRANCH   4   6
ENDBRANCH   3   4
ENDBRANCH   2   3
BRANCH   2  13
HETATM   13  O   UNK N   1      34.019  14.723   7.581  0.00  0.00    -0.391 OA
HETATM   14  H   UNK N   1      34.339  14.258   6.792  0.00  0.00     0.210 HD
ENDBRANCH   2  13
ENDBRANCH   1   2
BRANCH   1  15
HETATM   15  C   UNK N   1      34.611  15.280  10.517  0.00  0.00     0.180 C 
BRANCH  15  16
HETATM   16  C   UNK N   1      35.672  15.891  11.459  0.00  0.00     0.173 C 
BRANCH  16  17
HETATM   17  C   UNK N   1      35.945  15.005  12.675  0.00  0.00     0.214 C 
BRANCH  17  18
HETATM   18  O   UNK N   1      36.059  13.656  12.322  0.00  0.00    -0.294 OA
BRANCH  18  19
HETATM   19  P   UNK N   1      35.940  12.806  13.835  0.00  0.00     0.390 P 
HETATM   20  O   UNK N   1      36.346  14.227  14.310  0.00  0.00    -0.632 OA
BRANCH  19  21
HETATM   21  O   UNK N   1      34.688  13.176  14.979  0.00  0.00    -0.307 OA
HETATM   22  H   UNK N   1      33.909  12.758  15.376  0.00  0.00     0.222 HD
ENDBRANCH  19  21
BRANCH  19  23
HETATM   23  O   UNK N   1      34.387  12.884  13.063  0.00  0.00    -0.307 OA
HETATM   24  H   UNK N   1      33.630  12.310  13.260  0.00  0.00     0.222 HD
ENDBRANCH  19  23
ENDBRANCH  18  19
ENDBRANCH  17  18
ENDBRANCH  16  17
BRANCH  16  25
HETATM   25  O   UNK N   1      36.874  16.104  10.779  0.00  0.00    -0.391 OA
HETATM   26  H   UNK N   1      37.616  16.619  11.134  0.00  0.00     0.210 HD
ENDBRANCH  16  25
ENDBRANCH  15  16
BRANCH  15  27
HETATM   27  O   UNK N   1      33.519  14.860  11.281  0.00  0.00    -0.390 OA
HETATM   28  H   UNK N   1      33.440  13.966  11.646  0.00  0.00     0.210 HD
ENDBRANCH  15  27
ENDBRANCH   1  15
BRANCH   1  29
HETATM   29  O   UNK N   1      34.602  17.569   9.739  0.00  0.00    -0.390 OA
HETATM   30  H   UNK N   1      34.130  18.170  10.337  0.00  0.00     0.210 HD
ENDBRANCH   1  29
TORSDOF 18
ENDMDL
