MODEL 1
REMARK VINA RESULT:      -2.0      0.000      0.000
REMARK  2 active torsions:
REMARK  status: ('A' for Active; 'I' for Inactive)
REMARK    1  A    between atoms: S_2  and  S_3 
REMARK    2  A    between atoms: S_3  and  S_4 
ROOT
HETATM    1  S   UNK N   1      30.896  17.165   7.767  0.00  0.00     0.000 SA
ENDROOT
BRANCH   1   2
HETATM    2  S   UNK N   1      30.104  18.571   9.150  0.00  0.00     0.000 SA
HETATM    3  S   UNK N   1      28.195  17.637   9.158  0.00  0.00     0.000 SA
ENDBRANCH   1   2
BRANCH   1   4
HETATM    4  S   UNK N   1      32.878  17.835   8.148  0.00  0.00     0.000 SA
HETATM    5  S   UNK N   1      33.524  17.356   6.180  0.00  0.00     0.000 SA
ENDBRANCH   1   4
TORSDOF 2
ENDMDL
MODEL 2
REMARK VINA RESULT:      -2.0      0.207      4.279
REMARK  2 active torsions:
REMARK  status: ('A' for Active; 'I' for Inactive)
REMARK    1  A    between atoms: S_2  and  S_3 
REMARK    2  A    between atoms: S_3  and  S_4 
ROOT
HETATM    1  S   UNK N   1      31.050  16.961   8.104  0.00  0.00     0.000 SA
ENDROOT
BRANCH   1   2
HETATM    2  S   UNK N   1      32.951  17.909   8.161  0.00  0.00     0.000 SA
HETATM    3  S   UNK N   1      33.397  17.356   6.158  0.00  0.00     0.000 SA
ENDBRANCH   1   2
BRANCH   1   4
HETATM    4  S   UNK N   1      30.155  18.585   9.144  0.00  0.00     0.000 SA
HETATM    5  S   UNK N   1      28.238  17.666   9.132  0.00  0.00     0.000 SA
ENDBRANCH   1   4
TORSDOF 2
ENDMDL
MODEL 3
REMARK VINA RESULT:      -1.9      3.705      4.825
REMARK  2 active torsions:
REMARK  status: ('A' for Active; 'I' for Inactive)
REMARK    1  A    between atoms: S_2  and  S_3 
REMARK    2  A    between atoms: S_3  and  S_4 
ROOT
HETATM    1  S   UNK N   1      34.180  16.019   8.835  0.00  0.00     0.000 SA
ENDROOT
BRANCH   1   2
HETATM    2  S   UNK N   1      34.294  18.003   8.081  0.00  0.00     0.000 SA
HETATM    3  S   UNK N   1      33.567  17.423   6.169  0.00  0.00     0.000 SA
ENDBRANCH   1   2
BRANCH   1   4
HETATM    4  S   UNK N   1      35.325  16.553  10.545  0.00  0.00     0.000 SA
HETATM    5  S   UNK N   1      36.610  14.872  10.333  0.00  0.00     0.000 SA
ENDBRANCH   1   4
TORSDOF 2
ENDMDL
MODEL 4
REMARK VINA RESULT:      -1.9      2.132      3.704
REMARK  2 active torsions:
REMARK  status: ('A' for Active; 'I' for Inactive)
REMARK    1  A    between atoms: S_2  and  S_3 
REMARK    2  A    between atoms: S_3  and  S_4 
ROOT
HETATM    1  S   UNK N   1      31.976  17.648   8.372  0.00  0.00     0.000 SA
ENDROOT
BRANCH   1   2
HETATM    2  S   UNK N   1      31.573  16.908   6.421  0.00  0.00     0.000 SA
HETATM    3  S   UNK N   1      33.551  17.308   5.753  0.00  0.00     0.000 SA
ENDBRANCH   1   2
BRANCH   1   4
HETATM    4  S   UNK N   1      34.017  17.979   7.877  0.00  0.00     0.000 SA
HETATM    5  S   UNK N   1      34.707  16.779   9.490  0.00  0.00     0.000 SA
ENDBRANCH   1   4
TORSDOF 2
ENDMDL
MODEL 5
REMARK VINA RESULT:      -1.9      3.315      5.014
REMARK  2 active torsions:
REMARK  status: ('A' for Active; 'I' for Inactive)
REMARK    1  A    between atoms: S_2  and  S_3 
REMARK    2  A    between atoms: S_3  and  S_4 
ROOT
HETATM    1  S   UNK N   1      34.389  15.785   9.069  0.00  0.00     0.000 SA
ENDROOT
BRANCH   1   2
HETATM    2  S   UNK N   1      35.453  16.412  10.799  0.00  0.00     0.000 SA
HETATM    3  S   UNK N   1      35.209  14.529  11.753  0.00  0.00     0.000 SA
ENDBRANCH   1   2
BRANCH   1   4
HETATM    4  S   UNK N   1      34.287  17.782   8.349  0.00  0.00     0.000 SA
HETATM    5  S   UNK N   1      32.164  17.745   8.254  0.00  0.00     0.000 SA
ENDBRANCH   1   4
TORSDOF 2
ENDMDL
MODEL 6
REMARK VINA RESULT:      -1.9      2.103      3.657
REMARK  2 active torsions:
REMARK  status: ('A' for Active; 'I' for Inactive)
REMARK    1  A    between atoms: S_2  and  S_3 
REMARK    2  A    between atoms: S_3  and  S_4 
ROOT
HETATM    1  S   UNK N   1      31.907  17.614   8.323  0.00  0.00     0.000 SA
ENDROOT
BRANCH   1   2
HETATM    2  S   UNK N   1      33.940  18.011   7.849  0.00  0.00     0.000 SA
HETATM    3  S   UNK N   1      34.653  16.792   9.437  0.00  0.00     0.000 SA
ENDBRANCH   1   2
BRANCH   1   4
HETATM    4  S   UNK N   1      31.580  16.747   6.409  0.00  0.00     0.000 SA
HETATM    5  S   UNK N   1      33.496  17.340   5.704  0.00  0.00     0.000 SA
ENDBRANCH   1   4
TORSDOF 2
ENDMDL
MODEL 7
REMARK VINA RESULT:      -1.9      4.291      5.990
REMARK  2 active torsions:
REMARK  status: ('A' for Active; 'I' for Inactive)
REMARK    1  A    between atoms: S_2  and  S_3 
REMARK    2  A    between atoms: S_3  and  S_4 
ROOT
HETATM    1  S   UNK N   1      35.369  16.576  10.634  0.00  0.00     0.000 SA
ENDROOT
BRANCH   1   2
HETATM    2  S   UNK N   1      36.349  14.690  10.618  0.00  0.00     0.000 SA
HETATM    3  S   UNK N   1      35.994  14.376  12.690  0.00  0.00     0.000 SA
ENDBRANCH   1   2
BRANCH   1   4
HETATM    4  S   UNK N   1      34.279  16.078   8.878  0.00  0.00     0.000 SA
HETATM    5  S   UNK N   1      34.332  18.078   8.159  0.00  0.00     0.000 SA
ENDBRANCH   1   4
TORSDOF 2
ENDMDL
MODEL 8
REMARK VINA RESULT:      -1.9      3.582      4.423
REMARK  2 active torsions:
REMARK  status: ('A' for Active; 'I' for Inactive)
REMARK    1  A    between atoms: S_2  and  S_3 
REMARK    2  A    between atoms: S_3  and  S_4 
ROOT
HETATM    1  S   UNK N   1      34.255  18.099   8.103  0.00  0.00     0.000 SA
ENDROOT
BRANCH   1   2
HETATM    2  S   UNK N   1      33.625  17.341   6.220  0.00  0.00     0.000 SA
HETATM    3  S   UNK N   1      33.309  15.389   7.000  0.00  0.00     0.000 SA
ENDBRANCH   1   2
BRANCH   1   4
HETATM    4  S   UNK N   1      33.858  16.233   9.041  0.00  0.00     0.000 SA
HETATM    5  S   UNK N   1      35.342  16.553  10.530  0.00  0.00     0.000 SA
ENDBRANCH   1   4
TORSDOF 2
ENDMDL
MODEL 9
REMARK VINA RESULT:      -1.8      2.154      4.021
REMARK  2 active torsions:
REMARK  status: ('A' for Active; 'I' for Inactive)
REMARK    1  A    between atoms: S_2  and  S_3 
REMARK    2  A    between atoms: S_3  and  S_4 
ROOT
HETATM    1  S   UNK N   1      31.470  16.840   6.491  0.00  0.00     0.000 SA
ENDROOT
BRANCH   1   2
HETATM    2  S   UNK N   1      33.371  17.321   5.672  0.00  0.00     0.000 SA
HETATM    3  S   UNK N   1      32.682  17.085   3.676  0.00  0.00     0.000 SA
ENDBRANCH   1   2
BRANCH   1   4
HETATM    4  S   UNK N   1      32.010  17.687   8.365  0.00  0.00     0.000 SA
HETATM    5  S   UNK N   1      34.032  17.965   7.769  0.00  0.00     0.000 SA
ENDBRANCH   1   4
TORSDOF 2
ENDMDL
