MODEL 1
REMARK VINA RESULT:     -10.0      0.000      0.000
REMARK  23 active torsions:
REMARK  status: ('A' for Active; 'I' for Inactive)
REMARK    1  A    between atoms: C_25  and  C_16 
REMARK    2  A    between atoms: O_72  and  C_16 
REMARK    3  A    between atoms: C_26  and  C_17 
REMARK    4  A    between atoms: O_73  and  C_17 
REMARK    5  A    between atoms: C_28  and  C_21 
REMARK    6  A    between atoms: C_34  and  C_22 
REMARK    7  A    between atoms: C_24  and  N_58 
REMARK    8  A    between atoms: C_37  and  C_28 
REMARK    9  A    between atoms: C_28  and  N_56 
REMARK   10  A    between atoms: C_29  and  O_59 
REMARK   11  A    between atoms: C_30  and  O_60 
REMARK   12  A    between atoms: C_31  and  O_62 
REMARK   13  A    between atoms: C_32  and  O_63 
REMARK   14  A    between atoms: N_41  and  C_33 
REMARK   15  A    between atoms: N_42  and  C_34 
REMARK   16  A    between atoms: O_65  and  C_34 
REMARK       I    between atoms: N_54  and  C_37 
REMARK   17  A    between atoms: C_38  and  N_55 
REMARK   18  A    between atoms: C_39  and  N_57 
REMARK   19  A    between atoms: P_78  and  O_70 
REMARK   20  A    between atoms: P_77  and  O_72 
REMARK   21  A    between atoms: P_78  and  O_73 
REMARK   22  A    between atoms: P_77  and  O_76 
REMARK   23  A    between atoms: P_78  and  O_76 
ROOT
HETATM    1  C   UNK N   1      31.269  16.275   7.298  0.00  0.00     0.180 C 
HETATM    2  C   UNK N   1      31.970  16.773   6.055  0.00  0.00     0.182 C 
HETATM    3  C   UNK N   1      32.541  15.484   5.559  0.00  0.00     0.198 C 
HETATM    4  C   UNK N   1      32.845  14.724   6.894  0.00  0.00     0.259 C 
HETATM    5  O   UNK N   1      32.169  15.398   7.929  0.00  0.00    -0.353 OA
ENDROOT
BRANCH   4   6
HETATM    6  N   UNK N   1      34.260  14.649   7.171  0.00  0.00    -0.337 N 
HETATM    7  C   UNK N   1      35.065  13.615   6.597  0.00  0.00     0.091 C 
HETATM    8  C   UNK N   1      36.238  13.278   7.145  0.00  0.00     0.017 C 
HETATM    9  C   UNK N   1      36.755  14.060   8.311  0.00  0.00     0.147 C 
HETATM   10  C   UNK N   1      35.768  15.071   8.981  0.00  0.00     0.031 C 
HETATM   11  C   UNK N   1      34.683  15.376   8.301  0.00  0.00     0.106 C 
BRANCH   9  12
HETATM   12  N   UNK N   1      37.926  13.467   9.006  0.00  0.00    -0.192 NA
HETATM   13  C   UNK N   1      37.977  12.117   9.040  0.00  0.00     0.102 C 
HETATM   14  C   UNK N   1      37.916  11.758  10.356  0.00  0.00     0.059 C 
HETATM   15  C   UNK N   1      38.046  12.895  11.058  0.00  0.00     0.131 C 
HETATM   16  C   UNK N   1      37.366  10.614  10.926  0.00  0.00     0.119 C 
HETATM   17  N   UNK N   1      37.721  12.986  12.350  0.00  0.00    -0.337 N 
HETATM   18  N   UNK N   1      38.110  13.932  10.238  0.00  0.00    -0.299 N 
HETATM   19  C   UNK N   1      37.018  11.955  12.877  0.00  0.00     0.186 C 
ATOM     20  HN  UNK N   1      37.989  13.793  12.913  1.00  0.00     0.168 HD
HETATM   21  N   UNK N   1      36.723  10.815  12.143  0.00  0.00    -0.315 N 
ATOM     22  HN  UNK N   1      38.271  14.905  10.501  1.00  0.00     0.183 HD
HETATM   23  S   UNK N   1      37.246   9.399  10.159  0.00  0.00    -0.059 SA
BRANCH  21  24
HETATM   24  C   UNK N   1      35.486  10.121  12.633  0.00  0.00     0.216 C 
BRANCH  24  25
HETATM   25  C   UNK N   1      34.362   9.515  11.761  0.00  0.00    -0.026 A 
HETATM   26  C   UNK N   1      33.608  10.386  10.953  0.00  0.00     0.010 A 
HETATM   27  C   UNK N   1      32.693   9.897  10.011  0.00  0.00     0.001 A 
HETATM   28  C   UNK N   1      32.523   8.522   9.849  0.00  0.00     0.000 A 
HETATM   29  C   UNK N   1      33.288   7.639  10.605  0.00  0.00     0.001 A 
HETATM   30  C   UNK N   1      34.223   8.135  11.521  0.00  0.00     0.010 A 
ENDBRANCH  24  25
BRANCH  24  31
HETATM   31  C   UNK N   1      35.675   9.577  14.032  0.00  0.00     0.247 C 
HETATM   32  N   UNK N   1      34.955  10.029  15.088  0.00  0.00    -0.350 N 
HETATM   33  C   UNK N   1      33.999  11.104  14.946  0.00  0.00     0.126 C 
HETATM   34  C   UNK N   1      35.054   9.341  16.358  0.00  0.00     0.126 C 
HETATM   35  C   UNK N   1      34.584  12.461  15.360  0.00  0.00     0.020 C 
HETATM   36  C   UNK N   1      35.617  12.432  16.490  0.00  0.00     0.002 C 
HETATM   37  C   UNK N   1      35.236  11.498  17.626  0.00  0.00     0.002 C 
HETATM   38  C   UNK N   1      35.856  10.136  17.374  0.00  0.00     0.020 C 
HETATM   39  O   UNK N   1      36.471   8.657  14.191  0.00  0.00    -0.271 OA
ENDBRANCH  24  31
ENDBRANCH  21  24
ENDBRANCH   9  12
BRANCH  10  40
HETATM   40  C   UNK N   1      35.756  15.707  10.337  0.00  0.00     0.143 C 
BRANCH  40  41
HETATM   41  N   UNK N   1      34.661  15.939  10.948  0.00  0.00    -0.380 N 
HETATM   42  H   UNK N   1      34.051  16.240  11.660  0.00  0.00     0.158 HD
ATOM     43  HN  UNK N   1      33.989  15.588  10.266  1.00  0.00     0.158 HD
ENDBRANCH  40  41
BRANCH  40  44
HETATM   44  O   UNK N   1      36.870  16.329  10.779  0.00  0.00    -0.346 OA
ATOM     45  HO  UNK N   1      37.714  15.914  10.646  1.00  0.00     0.219 HD
ENDBRANCH  40  44
ENDBRANCH  10  40
ENDBRANCH   4   6
BRANCH   3  46
HETATM   46  O   UNK N   1      33.626  15.742   4.712  0.00  0.00    -0.388 OA
HETATM   47  H   UNK N   1      34.048  15.276   3.973  0.00  0.00     0.210 HD
ENDBRANCH   3  46
BRANCH   2  48
HETATM   48  O   UNK N   1      31.104  17.351   5.123  0.00  0.00    -0.390 OA
HETATM   49  H   UNK N   1      30.198  17.661   5.277  0.00  0.00     0.210 HD
ENDBRANCH   2  48
BRANCH   1  50
HETATM   50  C   UNK N   1      30.909  17.386   8.270  0.00  0.00     0.216 C 
BRANCH  50  51
HETATM   51  O   UNK N   1      29.797  18.022   7.720  0.00  0.00    -0.287 OA
BRANCH  51  52
HETATM   52  P   UNK N   1      28.390  17.081   8.070  0.00  0.00     0.417 P 
HETATM   53  O   UNK N   1      27.860  18.607   7.433  0.00  0.00    -0.624 OA
HETATM   54  O   UNK N   1      27.775  17.613   9.390  0.00  0.00    -0.624 OA
BRANCH  52  55
HETATM   55  O   UNK N   1      27.097  16.739   6.952  0.00  0.00    -0.188 OA
BRANCH  55  56
HETATM   56  P   UNK N   1      27.778  16.111   5.472  0.00  0.00     0.402 P 
HETATM   57  O   UNK N   1      26.630  15.327   4.785  0.00  0.00    -0.631 OA
BRANCH  56  58
HETATM   58  O   UNK N   1      29.076  14.976   5.700  0.00  0.00    -0.307 OA
HETATM   59  H   UNK N   1      29.098  14.014   5.581  0.00  0.00     0.222 HD
ENDBRANCH  56  58
BRANCH  56  60
HETATM   60  O   UNK N   1      28.200  17.383   4.356  0.00  0.00    -0.294 OA
BRANCH  60  61
HETATM   61  C   UNK N   1      27.077  17.520   3.540  0.00  0.00     0.215 C 
BRANCH  61  62
HETATM   62  C   UNK N   1      26.023  18.458   4.134  0.00  0.00     0.180 C 
HETATM   63  C   UNK N   1      26.335  19.964   4.025  0.00  0.00     0.182 C 
HETATM   64  C   UNK N   1      25.013  20.546   3.549  0.00  0.00     0.198 C 
HETATM   65  C   UNK N   1      24.069  19.468   4.038  0.00  0.00     0.262 C 
HETATM   66  O   UNK N   1      24.698  18.256   3.667  0.00  0.00    -0.353 OA
BRANCH  63  67
HETATM   67  O   UNK N   1      27.377  20.275   3.145  0.00  0.00    -0.390 OA
ATOM     68  HO  UNK N   1      27.176  20.971   2.530  1.00  0.00     0.210 HD
ENDBRANCH  63  67
BRANCH  64  69
HETATM   69  O   UNK N   1      24.973  20.582   2.150  0.00  0.00    -0.388 OA
ATOM     70  HO  UNK N   1      25.064  21.476   1.841  1.00  0.00     0.210 HD
ENDBRANCH  64  69
BRANCH  65  71
HETATM   71  N   UNK N   1      22.695  19.584   3.533  0.00  0.00    -0.297 N 
HETATM   72  C   UNK N   1      22.177  20.558   2.740  0.00  0.00     0.188 A 
HETATM   73  N   UNK N   1      20.900  20.257   2.357  0.00  0.00    -0.346 N 
HETATM   74  C   UNK N   1      20.646  19.073   2.942  0.00  0.00     0.122 A 
ATOM     75  HN  UNK N   1      20.280  20.807   1.762  1.00  0.00     0.167 HD
HETATM   76  C   UNK N   1      19.519  18.263   2.877  0.00  0.00     0.131 A 
HETATM   77  C   UNK N   1      21.716  18.676   3.657  0.00  0.00     0.142 A 
HETATM   78  N   UNK N   1      19.532  17.091   3.579  0.00  0.00    -0.337 N 
HETATM   79  C   UNK N   1      20.629  16.720   4.318  0.00  0.00     0.183 A 
ATOM     80  HN  UNK N   1      18.713  16.482   3.554  1.00  0.00     0.168 HD
HETATM   81  N   UNK N   1      21.744  17.513   4.347  0.00  0.00    -0.336 N 
ATOM     82  HN  UNK N   1      22.573  17.235   4.874  1.00  0.00     0.168 HD
BRANCH  76  83
HETATM   83  N   UNK N   1      18.403  18.619   2.093  0.00  0.00    -0.383 N 
HETATM   84  H   UNK N   1      18.248  19.561   1.852  0.00  0.00     0.157 HD
HETATM   85  H   UNK N   1      17.778  17.924   1.785  0.00  0.00     0.157 HD
ENDBRANCH  76  83
ENDBRANCH  65  71
ENDBRANCH  61  62
ENDBRANCH  60  61
ENDBRANCH  56  60
ENDBRANCH  55  56
ENDBRANCH  52  55
ENDBRANCH  51  52
ENDBRANCH  50  51
ENDBRANCH   1  50
TORSDOF 23
ENDMDL
MODEL 2
REMARK VINA RESULT:      -9.9      2.985      4.013
REMARK  23 active torsions:
REMARK  status: ('A' for Active; 'I' for Inactive)
REMARK    1  A    between atoms: C_25  and  C_16 
REMARK    2  A    between atoms: O_72  and  C_16 
REMARK    3  A    between atoms: C_26  and  C_17 
REMARK    4  A    between atoms: O_73  and  C_17 
REMARK    5  A    between atoms: C_28  and  C_21 
REMARK    6  A    between atoms: C_34  and  C_22 
REMARK    7  A    between atoms: C_24  and  N_58 
REMARK    8  A    between atoms: C_37  and  C_28 
REMARK    9  A    between atoms: C_28  and  N_56 
REMARK   10  A    between atoms: C_29  and  O_59 
REMARK   11  A    between atoms: C_30  and  O_60 
REMARK   12  A    between atoms: C_31  and  O_62 
REMARK   13  A    between atoms: C_32  and  O_63 
REMARK   14  A    between atoms: N_41  and  C_33 
REMARK   15  A    between atoms: N_42  and  C_34 
REMARK   16  A    between atoms: O_65  and  C_34 
REMARK       I    between atoms: N_54  and  C_37 
REMARK   17  A    between atoms: C_38  and  N_55 
REMARK   18  A    between atoms: C_39  and  N_57 
REMARK   19  A    between atoms: P_78  and  O_70 
REMARK   20  A    between atoms: P_77  and  O_72 
REMARK   21  A    between atoms: P_78  and  O_73 
REMARK   22  A    between atoms: P_77  and  O_76 
REMARK   23  A    between atoms: P_78  and  O_76 
ROOT
HETATM    1  C   UNK N   1      31.225  16.122   7.327  0.00  0.00     0.180 C 
HETATM    2  C   UNK N   1      31.926  16.799   6.173  0.00  0.00     0.182 C 
HETATM    3  C   UNK N   1      32.572  15.609   5.541  0.00  0.00     0.198 C 
HETATM    4  C   UNK N   1      32.884  14.706   6.783  0.00  0.00     0.259 C 
HETATM    5  O   UNK N   1      32.153  15.217   7.872  0.00  0.00    -0.353 OA
ENDROOT
BRANCH   4   6
HETATM    6  N   UNK N   1      34.295  14.665   7.088  0.00  0.00    -0.337 N 
HETATM    7  C   UNK N   1      35.147  13.690   6.480  0.00  0.00     0.091 C 
HETATM    8  C   UNK N   1      36.319  13.365   7.036  0.00  0.00     0.017 C 
HETATM    9  C   UNK N   1      36.784  14.101   8.253  0.00  0.00     0.147 C 
HETATM   10  C   UNK N   1      35.749  15.041   8.952  0.00  0.00     0.031 C 
HETATM   11  C   UNK N   1      34.668  15.345   8.264  0.00  0.00     0.106 C 
BRANCH   9  12
HETATM   12  N   UNK N   1      37.960  13.511   8.943  0.00  0.00    -0.192 NA
HETATM   13  C   UNK N   1      38.016  12.162   8.976  0.00  0.00     0.102 C 
HETATM   14  C   UNK N   1      37.961  11.802  10.291  0.00  0.00     0.059 C 
HETATM   15  C   UNK N   1      38.090  12.939  10.994  0.00  0.00     0.131 C 
HETATM   16  C   UNK N   1      37.418  10.655  10.863  0.00  0.00     0.119 C 
HETATM   17  N   UNK N   1      37.770  13.028  12.287  0.00  0.00    -0.337 N 
HETATM   18  N   UNK N   1      38.147  13.976  10.174  0.00  0.00    -0.299 N 
HETATM   19  C   UNK N   1      37.073  11.994  12.816  0.00  0.00     0.186 C 
ATOM     20  HN  UNK N   1      38.037  13.836  12.850  1.00  0.00     0.168 HD
HETATM   21  N   UNK N   1      36.778  10.853  12.083  0.00  0.00    -0.315 N 
ATOM     22  HN  UNK N   1      38.306  14.949  10.437  1.00  0.00     0.183 HD
HETATM   23  S   UNK N   1      37.299   9.441  10.096  0.00  0.00    -0.059 SA
BRANCH  21  24
HETATM   24  C   UNK N   1      35.547  10.154  12.578  0.00  0.00     0.216 C 
BRANCH  24  25
HETATM   25  C   UNK N   1      34.399   9.585  11.711  0.00  0.00    -0.026 A 
HETATM   26  C   UNK N   1      33.665  10.480  10.912  0.00  0.00     0.010 A 
HETATM   27  C   UNK N   1      32.730  10.022   9.975  0.00  0.00     0.001 A 
HETATM   28  C   UNK N   1      32.519   8.653   9.809  0.00  0.00     0.000 A 
HETATM   29  C   UNK N   1      33.264   7.745  10.556  0.00  0.00     0.001 A 
HETATM   30  C   UNK N   1      34.219   8.211  11.467  0.00  0.00     0.010 A 
ENDBRANCH  24  25
BRANCH  24  31
HETATM   31  C   UNK N   1      35.760   9.567  13.955  0.00  0.00     0.247 C 
HETATM   32  N   UNK N   1      35.014   9.938  15.025  0.00  0.00    -0.350 N 
HETATM   33  C   UNK N   1      34.004  10.966  14.920  0.00  0.00     0.126 C 
HETATM   34  C   UNK N   1      35.145   9.207  16.267  0.00  0.00     0.126 C 
HETATM   35  C   UNK N   1      34.516  12.335  15.389  0.00  0.00     0.020 C 
HETATM   36  C   UNK N   1      35.546  12.316  16.522  0.00  0.00     0.002 C 
HETATM   37  C   UNK N   1      35.210  11.319  17.619  0.00  0.00     0.002 C 
HETATM   38  C   UNK N   1      35.902  10.002  17.317  0.00  0.00     0.020 C 
HETATM   39  O   UNK N   1      36.602   8.684  14.082  0.00  0.00    -0.271 OA
ENDBRANCH  24  31
ENDBRANCH  21  24
ENDBRANCH   9  12
BRANCH  10  40
HETATM   40  C   UNK N   1      35.685  15.604  10.338  0.00  0.00     0.143 C 
BRANCH  40  41
HETATM   41  N   UNK N   1      34.570  15.884  10.887  0.00  0.00    -0.380 N 
HETATM   42  H   UNK N   1      33.921  16.339  11.471  0.00  0.00     0.158 HD
ATOM     43  HN  UNK N   1      33.963  15.200  10.434  1.00  0.00     0.158 HD
ENDBRANCH  40  41
BRANCH  40  44
HETATM   44  O   UNK N   1      36.807  16.118  10.889  0.00  0.00    -0.346 OA
ATOM     45  HO  UNK N   1      36.742  16.587  11.712  1.00  0.00     0.219 HD
ENDBRANCH  40  44
ENDBRANCH  10  40
ENDBRANCH   4   6
BRANCH   3  46
HETATM   46  O   UNK N   1      33.661  16.019   4.762  0.00  0.00    -0.388 OA
HETATM   47  H   UNK N   1      34.550  16.361   4.947  0.00  0.00     0.210 HD
ENDBRANCH   3  46
BRANCH   2  48
HETATM   48  O   UNK N   1      31.054  17.446   5.294  0.00  0.00    -0.390 OA
HETATM   49  H   UNK N   1      30.770  17.140   4.418  0.00  0.00     0.210 HD
ENDBRANCH   2  48
BRANCH   1  50
HETATM   50  C   UNK N   1      30.789  17.088   8.415  0.00  0.00     0.216 C 
BRANCH  50  51
HETATM   51  O   UNK N   1      29.946  18.006   7.789  0.00  0.00    -0.287 OA
BRANCH  51  52
HETATM   52  P   UNK N   1      28.348  17.349   7.739  0.00  0.00     0.417 P 
HETATM   53  O   UNK N   1      28.211  19.077   7.651  0.00  0.00    -0.624 OA
HETATM   54  O   UNK N   1      27.709  17.541   9.139  0.00  0.00    -0.624 OA
BRANCH  52  55
HETATM   55  O   UNK N   1      27.147  17.698   6.526  0.00  0.00    -0.188 OA
BRANCH  55  56
HETATM   56  P   UNK N   1      27.561  16.848   5.057  0.00  0.00     0.402 P 
HETATM   57  O   UNK N   1      28.580  15.758   5.481  0.00  0.00    -0.631 OA
BRANCH  56  58
HETATM   58  O   UNK N   1      28.361  17.824   3.861  0.00  0.00    -0.307 OA
HETATM   59  H   UNK N   1      29.269  18.161   3.828  0.00  0.00     0.222 HD
ENDBRANCH  56  58
BRANCH  56  60
HETATM   60  O   UNK N   1      26.202  15.977   4.401  0.00  0.00    -0.294 OA
BRANCH  60  61
HETATM   61  C   UNK N   1      25.749  15.186   5.457  0.00  0.00     0.215 C 
BRANCH  61  62
HETATM   62  C   UNK N   1      24.300  15.488   5.846  0.00  0.00     0.180 C 
HETATM   63  C   UNK N   1      23.227  14.972   4.865  0.00  0.00     0.182 C 
HETATM   64  C   UNK N   1      22.201  14.341   5.794  0.00  0.00     0.198 C 
HETATM   65  C   UNK N   1      22.511  15.098   7.068  0.00  0.00     0.262 C 
HETATM   66  O   UNK N   1      23.924  15.081   7.152  0.00  0.00    -0.353 OA
BRANCH  63  67
HETATM   67  O   UNK N   1      23.700  14.051   3.925  0.00  0.00    -0.390 OA
ATOM     68  HO  UNK N   1      23.304  13.189   3.986  1.00  0.00     0.210 HD
ENDBRANCH  63  67
BRANCH  64  69
HETATM   69  O   UNK N   1      22.492  12.986   5.991  0.00  0.00    -0.388 OA
ATOM     70  HO  UNK N   1      23.420  12.869   6.160  1.00  0.00     0.210 HD
ENDBRANCH  64  69
BRANCH  65  71
HETATM   71  N   UNK N   1      21.855  14.566   8.270  0.00  0.00    -0.297 N 
HETATM   72  C   UNK N   1      20.622  14.871   8.751  0.00  0.00     0.188 A 
HETATM   73  N   UNK N   1      20.293  14.072   9.811  0.00  0.00    -0.346 N 
HETATM   74  C   UNK N   1      21.363  13.273   9.971  0.00  0.00     0.122 A 
ATOM     75  HN  UNK N   1      19.432  14.082  10.357  1.00  0.00     0.167 HD
HETATM   76  C   UNK N   1      21.583  12.236  10.869  0.00  0.00     0.131 A 
HETATM   77  C   UNK N   1      22.303  13.577   9.056  0.00  0.00     0.142 A 
HETATM   78  N   UNK N   1      22.778  11.577  10.807  0.00  0.00    -0.337 N 
HETATM   79  C   UNK N   1      23.729  11.923   9.878  0.00  0.00     0.183 A 
ATOM     80  HN  UNK N   1      22.967  10.817  11.461  1.00  0.00     0.168 HD
HETATM   81  N   UNK N   1      23.486  12.925   8.979  0.00  0.00    -0.336 N 
ATOM     82  HN  UNK N   1      24.176  13.173   8.269  1.00  0.00     0.168 HD
BRANCH  76  83
HETATM   83  N   UNK N   1      20.598  11.852  11.803  0.00  0.00    -0.383 N 
HETATM   84  H   UNK N   1      20.712  12.065  12.757  0.00  0.00     0.157 HD
HETATM   85  H   UNK N   1      19.795  11.371  11.499  0.00  0.00     0.157 HD
ENDBRANCH  76  83
ENDBRANCH  65  71
ENDBRANCH  61  62
ENDBRANCH  60  61
ENDBRANCH  56  60
ENDBRANCH  55  56
ENDBRANCH  52  55
ENDBRANCH  51  52
ENDBRANCH  50  51
ENDBRANCH   1  50
TORSDOF 23
ENDMDL
MODEL 3
REMARK VINA RESULT:      -9.8      6.868     12.062
REMARK  23 active torsions:
REMARK  status: ('A' for Active; 'I' for Inactive)
REMARK    1  A    between atoms: C_25  and  C_16 
REMARK    2  A    between atoms: O_72  and  C_16 
REMARK    3  A    between atoms: C_26  and  C_17 
REMARK    4  A    between atoms: O_73  and  C_17 
REMARK    5  A    between atoms: C_28  and  C_21 
REMARK    6  A    between atoms: C_34  and  C_22 
REMARK    7  A    between atoms: C_24  and  N_58 
REMARK    8  A    between atoms: C_37  and  C_28 
REMARK    9  A    between atoms: C_28  and  N_56 
REMARK   10  A    between atoms: C_29  and  O_59 
REMARK   11  A    between atoms: C_30  and  O_60 
REMARK   12  A    between atoms: C_31  and  O_62 
REMARK   13  A    between atoms: C_32  and  O_63 
REMARK   14  A    between atoms: N_41  and  C_33 
REMARK   15  A    between atoms: N_42  and  C_34 
REMARK   16  A    between atoms: O_65  and  C_34 
REMARK       I    between atoms: N_54  and  C_37 
REMARK   17  A    between atoms: C_38  and  N_55 
REMARK   18  A    between atoms: C_39  and  N_57 
REMARK   19  A    between atoms: P_78  and  O_70 
REMARK   20  A    between atoms: P_77  and  O_72 
REMARK   21  A    between atoms: P_78  and  O_73 
REMARK   22  A    between atoms: P_77  and  O_76 
REMARK   23  A    between atoms: P_78  and  O_76 
ROOT
HETATM    1  C   UNK N   1      32.629  15.511   4.818  0.00  0.00     0.180 C 
HETATM    2  C   UNK N   1      32.105  16.539   3.842  0.00  0.00     0.182 C 
HETATM    3  C   UNK N   1      30.685  16.617   4.301  0.00  0.00     0.198 C 
HETATM    4  C   UNK N   1      30.411  15.148   4.772  0.00  0.00     0.259 C 
HETATM    5  O   UNK N   1      31.655  14.498   4.879  0.00  0.00    -0.353 OA
ENDROOT
BRANCH   4   6
HETATM    6  N   UNK N   1      29.539  14.438   3.867  0.00  0.00    -0.337 N 
HETATM    7  C   UNK N   1      28.118  14.577   3.958  0.00  0.00     0.091 C 
HETATM    8  C   UNK N   1      27.305  13.649   3.441  0.00  0.00     0.017 C 
HETATM    9  C   UNK N   1      27.891  12.506   2.673  0.00  0.00     0.147 C 
HETATM   10  C   UNK N   1      29.443  12.329   2.737  0.00  0.00     0.031 C 
HETATM   11  C   UNK N   1      30.135  13.350   3.199  0.00  0.00     0.106 C 
BRANCH   9  12
HETATM   12  N   UNK N   1      26.948  11.403   2.355  0.00  0.00    -0.192 NA
HETATM   13  C   UNK N   1      26.163  11.585   1.271  0.00  0.00     0.102 C 
HETATM   14  C   UNK N   1      24.875  11.599   1.721  0.00  0.00     0.059 C 
HETATM   15  C   UNK N   1      24.925  11.217   3.007  0.00  0.00     0.131 C 
HETATM   16  C   UNK N   1      23.778  12.291   1.215  0.00  0.00     0.119 C 
HETATM   17  N   UNK N   1      23.916  11.414   3.859  0.00  0.00    -0.337 N 
HETATM   18  N   UNK N   1      26.183  11.041   3.380  0.00  0.00    -0.299 N 
HETATM   19  C   UNK N   1      22.924  12.240   3.449  0.00  0.00     0.186 C 
ATOM     20  HN  UNK N   1      23.894  10.965   4.775  1.00  0.00     0.168 HD
HETATM   21  N   UNK N   1      22.902  12.788   2.174  0.00  0.00    -0.315 N 
ATOM     22  HN  UNK N   1      26.505  10.692   4.284  1.00  0.00     0.183 HD
HETATM   23  S   UNK N   1      23.737  12.682  -0.172  0.00  0.00    -0.059 SA
BRANCH  21  24
HETATM   24  C   UNK N   1      22.144  14.082   2.118  0.00  0.00     0.216 C 
BRANCH  24  25
HETATM   25  C   UNK N   1      20.896  14.382   1.256  0.00  0.00    -0.026 A 
HETATM   26  C   UNK N   1      20.029  13.316   0.951  0.00  0.00     0.010 A 
HETATM   27  C   UNK N   1      18.796  13.536   0.325  0.00  0.00     0.001 A 
HETATM   28  C   UNK N   1      18.397  14.834   0.003  0.00  0.00     0.000 A 
HETATM   29  C   UNK N   1      19.216  15.909   0.334  0.00  0.00     0.001 A 
HETATM   30  C   UNK N   1      20.432  15.683   0.988  0.00  0.00     0.010 A 
ENDBRANCH  24  25
BRANCH  24  31
HETATM   31  C   UNK N   1      22.364  14.905   3.368  0.00  0.00     0.247 C 
HETATM   32  N   UNK N   1      21.587  14.770   4.471  0.00  0.00    -0.350 N 
HETATM   33  C   UNK N   1      20.460  13.866   4.494  0.00  0.00     0.126 C 
HETATM   34  C   UNK N   1      21.964  15.453   5.690  0.00  0.00     0.126 C 
HETATM   35  C   UNK N   1      19.132  14.584   4.215  0.00  0.00     0.020 C 
HETATM   36  C   UNK N   1      19.030  16.028   4.715  0.00  0.00     0.002 C 
HETATM   37  C   UNK N   1      19.612  16.222   6.105  0.00  0.00     0.002 C 
HETATM   38  C   UNK N   1      21.065  16.643   5.976  0.00  0.00     0.020 C 
HETATM   39  O   UNK N   1      23.317  15.677   3.390  0.00  0.00    -0.271 OA
ENDBRANCH  24  31
ENDBRANCH  21  24
ENDBRANCH   9  12
BRANCH  10  40
HETATM   40  C   UNK N   1      30.328  11.152   2.467  0.00  0.00     0.143 C 
BRANCH  40  41
HETATM   41  N   UNK N   1      29.960  10.215   1.683  0.00  0.00    -0.380 N 
HETATM   42  H   UNK N   1      29.708   9.311   1.386  0.00  0.00     0.158 HD
ATOM     43  HN  UNK N   1      29.873  10.730   0.807  1.00  0.00     0.158 HD
ENDBRANCH  40  41
BRANCH  40  44
HETATM   44  O   UNK N   1      31.372  10.913   3.289  0.00  0.00    -0.346 OA
ATOM     45  HO  UNK N   1      31.986  10.224   3.066  1.00  0.00     0.219 HD
ENDBRANCH  40  44
ENDBRANCH  10  40
ENDBRANCH   4   6
BRANCH   3  46
HETATM   46  O   UNK N   1      29.881  17.115   3.269  0.00  0.00    -0.388 OA
HETATM   47  H   UNK N   1      30.034  17.652   2.475  0.00  0.00     0.210 HD
ENDBRANCH   3  46
BRANCH   2  48
HETATM   48  O   UNK N   1      32.750  17.774   3.936  0.00  0.00    -0.390 OA
HETATM   49  H   UNK N   1      33.699  17.950   3.836  0.00  0.00     0.210 HD
ENDBRANCH   2  48
BRANCH   1  50
HETATM   50  C   UNK N   1      33.949  14.894   4.388  0.00  0.00     0.216 C 
BRANCH  50  51
HETATM   51  O   UNK N   1      34.392  14.151   5.482  0.00  0.00    -0.287 OA
BRANCH  51  52
HETATM   52  P   UNK N   1      34.518  15.199   6.851  0.00  0.00     0.417 P 
HETATM   53  O   UNK N   1      35.994  15.331   5.946  0.00  0.00    -0.624 OA
HETATM   54  O   UNK N   1      35.425  14.506   7.900  0.00  0.00    -0.624 OA
BRANCH  52  55
HETATM   55  O   UNK N   1      34.925  16.893   6.795  0.00  0.00    -0.188 OA
BRANCH  55  56
HETATM   56  P   UNK N   1      34.036  17.730   8.043  0.00  0.00     0.402 P 
HETATM   57  O   UNK N   1      34.794  19.064   8.270  0.00  0.00    -0.631 OA
BRANCH  56  58
HETATM   58  O   UNK N   1      34.010  16.917   9.580  0.00  0.00    -0.307 OA
HETATM   59  H   UNK N   1      34.659  16.325   9.989  0.00  0.00     0.222 HD
ENDBRANCH  56  58
BRANCH  56  60
HETATM   60  O   UNK N   1      32.441  18.192   7.511  0.00  0.00    -0.294 OA
BRANCH  60  61
HETATM   61  C   UNK N   1      31.681  18.238   8.679  0.00  0.00     0.215 C 
BRANCH  61  62
HETATM   62  C   UNK N   1      30.445  17.337   8.619  0.00  0.00     0.180 C 
HETATM   63  C   UNK N   1      29.454  17.488   9.792  0.00  0.00     0.182 C 
HETATM   64  C   UNK N   1      28.108  17.542   9.086  0.00  0.00     0.198 C 
HETATM   65  C   UNK N   1      28.466  16.832   7.798  0.00  0.00     0.262 C 
HETATM   66  O   UNK N   1      29.701  17.404   7.412  0.00  0.00    -0.353 OA
BRANCH  63  67
HETATM   67  O   UNK N   1      29.664  18.624  10.581  0.00  0.00    -0.390 OA
ATOM     68  HO  UNK N   1      30.024  18.442  11.441  1.00  0.00     0.210 HD
ENDBRANCH  63  67
BRANCH  64  69
HETATM   69  O   UNK N   1      27.766  18.868   8.791  0.00  0.00    -0.388 OA
ATOM     70  HO  UNK N   1      28.193  19.461   9.399  1.00  0.00     0.210 HD
ENDBRANCH  64  69
BRANCH  65  71
HETATM   71  N   UNK N   1      27.440  16.913   6.750  0.00  0.00    -0.297 N 
HETATM   72  C   UNK N   1      26.337  16.136   6.601  0.00  0.00     0.188 A 
HETATM   73  N   UNK N   1      25.538  16.597   5.592  0.00  0.00    -0.346 N 
HETATM   74  C   UNK N   1      26.187  17.677   5.120  0.00  0.00     0.122 A 
ATOM     75  HN  UNK N   1      24.652  16.210   5.269  1.00  0.00     0.167 HD
HETATM   76  C   UNK N   1      25.833  18.571   4.118  0.00  0.00     0.131 A 
HETATM   77  C   UNK N   1      27.332  17.858   5.805  0.00  0.00     0.142 A 
HETATM   78  N   UNK N   1      26.690  19.598   3.842  0.00  0.00    -0.337 N 
HETATM   79  C   UNK N   1      27.864  19.747   4.542  0.00  0.00     0.183 A 
ATOM     80  HN  UNK N   1      26.456  20.264   3.106  1.00  0.00     0.168 HD
HETATM   81  N   UNK N   1      28.185  18.877   5.548  0.00  0.00    -0.336 N 
ATOM     82  HN  UNK N   1      29.042  18.993   6.090  1.00  0.00     0.168 HD
BRANCH  76  83
HETATM   83  N   UNK N   1      24.614  18.445   3.420  0.00  0.00    -0.383 N 
HETATM   84  H   UNK N   1      24.615  18.262   2.453  0.00  0.00     0.157 HD
HETATM   85  H   UNK N   1      23.761  18.541   3.901  0.00  0.00     0.157 HD
ENDBRANCH  76  83
ENDBRANCH  65  71
ENDBRANCH  61  62
ENDBRANCH  60  61
ENDBRANCH  56  60
ENDBRANCH  55  56
ENDBRANCH  52  55
ENDBRANCH  51  52
ENDBRANCH  50  51
ENDBRANCH   1  50
TORSDOF 23
ENDMDL
MODEL 4
REMARK VINA RESULT:      -9.8      4.589     14.680
REMARK  23 active torsions:
REMARK  status: ('A' for Active; 'I' for Inactive)
REMARK    1  A    between atoms: C_25  and  C_16 
REMARK    2  A    between atoms: O_72  and  C_16 
REMARK    3  A    between atoms: C_26  and  C_17 
REMARK    4  A    between atoms: O_73  and  C_17 
REMARK    5  A    between atoms: C_28  and  C_21 
REMARK    6  A    between atoms: C_34  and  C_22 
REMARK    7  A    between atoms: C_24  and  N_58 
REMARK    8  A    between atoms: C_37  and  C_28 
REMARK    9  A    between atoms: C_28  and  N_56 
REMARK   10  A    between atoms: C_29  and  O_59 
REMARK   11  A    between atoms: C_30  and  O_60 
REMARK   12  A    between atoms: C_31  and  O_62 
REMARK   13  A    between atoms: C_32  and  O_63 
REMARK   14  A    between atoms: N_41  and  C_33 
REMARK   15  A    between atoms: N_42  and  C_34 
REMARK   16  A    between atoms: O_65  and  C_34 
REMARK       I    between atoms: N_54  and  C_37 
REMARK   17  A    between atoms: C_38  and  N_55 
REMARK   18  A    between atoms: C_39  and  N_57 
REMARK   19  A    between atoms: P_78  and  O_70 
REMARK   20  A    between atoms: P_77  and  O_72 
REMARK   21  A    between atoms: P_78  and  O_73 
REMARK   22  A    between atoms: P_77  and  O_76 
REMARK   23  A    between atoms: P_78  and  O_76 
ROOT
HETATM    1  C   UNK N   1      32.049  15.651   6.482  0.00  0.00     0.180 C 
HETATM    2  C   UNK N   1      31.828  16.090   5.054  0.00  0.00     0.182 C 
HETATM    3  C   UNK N   1      31.199  17.423   5.298  0.00  0.00     0.198 C 
HETATM    4  C   UNK N   1      30.401  17.173   6.622  0.00  0.00     0.259 C 
HETATM    5  O   UNK N   1      30.867  15.965   7.176  0.00  0.00    -0.353 OA
ENDROOT
BRANCH   4   6
HETATM    6  N   UNK N   1      28.975  17.117   6.399  0.00  0.00    -0.337 N 
HETATM    7  C   UNK N   1      28.377  15.981   5.768  0.00  0.00     0.091 C 
HETATM    8  C   UNK N   1      27.176  16.075   5.186  0.00  0.00     0.017 C 
HETATM    9  C   UNK N   1      26.411  17.357   5.286  0.00  0.00     0.147 C 
HETATM   10  C   UNK N   1      27.176  18.597   5.852  0.00  0.00     0.031 C 
HETATM   11  C   UNK N   1      28.314  18.358   6.470  0.00  0.00     0.106 C 
BRANCH   9  12
HETATM   12  N   UNK N   1      25.216  17.455   4.409  0.00  0.00    -0.192 NA
HETATM   13  C   UNK N   1      24.018  17.454   5.033  0.00  0.00     0.102 C 
HETATM   14  C   UNK N   1      23.357  16.339   4.605  0.00  0.00     0.059 C 
HETATM   15  C   UNK N   1      24.086  15.838   3.595  0.00  0.00     0.131 C 
HETATM   16  C   UNK N   1      22.430  15.555   5.287  0.00  0.00     0.119 C 
HETATM   17  N   UNK N   1      23.930  14.593   3.140  0.00  0.00    -0.337 N 
HETATM   18  N   UNK N   1      25.191  16.550   3.436  0.00  0.00    -0.299 N 
HETATM   19  C   UNK N   1      23.177  13.758   3.895  0.00  0.00     0.186 C 
ATOM     20  HN  UNK N   1      24.357  14.285   2.266  1.00  0.00     0.168 HD
HETATM   21  N   UNK N   1      22.522  14.189   5.040  0.00  0.00    -0.315 N 
ATOM     22  HN  UNK N   1      25.891  16.427   2.703  1.00  0.00     0.183 HD
HETATM   23  S   UNK N   1      21.648  16.114   6.360  0.00  0.00    -0.059 SA
BRANCH  21  24
HETATM   24  C   UNK N   1      22.291  13.079   6.023  0.00  0.00     0.216 C 
BRANCH  24  25
HETATM   25  C   UNK N   1      22.959  12.922   7.409  0.00  0.00    -0.026 A 
HETATM   26  C   UNK N   1      24.321  13.253   7.530  0.00  0.00     0.010 A 
HETATM   27  C   UNK N   1      24.950  13.302   8.781  0.00  0.00     0.001 A 
HETATM   28  C   UNK N   1      24.224  13.032   9.940  0.00  0.00     0.000 A 
HETATM   29  C   UNK N   1      22.864  12.744   9.852  0.00  0.00     0.001 A 
HETATM   30  C   UNK N   1      22.236  12.730   8.601  0.00  0.00     0.010 A 
ENDBRANCH  24  25
BRANCH  24  31
HETATM   31  C   UNK N   1      20.956  12.406   5.793  0.00  0.00     0.247 C 
HETATM   32  N   UNK N   1      20.856  11.124   5.362  0.00  0.00    -0.350 N 
HETATM   33  C   UNK N   1      22.027  10.342   5.040  0.00  0.00     0.126 C 
HETATM   34  C   UNK N   1      19.557  10.485   5.339  0.00  0.00     0.126 C 
HETATM   35  C   UNK N   1      22.327  10.335   3.535  0.00  0.00     0.020 C 
HETATM   36  C   UNK N   1      21.111  10.402   2.606  0.00  0.00     0.002 C 
HETATM   37  C   UNK N   1      19.962   9.517   3.060  0.00  0.00     0.002 C 
HETATM   38  C   UNK N   1      19.022  10.337   3.926  0.00  0.00     0.020 C 
HETATM   39  O   UNK N   1      19.939  13.035   6.064  0.00  0.00    -0.271 OA
ENDBRANCH  24  31
ENDBRANCH  21  24
ENDBRANCH   9  12
BRANCH  10  40
HETATM   40  C   UNK N   1      26.918  20.068   5.740  0.00  0.00     0.143 C 
BRANCH  40  41
HETATM   41  N   UNK N   1      26.150  20.538   4.837  0.00  0.00    -0.380 N 
HETATM   42  H   UNK N   1      25.587  20.562   4.030  0.00  0.00     0.158 HD
ATOM     43  HN  UNK N   1      26.068  21.506   5.149  1.00  0.00     0.158 HD
ENDBRANCH  40  41
BRANCH  40  44
HETATM   44  O   UNK N   1      27.739  20.929   6.380  0.00  0.00    -0.346 OA
ATOM     45  HO  UNK N   1      28.667  20.916   6.179  1.00  0.00     0.219 HD
ENDBRANCH  40  44
ENDBRANCH  10  40
ENDBRANCH   4   6
BRANCH   3  46
HETATM   46  O   UNK N   1      30.461  17.811   4.173  0.00  0.00    -0.388 OA
HETATM   47  H   UNK N   1      30.631  17.852   3.218  0.00  0.00     0.210 HD
ENDBRANCH   3  46
BRANCH   2  48
HETATM   48  O   UNK N   1      33.009  16.199   4.316  0.00  0.00    -0.390 OA
HETATM   49  H   UNK N   1      33.101  16.482   3.393  0.00  0.00     0.210 HD
ENDBRANCH   2  48
BRANCH   1  50
HETATM   50  C   UNK N   1      32.313  14.161   6.619  0.00  0.00     0.216 C 
BRANCH  50  51
HETATM   51  O   UNK N   1      33.698  14.014   6.535  0.00  0.00    -0.287 OA
BRANCH  51  52
HETATM   52  P   UNK N   1      34.393  14.424   8.063  0.00  0.00     0.417 P 
HETATM   53  O   UNK N   1      35.449  15.027   6.823  0.00  0.00    -0.624 OA
HETATM   54  O   UNK N   1      35.559  13.439   8.337  0.00  0.00    -0.624 OA
BRANCH  52  55
HETATM   55  O   UNK N   1      34.888  16.021   8.555  0.00  0.00    -0.188 OA
BRANCH  55  56
HETATM   56  P   UNK N   1      35.555  15.936  10.167  0.00  0.00     0.402 P 
HETATM   57  O   UNK N   1      35.629  17.403  10.664  0.00  0.00    -0.631 OA
BRANCH  56  58
HETATM   58  O   UNK N   1      37.176  15.312  10.245  0.00  0.00    -0.307 OA
HETATM   59  H   UNK N   1      37.997  15.731  10.543  0.00  0.00     0.222 HD
ENDBRANCH  56  58
BRANCH  56  60
HETATM   60  O   UNK N   1      34.480  15.128  11.276  0.00  0.00    -0.294 OA
BRANCH  60  61
HETATM   61  C   UNK N   1      35.264  14.872  12.401  0.00  0.00     0.215 C 
BRANCH  61  62
HETATM   62  C   UNK N   1      35.203  13.408  12.845  0.00  0.00     0.180 C 
HETATM   63  C   UNK N   1      36.466  12.572  12.553  0.00  0.00     0.182 C 
HETATM   64  C   UNK N   1      36.683  11.828  13.862  0.00  0.00     0.198 C 
HETATM   65  C   UNK N   1      35.274  11.866  14.414  0.00  0.00     0.262 C 
HETATM   66  O   UNK N   1      34.850  13.200  14.204  0.00  0.00    -0.353 OA
BRANCH  63  67
HETATM   67  O   UNK N   1      37.589  13.327  12.201  0.00  0.00    -0.390 OA
ATOM     68  HO  UNK N   1      37.874  13.940  12.869  1.00  0.00     0.210 HD
ENDBRANCH  63  67
BRANCH  64  69
HETATM   69  O   UNK N   1      37.521  12.565  14.707  0.00  0.00    -0.388 OA
ATOM     70  HO  UNK N   1      38.185  12.002  15.086  1.00  0.00     0.210 HD
ENDBRANCH  64  69
BRANCH  65  71
HETATM   71  N   UNK N   1      35.155  11.436  15.814  0.00  0.00    -0.297 N 
HETATM   72  C   UNK N   1      35.102  10.168  16.296  0.00  0.00     0.188 A 
HETATM   73  N   UNK N   1      35.137  10.155  17.662  0.00  0.00    -0.346 N 
HETATM   74  C   UNK N   1      35.205  11.454  18.006  0.00  0.00     0.122 A 
ATOM     75  HN  UNK N   1      35.114   9.344  18.280  1.00  0.00     0.167 HD
HETATM   76  C   UNK N   1      35.303  12.047  19.259  0.00  0.00     0.131 A 
HETATM   77  C   UNK N   1      35.203  12.221  16.900  0.00  0.00     0.142 A 
HETATM   78  N   UNK N   1      35.362  13.410  19.319  0.00  0.00    -0.337 N 
HETATM   79  C   UNK N   1      35.336  14.171  18.175  0.00  0.00     0.183 A 
ATOM     80  HN  UNK N   1      35.426  13.870  20.228  1.00  0.00     0.168 HD
HETATM   81  N   UNK N   1      35.272  13.572  16.947  0.00  0.00    -0.336 N 
ATOM     82  HN  UNK N   1      35.277  14.127  16.091  1.00  0.00     0.168 HD
BRANCH  76  83
HETATM   83  N   UNK N   1      35.365  11.271  20.435  0.00  0.00    -0.383 N 
HETATM   84  H   UNK N   1      34.982  11.615  21.274  0.00  0.00     0.157 HD
HETATM   85  H   UNK N   1      35.792  10.385  20.416  0.00  0.00     0.157 HD
ENDBRANCH  76  83
ENDBRANCH  65  71
ENDBRANCH  61  62
ENDBRANCH  60  61
ENDBRANCH  56  60
ENDBRANCH  55  56
ENDBRANCH  52  55
ENDBRANCH  51  52
ENDBRANCH  50  51
ENDBRANCH   1  50
TORSDOF 23
ENDMDL
MODEL 5
REMARK VINA RESULT:      -9.7      4.289     14.697
REMARK  23 active torsions:
REMARK  status: ('A' for Active; 'I' for Inactive)
REMARK    1  A    between atoms: C_25  and  C_16 
REMARK    2  A    between atoms: O_72  and  C_16 
REMARK    3  A    between atoms: C_26  and  C_17 
REMARK    4  A    between atoms: O_73  and  C_17 
REMARK    5  A    between atoms: C_28  and  C_21 
REMARK    6  A    between atoms: C_34  and  C_22 
REMARK    7  A    between atoms: C_24  and  N_58 
REMARK    8  A    between atoms: C_37  and  C_28 
REMARK    9  A    between atoms: C_28  and  N_56 
REMARK   10  A    between atoms: C_29  and  O_59 
REMARK   11  A    between atoms: C_30  and  O_60 
REMARK   12  A    between atoms: C_31  and  O_62 
REMARK   13  A    between atoms: C_32  and  O_63 
REMARK   14  A    between atoms: N_41  and  C_33 
REMARK   15  A    between atoms: N_42  and  C_34 
REMARK   16  A    between atoms: O_65  and  C_34 
REMARK       I    between atoms: N_54  and  C_37 
REMARK   17  A    between atoms: C_38  and  N_55 
REMARK   18  A    between atoms: C_39  and  N_57 
REMARK   19  A    between atoms: P_78  and  O_70 
REMARK   20  A    between atoms: P_77  and  O_72 
REMARK   21  A    between atoms: P_78  and  O_73 
REMARK   22  A    between atoms: P_77  and  O_76 
REMARK   23  A    between atoms: P_78  and  O_76 
ROOT
HETATM    1  C   UNK N   1      33.142  16.647   4.799  0.00  0.00     0.180 C 
HETATM    2  C   UNK N   1      33.278  15.184   5.147  0.00  0.00     0.182 C 
HETATM    3  C   UNK N   1      32.179  14.624   4.302  0.00  0.00     0.198 C 
HETATM    4  C   UNK N   1      31.122  15.780   4.331  0.00  0.00     0.259 C 
HETATM    5  O   UNK N   1      31.764  16.930   4.827  0.00  0.00    -0.353 OA
ENDROOT
BRANCH   4   6
HETATM    6  N   UNK N   1      29.972  15.448   5.138  0.00  0.00    -0.337 N 
HETATM    7  C   UNK N   1      28.913  14.643   4.609  0.00  0.00     0.091 C 
HETATM    8  C   UNK N   1      27.694  14.671   5.158  0.00  0.00     0.017 C 
HETATM    9  C   UNK N   1      27.464  15.477   6.397  0.00  0.00     0.147 C 
HETATM   10  C   UNK N   1      28.611  16.446   6.835  0.00  0.00     0.031 C 
HETATM   11  C   UNK N   1      29.787  16.263   6.272  0.00  0.00     0.106 C 
BRANCH   9  12
HETATM   12  N   UNK N   1      26.042  15.652   6.788  0.00  0.00    -0.192 NA
HETATM   13  C   UNK N   1      25.307  14.523   6.881  0.00  0.00     0.102 C 
HETATM   14  C   UNK N   1      24.319  14.624   5.944  0.00  0.00     0.059 C 
HETATM   15  C   UNK N   1      24.371  15.884   5.482  0.00  0.00     0.131 C 
HETATM   16  C   UNK N   1      23.692  13.613   5.221  0.00  0.00     0.119 C 
HETATM   17  N   UNK N   1      23.779  16.260   4.346  0.00  0.00    -0.337 N 
HETATM   18  N   UNK N   1      25.385  16.530   6.037  0.00  0.00    -0.299 N 
HETATM   19  C   UNK N   1      23.326  15.273   3.537  0.00  0.00     0.186 C 
ATOM     20  HN  UNK N   1      23.674  17.245   4.099  1.00  0.00     0.168 HD
HETATM   21  N   UNK N   1      23.388  13.936   3.902  0.00  0.00    -0.315 N 
ATOM     22  HN  UNK N   1      25.616  17.516   5.912  1.00  0.00     0.183 HD
HETATM   23  S   UNK N   1      23.636  12.269   5.739  0.00  0.00    -0.059 SA
BRANCH  21  24
HETATM   24  C   UNK N   1      23.437  13.019   2.716  0.00  0.00     0.216 C 
BRANCH  24  25
HETATM   25  C   UNK N   1      24.704  12.393   2.087  0.00  0.00    -0.026 A 
HETATM   26  C   UNK N   1      25.958  12.878   2.501  0.00  0.00     0.010 A 
HETATM   27  C   UNK N   1      27.147  12.250   2.109  0.00  0.00     0.001 A 
HETATM   28  C   UNK N   1      27.105  11.112   1.302  0.00  0.00     0.000 A 
HETATM   29  C   UNK N   1      25.875  10.587   0.914  0.00  0.00     0.001 A 
HETATM   30  C   UNK N   1      24.691  11.202   1.337  0.00  0.00     0.010 A 
ENDBRANCH  24  25
BRANCH  24  31
HETATM   31  C   UNK N   1      22.114  12.316   2.505  0.00  0.00     0.247 C 
HETATM   32  N   UNK N   1      21.292  12.617   1.470  0.00  0.00    -0.350 N 
HETATM   33  C   UNK N   1      21.608  13.673   0.535  0.00  0.00     0.126 C 
HETATM   34  C   UNK N   1      20.134  11.784   1.222  0.00  0.00     0.126 C 
HETATM   35  C   UNK N   1      20.893  14.987   0.878  0.00  0.00     0.020 C 
HETATM   36  C   UNK N   1      19.508  14.852   1.518  0.00  0.00     0.002 C 
HETATM   37  C   UNK N   1      18.652  13.778   0.870  0.00  0.00     0.002 C 
HETATM   38  C   UNK N   1      18.842  12.474   1.624  0.00  0.00     0.020 C 
HETATM   39  O   UNK N   1      21.815  11.407   3.272  0.00  0.00    -0.271 OA
ENDBRANCH  24  31
ENDBRANCH  21  24
ENDBRANCH   9  12
BRANCH  10  40
HETATM   40  C   UNK N   1      28.617  17.650   7.724  0.00  0.00     0.143 C 
BRANCH  40  41
HETATM   41  N   UNK N   1      29.695  18.072   8.260  0.00  0.00    -0.380 N 
HETATM   42  H   UNK N   1      30.572  18.511   8.338  0.00  0.00     0.158 HD
ATOM     43  HN  UNK N   1      29.566  17.744   9.217  1.00  0.00     0.158 HD
ENDBRANCH  40  41
BRANCH  40  44
HETATM   44  O   UNK N   1      27.446  18.105   8.221  0.00  0.00    -0.346 OA
ATOM     45  HO  UNK N   1      26.724  17.496   8.330  1.00  0.00     0.219 HD
ENDBRANCH  40  44
ENDBRANCH  10  40
ENDBRANCH   4   6
BRANCH   3  46
HETATM   46  O   UNK N   1      31.779  13.382   4.808  0.00  0.00    -0.388 OA
HETATM   47  H   UNK N   1      32.048  12.824   5.555  0.00  0.00     0.210 HD
ENDBRANCH   3  46
BRANCH   2  48
HETATM   48  O   UNK N   1      34.521  14.645   4.807  0.00  0.00    -0.390 OA
HETATM   49  H   UNK N   1      34.829  13.737   4.957  0.00  0.00     0.210 HD
ENDBRANCH   2  48
BRANCH   1  50
HETATM   50  C   UNK N   1      33.847  17.566   5.782  0.00  0.00     0.216 C 
BRANCH  50  51
HETATM   51  O   UNK N   1      34.173  16.768   6.878  0.00  0.00    -0.287 OA
BRANCH  51  52
HETATM   52  P   UNK N   1      34.206  17.756   8.295  0.00  0.00     0.417 P 
HETATM   53  O   UNK N   1      33.097  16.453   8.587  0.00  0.00    -0.624 OA
HETATM   54  O   UNK N   1      32.921  18.624   8.303  0.00  0.00    -0.624 OA
BRANCH  52  55
HETATM   55  O   UNK N   1      34.506  17.193   9.917  0.00  0.00    -0.188 OA
BRANCH  55  56
HETATM   56  P   UNK N   1      35.255  15.616   9.839  0.00  0.00     0.402 P 
HETATM   57  O   UNK N   1      36.615  15.766  10.570  0.00  0.00    -0.631 OA
BRANCH  56  58
HETATM   58  O   UNK N   1      35.623  15.072   8.230  0.00  0.00    -0.307 OA
HETATM   59  H   UNK N   1      35.805  14.181   7.893  0.00  0.00     0.222 HD
ENDBRANCH  56  58
BRANCH  56  60
HETATM   60  O   UNK N   1      34.368  14.427  10.755  0.00  0.00    -0.294 OA
BRANCH  60  61
HETATM   61  C   UNK N   1      34.957  14.447  12.019  0.00  0.00     0.215 C 
BRANCH  61  62
HETATM   62  C   UNK N   1      35.158  13.047  12.603  0.00  0.00     0.180 C 
HETATM   63  C   UNK N   1      36.583  12.470  12.470  0.00  0.00     0.182 C 
HETATM   64  C   UNK N   1      36.843  11.902  13.856  0.00  0.00     0.198 C 
HETATM   65  C   UNK N   1      35.417  11.693  14.319  0.00  0.00     0.262 C 
HETATM   66  O   UNK N   1      34.750  12.886  13.953  0.00  0.00    -0.353 OA
BRANCH  63  67
HETATM   67  O   UNK N   1      37.554  13.409  12.111  0.00  0.00    -0.390 OA
ATOM     68  HO  UNK N   1      37.757  13.429  11.183  1.00  0.00     0.210 HD
ENDBRANCH  63  67
BRANCH  64  69
HETATM   69  O   UNK N   1      37.447  12.867  14.671  0.00  0.00    -0.388 OA
ATOM     70  HO  UNK N   1      38.387  12.870  14.537  1.00  0.00     0.210 HD
ENDBRANCH  64  69
BRANCH  65  71
HETATM   71  N   UNK N   1      35.279  11.369  15.745  0.00  0.00    -0.297 N 
HETATM   72  C   UNK N   1      35.256  10.141  16.323  0.00  0.00     0.188 A 
HETATM   73  N   UNK N   1      35.258  10.235  17.687  0.00  0.00    -0.346 N 
HETATM   74  C   UNK N   1      35.275  11.558  17.930  0.00  0.00     0.122 A 
ATOM     75  HN  UNK N   1      35.247   9.474  18.366  1.00  0.00     0.167 HD
HETATM   76  C   UNK N   1      35.324  12.249  19.134  0.00  0.00     0.131 A 
HETATM   77  C   UNK N   1      35.276  12.237  16.767  0.00  0.00     0.142 A 
HETATM   78  N   UNK N   1      35.337  13.614  19.089  0.00  0.00    -0.337 N 
HETATM   79  C   UNK N   1      35.314  14.283  17.889  0.00  0.00     0.183 A 
ATOM     80  HN  UNK N   1      35.365  14.145  19.960  1.00  0.00     0.168 HD
HETATM   81  N   UNK N   1      35.299  13.589  16.710  0.00  0.00    -0.336 N 
ATOM     82  HN  UNK N   1      35.306  14.076  15.813  1.00  0.00     0.168 HD
BRANCH  76  83
HETATM   83  N   UNK N   1      35.384  11.570  20.369  0.00  0.00    -0.383 N 
HETATM   84  H   UNK N   1      36.237  11.195  20.685  0.00  0.00     0.157 HD
HETATM   85  H   UNK N   1      34.570  11.471  20.914  0.00  0.00     0.157 HD
ENDBRANCH  76  83
ENDBRANCH  65  71
ENDBRANCH  61  62
ENDBRANCH  60  61
ENDBRANCH  56  60
ENDBRANCH  55  56
ENDBRANCH  52  55
ENDBRANCH  51  52
ENDBRANCH  50  51
ENDBRANCH   1  50
TORSDOF 23
ENDMDL
MODEL 6
REMARK VINA RESULT:      -9.7      4.210     14.694
REMARK  23 active torsions:
REMARK  status: ('A' for Active; 'I' for Inactive)
REMARK    1  A    between atoms: C_25  and  C_16 
REMARK    2  A    between atoms: O_72  and  C_16 
REMARK    3  A    between atoms: C_26  and  C_17 
REMARK    4  A    between atoms: O_73  and  C_17 
REMARK    5  A    between atoms: C_28  and  C_21 
REMARK    6  A    between atoms: C_34  and  C_22 
REMARK    7  A    between atoms: C_24  and  N_58 
REMARK    8  A    between atoms: C_37  and  C_28 
REMARK    9  A    between atoms: C_28  and  N_56 
REMARK   10  A    between atoms: C_29  and  O_59 
REMARK   11  A    between atoms: C_30  and  O_60 
REMARK   12  A    between atoms: C_31  and  O_62 
REMARK   13  A    between atoms: C_32  and  O_63 
REMARK   14  A    between atoms: N_41  and  C_33 
REMARK   15  A    between atoms: N_42  and  C_34 
REMARK   16  A    between atoms: O_65  and  C_34 
REMARK       I    between atoms: N_54  and  C_37 
REMARK   17  A    between atoms: C_38  and  N_55 
REMARK   18  A    between atoms: C_39  and  N_57 
REMARK   19  A    between atoms: P_78  and  O_70 
REMARK   20  A    between atoms: P_77  and  O_72 
REMARK   21  A    between atoms: P_78  and  O_73 
REMARK   22  A    between atoms: P_77  and  O_76 
REMARK   23  A    between atoms: P_78  and  O_76 
ROOT
HETATM    1  C   UNK N   1      26.998  19.995   5.009  0.00  0.00     0.180 C 
HETATM    2  C   UNK N   1      26.903  18.677   4.277  0.00  0.00     0.182 C 
HETATM    3  C   UNK N   1      26.022  19.088   3.141  0.00  0.00     0.198 C 
HETATM    4  C   UNK N   1      25.105  20.167   3.810  0.00  0.00     0.259 C 
HETATM    5  O   UNK N   1      25.695  20.522   5.038  0.00  0.00    -0.353 OA
ENDROOT
BRANCH   4   6
HETATM    6  N   UNK N   1      23.756  19.691   4.009  0.00  0.00    -0.337 N 
HETATM    7  C   UNK N   1      23.505  18.482   4.731  0.00  0.00     0.091 C 
HETATM    8  C   UNK N   1      22.355  17.818   4.574  0.00  0.00     0.017 C 
HETATM    9  C   UNK N   1      21.282  18.401   3.709  0.00  0.00     0.147 C 
HETATM   10  C   UNK N   1      21.671  19.637   2.835  0.00  0.00     0.031 C 
HETATM   11  C   UNK N   1      22.796  20.249   3.142  0.00  0.00     0.106 C 
BRANCH   9  12
HETATM   12  N   UNK N   1      20.154  17.488   3.392  0.00  0.00    -0.192 NA
HETATM   13  C   UNK N   1      19.899  16.520   4.299  0.00  0.00     0.102 C 
HETATM   14  C   UNK N   1      20.104  15.329   3.665  0.00  0.00     0.059 C 
HETATM   15  C   UNK N   1      20.262  15.622   2.364  0.00  0.00     0.131 C 
HETATM   16  C   UNK N   1      20.549  14.121   4.194  0.00  0.00     0.119 C 
HETATM   17  N   UNK N   1      20.791  14.763   1.490  0.00  0.00    -0.337 N 
HETATM   18  N   UNK N   1      20.236  16.934   2.187  0.00  0.00    -0.299 N 
HETATM   19  C   UNK N   1      21.397  13.666   2.003  0.00  0.00     0.186 C 
ATOM     20  HN  UNK N   1      20.743  14.925   0.484  1.00  0.00     0.168 HD
HETATM   21  N   UNK N   1      21.395  13.393   3.364  0.00  0.00    -0.315 N 
ATOM     22  HN  UNK N   1      20.271  17.426   1.294  1.00  0.00     0.183 HD
HETATM   23  S   UNK N   1      20.359  13.819   5.590  0.00  0.00    -0.059 SA
BRANCH  21  24
HETATM   24  C   UNK N   1      22.568  12.557   3.784  0.00  0.00     0.216 C 
BRANCH  24  25
HETATM   25  C   UNK N   1      23.463  12.782   5.025  0.00  0.00    -0.026 A 
HETATM   26  C   UNK N   1      24.087  14.035   5.173  0.00  0.00     0.010 A 
HETATM   27  C   UNK N   1      24.770  14.373   6.348  0.00  0.00     0.001 A 
HETATM   28  C   UNK N   1      24.831  13.468   7.408  0.00  0.00     0.000 A 
HETATM   29  C   UNK N   1      24.185  12.239   7.303  0.00  0.00     0.001 A 
HETATM   30  C   UNK N   1      23.478  11.922   6.138  0.00  0.00     0.010 A 
ENDBRANCH  24  25
BRANCH  24  31
HETATM   31  C   UNK N   1      22.488  11.162   3.205  0.00  0.00     0.247 C 
HETATM   32  N   UNK N   1      23.449  10.659   2.391  0.00  0.00    -0.350 N 
HETATM   33  C   UNK N   1      24.583  11.455   1.980  0.00  0.00     0.126 C 
HETATM   34  C   UNK N   1      23.403   9.259   2.023  0.00  0.00     0.126 C 
HETATM   35  C   UNK N   1      24.384  12.077   0.591  0.00  0.00     0.020 C 
HETATM   36  C   UNK N   1      23.563  11.252  -0.405  0.00  0.00     0.002 C 
HETATM   37  C   UNK N   1      23.904   9.772  -0.381  0.00  0.00     0.002 C 
HETATM   38  C   UNK N   1      22.967   9.065   0.581  0.00  0.00     0.020 C 
HETATM   39  O   UNK N   1      21.545  10.452   3.539  0.00  0.00    -0.271 OA
ENDBRANCH  24  31
ENDBRANCH  21  24
ENDBRANCH   9  12
BRANCH  10  40
HETATM   40  C   UNK N   1      21.052  20.227   1.606  0.00  0.00     0.143 C 
BRANCH  40  41
HETATM   41  N   UNK N   1      20.643  21.434   1.586  0.00  0.00    -0.380 N 
HETATM   42  H   UNK N   1      20.478  22.355   1.894  0.00  0.00     0.158 HD
ATOM     43  HN  UNK N   1      20.209  21.468   0.663  1.00  0.00     0.158 HD
ENDBRANCH  40  41
BRANCH  40  44
HETATM   44  O   UNK N   1      20.630  19.402   0.623  0.00  0.00    -0.346 OA
ATOM     45  HO  UNK N   1      19.758  19.520   0.265  1.00  0.00     0.219 HD
ENDBRANCH  40  44
ENDBRANCH  10  40
ENDBRANCH   4   6
BRANCH   3  46
HETATM   46  O   UNK N   1      25.390  17.961   2.602  0.00  0.00    -0.388 OA
HETATM   47  H   UNK N   1      24.610  17.810   2.044  0.00  0.00     0.210 HD
ENDBRANCH   3  46
BRANCH   2  48
HETATM   48  O   UNK N   1      28.137  18.199   3.830  0.00  0.00    -0.390 OA
HETATM   49  H   UNK N   1      28.338  17.810   2.964  0.00  0.00     0.210 HD
ENDBRANCH   2  48
BRANCH   1  50
HETATM   50  C   UNK N   1      27.498  19.853   6.437  0.00  0.00     0.216 C 
BRANCH  50  51
HETATM   51  O   UNK N   1      27.780  18.498   6.605  0.00  0.00    -0.287 OA
BRANCH  51  52
HETATM   52  P   UNK N   1      28.948  18.326   7.868  0.00  0.00     0.417 P 
HETATM   53  O   UNK N   1      27.980  16.884   7.843  0.00  0.00    -0.624 OA
HETATM   54  O   UNK N   1      28.231  18.578   9.219  0.00  0.00    -0.624 OA
BRANCH  52  55
HETATM   55  O   UNK N   1      30.040  16.982   8.061  0.00  0.00    -0.188 OA
BRANCH  55  56
HETATM   56  P   UNK N   1      30.431  16.338   6.485  0.00  0.00     0.402 P 
HETATM   57  O   UNK N   1      31.237  17.453   5.768  0.00  0.00    -0.631 OA
BRANCH  56  58
HETATM   58  O   UNK N   1      29.052  16.011   5.478  0.00  0.00    -0.307 OA
HETATM   59  H   UNK N   1      28.722  15.174   5.114  0.00  0.00     0.222 HD
ENDBRANCH  56  58
BRANCH  56  60
HETATM   60  O   UNK N   1      31.516  14.977   6.585  0.00  0.00    -0.294 OA
BRANCH  60  61
HETATM   61  C   UNK N   1      31.967  14.986   7.905  0.00  0.00     0.215 C 
BRANCH  61  62
HETATM   62  C   UNK N   1      33.470  15.252   8.016  0.00  0.00     0.180 C 
HETATM   63  C   UNK N   1      33.861  16.648   8.544  0.00  0.00     0.182 C 
HETATM   64  C   UNK N   1      34.945  16.328   9.562  0.00  0.00     0.198 C 
HETATM   65  C   UNK N   1      35.404  14.986   9.033  0.00  0.00     0.262 C 
HETATM   66  O   UNK N   1      34.205  14.288   8.755  0.00  0.00    -0.353 OA
BRANCH  63  67
HETATM   67  O   UNK N   1      32.808  17.360   9.125  0.00  0.00    -0.390 OA
ATOM     68  HO  UNK N   1      32.425  16.942   9.887  1.00  0.00     0.210 HD
ENDBRANCH  63  67
BRANCH  64  69
HETATM   69  O   UNK N   1      34.381  16.146  10.830  0.00  0.00    -0.388 OA
ATOM     70  HO  UNK N   1      34.820  16.697  11.468  1.00  0.00     0.210 HD
ENDBRANCH  64  69
BRANCH  65  71
HETATM   71  N   UNK N   1      36.305  14.251   9.932  0.00  0.00    -0.297 N 
HETATM   72  C   UNK N   1      37.662  14.289   9.967  0.00  0.00     0.188 A 
HETATM   73  N   UNK N   1      38.150  13.583  11.031  0.00  0.00    -0.346 N 
HETATM   74  C   UNK N   1      37.052  13.103  11.644  0.00  0.00     0.122 A 
ATOM     75  HN  UNK N   1      39.125  13.449  11.298  1.00  0.00     0.167 HD
HETATM   76  C   UNK N   1      36.930  12.347  12.803  0.00  0.00     0.131 A 
HETATM   77  C   UNK N   1      35.949  13.493  10.979  0.00  0.00     0.142 A 
HETATM   78  N   UNK N   1      35.674  11.996  13.209  0.00  0.00    -0.337 N 
HETATM   79  C   UNK N   1      34.565  12.388  12.498  0.00  0.00     0.183 A 
ATOM     80  HN  UNK N   1      35.557  11.433  14.052  1.00  0.00     0.168 HD
HETATM   81  N   UNK N   1      34.699  13.160  11.377  0.00  0.00    -0.336 N 
ATOM     82  HN  UNK N   1      33.881  13.477  10.856  1.00  0.00     0.168 HD
BRANCH  76  83
HETATM   83  N   UNK N   1      38.061  11.970  13.557  0.00  0.00    -0.383 N 
HETATM   84  H   UNK N   1      38.154  12.268  14.490  0.00  0.00     0.157 HD
HETATM   85  H   UNK N   1      38.757  11.408  13.148  0.00  0.00     0.157 HD
ENDBRANCH  76  83
ENDBRANCH  65  71
ENDBRANCH  61  62
ENDBRANCH  60  61
ENDBRANCH  56  60
ENDBRANCH  55  56
ENDBRANCH  52  55
ENDBRANCH  51  52
ENDBRANCH  50  51
ENDBRANCH   1  50
TORSDOF 23
ENDMDL
MODEL 7
REMARK VINA RESULT:      -9.6      1.669      2.788
REMARK  23 active torsions:
REMARK  status: ('A' for Active; 'I' for Inactive)
REMARK    1  A    between atoms: C_25  and  C_16 
REMARK    2  A    between atoms: O_72  and  C_16 
REMARK    3  A    between atoms: C_26  and  C_17 
REMARK    4  A    between atoms: O_73  and  C_17 
REMARK    5  A    between atoms: C_28  and  C_21 
REMARK    6  A    between atoms: C_34  and  C_22 
REMARK    7  A    between atoms: C_24  and  N_58 
REMARK    8  A    between atoms: C_37  and  C_28 
REMARK    9  A    between atoms: C_28  and  N_56 
REMARK   10  A    between atoms: C_29  and  O_59 
REMARK   11  A    between atoms: C_30  and  O_60 
REMARK   12  A    between atoms: C_31  and  O_62 
REMARK   13  A    between atoms: C_32  and  O_63 
REMARK   14  A    between atoms: N_41  and  C_33 
REMARK   15  A    between atoms: N_42  and  C_34 
REMARK   16  A    between atoms: O_65  and  C_34 
REMARK       I    between atoms: N_54  and  C_37 
REMARK   17  A    between atoms: C_38  and  N_55 
REMARK   18  A    between atoms: C_39  and  N_57 
REMARK   19  A    between atoms: P_78  and  O_70 
REMARK   20  A    between atoms: P_77  and  O_72 
REMARK   21  A    between atoms: P_78  and  O_73 
REMARK   22  A    between atoms: P_77  and  O_76 
REMARK   23  A    between atoms: P_78  and  O_76 
ROOT
HETATM    1  C   UNK N   1      30.001  13.367   4.588  0.00  0.00     0.180 C 
HETATM    2  C   UNK N   1      30.597  14.289   3.551  0.00  0.00     0.182 C 
HETATM    3  C   UNK N   1      31.978  13.721   3.477  0.00  0.00     0.198 C 
HETATM    4  C   UNK N   1      32.216  13.244   4.950  0.00  0.00     0.259 C 
HETATM    5  O   UNK N   1      30.968  13.239   5.601  0.00  0.00    -0.353 OA
ENDROOT
BRANCH   4   6
HETATM    6  N   UNK N   1      33.156  14.087   5.651  0.00  0.00    -0.337 N 
HETATM    7  C   UNK N   1      34.566  13.895   5.501  0.00  0.00     0.091 C 
HETATM    8  C   UNK N   1      35.421  14.354   6.421  0.00  0.00     0.017 C 
HETATM    9  C   UNK N   1      34.901  15.163   7.567  0.00  0.00     0.147 C 
HETATM   10  C   UNK N   1      33.350  15.209   7.757  0.00  0.00     0.031 C 
HETATM   11  C   UNK N   1      32.618  14.796   6.743  0.00  0.00     0.106 C 
BRANCH   9  12
HETATM   12  N   UNK N   1      35.874  15.415   8.662  0.00  0.00    -0.192 NA
HETATM   13  C   UNK N   1      36.737  14.412   8.932  0.00  0.00     0.102 C 
HETATM   14  C   UNK N   1      36.484  14.015  10.213  0.00  0.00     0.059 C 
HETATM   15  C   UNK N   1      35.639  14.925  10.724  0.00  0.00     0.131 C 
HETATM   16  C   UNK N   1      36.617  12.751  10.780  0.00  0.00     0.119 C 
HETATM   17  N   UNK N   1      34.926  14.704  11.832  0.00  0.00    -0.337 N 
HETATM   18  N   UNK N   1      35.309  15.811   9.798  0.00  0.00    -0.299 N 
HETATM   19  C   UNK N   1      34.894  13.432  12.294  0.00  0.00     0.186 C 
ATOM     20  HN  UNK N   1      34.429  15.459  12.307  1.00  0.00     0.168 HD
HETATM   21  N   UNK N   1      35.634  12.416  11.706  0.00  0.00    -0.315 N 
ATOM     22  HN  UNK N   1      34.733  16.642   9.932  1.00  0.00     0.183 HD
HETATM   23  S   UNK N   1      37.539  11.793  10.224  0.00  0.00    -0.059 SA
BRANCH  21  24
HETATM   24  C   UNK N   1      35.025  11.062  11.923  0.00  0.00     0.216 C 
BRANCH  24  25
HETATM   25  C   UNK N   1      34.171  10.263  10.912  0.00  0.00    -0.026 A 
HETATM   26  C   UNK N   1      33.771   8.961  11.265  0.00  0.00     0.010 A 
HETATM   27  C   UNK N   1      32.858   8.242  10.482  0.00  0.00     0.001 A 
HETATM   28  C   UNK N   1      32.315   8.818   9.334  0.00  0.00     0.000 A 
HETATM   29  C   UNK N   1      32.661  10.121   8.986  0.00  0.00     0.001 A 
HETATM   30  C   UNK N   1      33.549  10.844   9.791  0.00  0.00     0.010 A 
ENDBRANCH  24  25
BRANCH  24  31
HETATM   31  C   UNK N   1      35.753  10.296  13.005  0.00  0.00     0.247 C 
HETATM   32  N   UNK N   1      35.232  10.121  14.245  0.00  0.00    -0.350 N 
HETATM   33  C   UNK N   1      33.968  10.711  14.623  0.00  0.00     0.126 C 
HETATM   34  C   UNK N   1      35.893   9.226  15.171  0.00  0.00     0.126 C 
HETATM   35  C   UNK N   1      34.147  12.028  15.390  0.00  0.00     0.020 C 
HETATM   36  C   UNK N   1      35.390  12.126  16.279  0.00  0.00     0.002 C 
HETATM   37  C   UNK N   1      35.665  10.855  17.065  0.00  0.00     0.002 C 
HETATM   38  C   UNK N   1      36.619   9.981  16.271  0.00  0.00     0.020 C 
HETATM   39  O   UNK N   1      36.825   9.772  12.720  0.00  0.00    -0.271 OA
ENDBRANCH  24  31
ENDBRANCH  21  24
ENDBRANCH   9  12
BRANCH  10  40
HETATM   40  C   UNK N   1      32.497  15.543   8.941  0.00  0.00     0.143 C 
BRANCH  40  41
HETATM   41  N   UNK N   1      32.088  16.734   9.146  0.00  0.00    -0.380 N 
HETATM   42  H   UNK N   1      31.569  17.473   9.538  0.00  0.00     0.158 HD
ATOM     43  HN  UNK N   1      32.664  17.246   8.478  1.00  0.00     0.158 HD
ENDBRANCH  40  41
BRANCH  40  44
HETATM   44  O   UNK N   1      32.423  14.666   9.965  0.00  0.00    -0.346 OA
ATOM     45  HO  UNK N   1      31.991  14.931  10.769  1.00  0.00     0.219 HD
ENDBRANCH  40  44
ENDBRANCH  10  40
ENDBRANCH   4   6
BRANCH   3  46
HETATM   46  O   UNK N   1      32.859  14.684   2.968  0.00  0.00    -0.388 OA
HETATM   47  H   UNK N   1      33.765  14.964   3.174  0.00  0.00     0.210 HD
ENDBRANCH   3  46
BRANCH   2  48
HETATM   48  O   UNK N   1      29.945  14.234   2.317  0.00  0.00    -0.390 OA
HETATM   49  H   UNK N   1      30.299  14.500   1.453  0.00  0.00     0.210 HD
ENDBRANCH   2  48
BRANCH   1  50
HETATM   50  C   UNK N   1      28.719  13.902   5.202  0.00  0.00     0.216 C 
BRANCH  50  51
HETATM   51  O   UNK N   1      28.258  14.880   4.321  0.00  0.00    -0.287 OA
BRANCH  51  52
HETATM   52  P   UNK N   1      27.667  16.220   5.238  0.00  0.00     0.417 P 
HETATM   53  O   UNK N   1      27.056  14.769   5.970  0.00  0.00    -0.624 OA
HETATM   54  O   UNK N   1      26.183  16.446   4.851  0.00  0.00    -0.624 OA
BRANCH  52  55
HETATM   55  O   UNK N   1      27.829  16.418   6.962  0.00  0.00    -0.188 OA
BRANCH  55  56
HETATM   56  P   UNK N   1      28.311  18.063   7.300  0.00  0.00     0.402 P 
HETATM   57  O   UNK N   1      29.817  17.988   7.662  0.00  0.00    -0.631 OA
BRANCH  56  58
HETATM   58  O   UNK N   1      27.516  18.780   8.670  0.00  0.00    -0.307 OA
HETATM   59  H   UNK N   1      27.807  18.871   9.590  0.00  0.00     0.222 HD
ENDBRANCH  56  58
BRANCH  56  60
HETATM   60  O   UNK N   1      28.228  19.073   5.882  0.00  0.00    -0.294 OA
BRANCH  60  61
HETATM   61  C   UNK N   1      27.487  20.183   6.285  0.00  0.00     0.215 C 
BRANCH  61  62
HETATM   62  C   UNK N   1      26.344  20.515   5.323  0.00  0.00     0.180 C 
HETATM   63  C   UNK N   1      26.730  20.590   3.831  0.00  0.00     0.182 C 
HETATM   64  C   UNK N   1      25.617  19.801   3.158  0.00  0.00     0.198 C 
HETATM   65  C   UNK N   1      24.535  19.941   4.208  0.00  0.00     0.262 C 
HETATM   66  O   UNK N   1      25.197  19.687   5.432  0.00  0.00    -0.353 OA
BRANCH  63  67
HETATM   67  O   UNK N   1      27.988  20.055   3.534  0.00  0.00    -0.390 OA
ATOM     68  HO  UNK N   1      28.339  19.482   4.206  1.00  0.00     0.210 HD
ENDBRANCH  63  67
BRANCH  64  69
HETATM   69  O   UNK N   1      25.974  18.451   3.054  0.00  0.00    -0.388 OA
ATOM     70  HO  UNK N   1      26.315  18.267   2.186  1.00  0.00     0.210 HD
ENDBRANCH  64  69
BRANCH  65  71
HETATM   71  N   UNK N   1      23.364  19.081   3.995  0.00  0.00    -0.297 N 
HETATM   72  C   UNK N   1      23.096  17.879   4.568  0.00  0.00     0.188 A 
HETATM   73  N   UNK N   1      21.844  17.440   4.237  0.00  0.00    -0.346 N 
HETATM   74  C   UNK N   1      21.353  18.405   3.438  0.00  0.00     0.122 A 
ATOM     75  HN  UNK N   1      21.387  16.576   4.529  1.00  0.00     0.167 HD
HETATM   76  C   UNK N   1      20.108  18.521   2.833  0.00  0.00     0.131 A 
HETATM   77  C   UNK N   1      22.267  19.381   3.284  0.00  0.00     0.142 A 
HETATM   78  N   UNK N   1      19.870  19.626   2.065  0.00  0.00    -0.337 N 
HETATM   79  C   UNK N   1      20.830  20.596   1.905  0.00  0.00     0.183 A 
ATOM     80  HN  UNK N   1      18.967  19.731   1.603  1.00  0.00     0.168 HD
HETATM   81  N   UNK N   1      22.040  20.484   2.534  0.00  0.00    -0.336 N 
ATOM     82  HN  UNK N   1      22.749  21.211   2.442  1.00  0.00     0.168 HD
BRANCH  76  83
HETATM   83  N   UNK N   1      19.106  17.547   3.020  0.00  0.00    -0.383 N 
HETATM   84  H   UNK N   1      18.714  17.086   2.244  0.00  0.00     0.157 HD
HETATM   85  H   UNK N   1      18.799  17.328   3.929  0.00  0.00     0.157 HD
ENDBRANCH  76  83
ENDBRANCH  65  71
ENDBRANCH  61  62
ENDBRANCH  60  61
ENDBRANCH  56  60
ENDBRANCH  55  56
ENDBRANCH  52  55
ENDBRANCH  51  52
ENDBRANCH  50  51
ENDBRANCH   1  50
TORSDOF 23
ENDMDL
MODEL 8
REMARK VINA RESULT:      -9.6      3.441      5.022
REMARK  23 active torsions:
REMARK  status: ('A' for Active; 'I' for Inactive)
REMARK    1  A    between atoms: C_25  and  C_16 
REMARK    2  A    between atoms: O_72  and  C_16 
REMARK    3  A    between atoms: C_26  and  C_17 
REMARK    4  A    between atoms: O_73  and  C_17 
REMARK    5  A    between atoms: C_28  and  C_21 
REMARK    6  A    between atoms: C_34  and  C_22 
REMARK    7  A    between atoms: C_24  and  N_58 
REMARK    8  A    between atoms: C_37  and  C_28 
REMARK    9  A    between atoms: C_28  and  N_56 
REMARK   10  A    between atoms: C_29  and  O_59 
REMARK   11  A    between atoms: C_30  and  O_60 
REMARK   12  A    between atoms: C_31  and  O_62 
REMARK   13  A    between atoms: C_32  and  O_63 
REMARK   14  A    between atoms: N_41  and  C_33 
REMARK   15  A    between atoms: N_42  and  C_34 
REMARK   16  A    between atoms: O_65  and  C_34 
REMARK       I    between atoms: N_54  and  C_37 
REMARK   17  A    between atoms: C_38  and  N_55 
REMARK   18  A    between atoms: C_39  and  N_57 
REMARK   19  A    between atoms: P_78  and  O_70 
REMARK   20  A    between atoms: P_77  and  O_72 
REMARK   21  A    between atoms: P_78  and  O_73 
REMARK   22  A    between atoms: P_77  and  O_76 
REMARK   23  A    between atoms: P_78  and  O_76 
ROOT
HETATM    1  C   UNK N   1      31.029  17.536   6.101  0.00  0.00     0.180 C 
HETATM    2  C   UNK N   1      30.337  16.942   7.305  0.00  0.00     0.182 C 
HETATM    3  C   UNK N   1      31.265  17.408   8.380  0.00  0.00     0.198 C 
HETATM    4  C   UNK N   1      32.651  17.385   7.650  0.00  0.00     0.259 C 
HETATM    5  O   UNK N   1      32.401  17.274   6.269  0.00  0.00    -0.353 OA
ENDROOT
BRANCH   4   6
HETATM    6  N   UNK N   1      33.491  16.303   8.106  0.00  0.00    -0.337 N 
HETATM    7  C   UNK N   1      33.986  16.277   9.448  0.00  0.00     0.091 C 
HETATM    8  C   UNK N   1      35.063  15.549   9.766  0.00  0.00     0.017 C 
HETATM    9  C   UNK N   1      35.694  14.679   8.725  0.00  0.00     0.147 C 
HETATM   10  C   UNK N   1      35.204  14.866   7.252  0.00  0.00     0.031 C 
HETATM   11  C   UNK N   1      34.087  15.541   7.082  0.00  0.00     0.106 C 
BRANCH   9  12
HETATM   12  N   UNK N   1      37.017  14.110   9.088  0.00  0.00    -0.192 NA
HETATM   13  C   UNK N   1      37.163  12.779   8.906  0.00  0.00     0.102 C 
HETATM   14  C   UNK N   1      37.391  12.240  10.139  0.00  0.00     0.059 C 
HETATM   15  C   UNK N   1      37.583  13.278  10.969  0.00  0.00     0.131 C 
HETATM   16  C   UNK N   1      37.043  10.982  10.622  0.00  0.00     0.119 C 
HETATM   17  N   UNK N   1      37.519  13.160  12.297  0.00  0.00    -0.337 N 
HETATM   18  N   UNK N   1      37.413  14.418  10.319  0.00  0.00    -0.299 N 
HETATM   19  C   UNK N   1      37.005  12.006  12.784  0.00  0.00     0.186 C 
ATOM     20  HN  UNK N   1      37.840  13.905  12.916  1.00  0.00     0.168 HD
HETATM   21  N   UNK N   1      36.645  10.953  11.955  0.00  0.00    -0.315 N 
ATOM     22  HN  UNK N   1      37.559  15.357  10.692  1.00  0.00     0.183 HD
HETATM   23  S   UNK N   1      36.853   9.877   9.716  0.00  0.00    -0.059 SA
BRANCH  21  24
HETATM   24  C   UNK N   1      35.581  10.085  12.558  0.00  0.00     0.216 C 
BRANCH  24  25
HETATM   25  C   UNK N   1      34.472   9.322  11.796  0.00  0.00    -0.026 A 
HETATM   26  C   UNK N   1      33.502  10.074  11.109  0.00  0.00     0.010 A 
HETATM   27  C   UNK N   1      32.572   9.462  10.259  0.00  0.00     0.001 A 
HETATM   28  C   UNK N   1      32.603   8.080  10.068  0.00  0.00     0.000 A 
HETATM   29  C   UNK N   1      33.581   7.318  10.701  0.00  0.00     0.001 A 
HETATM   30  C   UNK N   1      34.526   7.942  11.524  0.00  0.00     0.010 A 
ENDBRANCH  24  25
BRANCH  24  31
HETATM   31  C   UNK N   1      35.992   9.573  13.921  0.00  0.00     0.247 C 
HETATM   32  N   UNK N   1      35.275   9.841  15.041  0.00  0.00    -0.350 N 
HETATM   33  C   UNK N   1      34.103  10.684  15.004  0.00  0.00     0.126 C 
HETATM   34  C   UNK N   1      35.620   9.171  16.277  0.00  0.00     0.126 C 
HETATM   35  C   UNK N   1      34.412  12.130  15.417  0.00  0.00     0.020 C 
HETATM   36  C   UNK N   1      35.512  12.308  16.468  0.00  0.00     0.002 C 
HETATM   37  C   UNK N   1      35.431  11.296  17.598  0.00  0.00     0.002 C 
HETATM   38  C   UNK N   1      36.309  10.105  17.257  0.00  0.00     0.020 C 
HETATM   39  O   UNK N   1      36.976   8.846  13.992  0.00  0.00    -0.271 OA
ENDBRANCH  24  31
ENDBRANCH  21  24
ENDBRANCH   9  12
BRANCH  10  40
HETATM   40  C   UNK N   1      35.827  14.509   5.938  0.00  0.00     0.143 C 
BRANCH  40  41
HETATM   41  N   UNK N   1      37.092  14.538   5.776  0.00  0.00    -0.380 N 
HETATM   42  H   UNK N   1      38.001  14.908   5.701  0.00  0.00     0.158 HD
ATOM     43  HN  UNK N   1      37.283  13.547   5.630  1.00  0.00     0.158 HD
ENDBRANCH  40  41
BRANCH  40  44
HETATM   44  O   UNK N   1      35.050  14.467   4.834  0.00  0.00    -0.346 OA
ATOM     45  HO  UNK N   1      34.960  13.646   4.365  1.00  0.00     0.219 HD
ENDBRANCH  40  44
ENDBRANCH  10  40
ENDBRANCH   4   6
BRANCH   3  46
HETATM   46  O   UNK N   1      31.127  16.593   9.510  0.00  0.00    -0.388 OA
HETATM   47  H   UNK N   1      30.884  16.739  10.438  0.00  0.00     0.210 HD
ENDBRANCH   3  46
BRANCH   2  48
HETATM   48  O   UNK N   1      29.039  17.424   7.494  0.00  0.00    -0.390 OA
HETATM   49  H   UNK N   1      28.451  17.249   8.245  0.00  0.00     0.210 HD
ENDBRANCH   2  48
BRANCH   1  50
HETATM   50  C   UNK N   1      30.575  16.927   4.786  0.00  0.00     0.216 C 
BRANCH  50  51
HETATM   51  O   UNK N   1      29.302  17.446   4.549  0.00  0.00    -0.287 OA
BRANCH  51  52
HETATM   52  P   UNK N   1      28.471  16.402   3.451  0.00  0.00     0.417 P 
HETATM   53  O   UNK N   1      28.278  15.751   5.049  0.00  0.00    -0.624 OA
HETATM   54  O   UNK N   1      29.350  15.144   3.230  0.00  0.00    -0.624 OA
BRANCH  52  55
HETATM   55  O   UNK N   1      26.808  15.900   3.593  0.00  0.00    -0.188 OA
BRANCH  55  56
HETATM   56  P   UNK N   1      25.901  17.164   4.387  0.00  0.00     0.402 P 
HETATM   57  O   UNK N   1      26.008  18.400   3.456  0.00  0.00    -0.631 OA
BRANCH  56  58
HETATM   58  O   UNK N   1      26.544  17.656   5.926  0.00  0.00    -0.307 OA
HETATM   59  H   UNK N   1      26.596  18.533   6.334  0.00  0.00     0.222 HD
ENDBRANCH  56  58
BRANCH  56  60
HETATM   60  O   UNK N   1      24.199  16.794   4.468  0.00  0.00    -0.294 OA
BRANCH  60  61
HETATM   61  C   UNK N   1      24.144  15.513   5.017  0.00  0.00     0.215 C 
BRANCH  61  62
HETATM   62  C   UNK N   1      22.844  15.250   5.779  0.00  0.00     0.180 C 
HETATM   63  C   UNK N   1      21.911  14.191   5.156  0.00  0.00     0.182 C 
HETATM   64  C   UNK N   1      21.512  13.349   6.359  0.00  0.00     0.198 C 
HETATM   65  C   UNK N   1      21.744  14.357   7.465  0.00  0.00     0.262 C 
HETATM   66  O   UNK N   1      22.998  14.936   7.155  0.00  0.00    -0.353 OA
BRANCH  63  67
HETATM   67  O   UNK N   1      22.507  13.410   4.161  0.00  0.00    -0.390 OA
ATOM     68  HO  UNK N   1      23.391  13.674   3.934  1.00  0.00     0.210 HD
ENDBRANCH  63  67
BRANCH  64  69
HETATM   69  O   UNK N   1      22.404  12.283   6.523  0.00  0.00    -0.388 OA
ATOM     70  HO  UNK N   1      22.612  12.166   7.443  1.00  0.00     0.210 HD
ENDBRANCH  64  69
BRANCH  65  71
HETATM   71  N   UNK N   1      21.686  13.799   8.822  0.00  0.00    -0.297 N 
HETATM   72  C   UNK N   1      20.583  13.535   9.569  0.00  0.00     0.188 A 
HETATM   73  N   UNK N   1      20.911  12.886  10.726  0.00  0.00    -0.346 N 
HETATM   74  C   UNK N   1      22.250  12.766  10.672  0.00  0.00     0.122 A 
ATOM     75  HN  UNK N   1      20.284  12.567  11.464  1.00  0.00     0.167 HD
HETATM   76  C   UNK N   1      23.134  12.158  11.555  0.00  0.00     0.131 A 
HETATM   77  C   UNK N   1      22.715  13.324   9.538  0.00  0.00     0.142 A 
HETATM   78  N   UNK N   1      24.464  12.178  11.247  0.00  0.00    -0.337 N 
HETATM   79  C   UNK N   1      24.914  12.774  10.093  0.00  0.00     0.183 A 
ATOM     80  HN  UNK N   1      25.134  11.745  11.883  1.00  0.00     0.168 HD
HETATM   81  N   UNK N   1      24.029  13.341   9.217  0.00  0.00    -0.336 N 
ATOM     82  HN  UNK N   1      24.351  13.765   8.346  1.00  0.00     0.168 HD
BRANCH  76  83
HETATM   83  N   UNK N   1      22.676  11.513  12.723  0.00  0.00    -0.383 N 
HETATM   84  H   UNK N   1      23.120  10.694  13.042  0.00  0.00     0.157 HD
HETATM   85  H   UNK N   1      21.913  11.884  13.221  0.00  0.00     0.157 HD
ENDBRANCH  76  83
ENDBRANCH  65  71
ENDBRANCH  61  62
ENDBRANCH  60  61
ENDBRANCH  56  60
ENDBRANCH  55  56
ENDBRANCH  52  55
ENDBRANCH  51  52
ENDBRANCH  50  51
ENDBRANCH   1  50
TORSDOF 23
ENDMDL
MODEL 9
REMARK VINA RESULT:      -9.6      4.958     14.559
REMARK  23 active torsions:
REMARK  status: ('A' for Active; 'I' for Inactive)
REMARK    1  A    between atoms: C_25  and  C_16 
REMARK    2  A    between atoms: O_72  and  C_16 
REMARK    3  A    between atoms: C_26  and  C_17 
REMARK    4  A    between atoms: O_73  and  C_17 
REMARK    5  A    between atoms: C_28  and  C_21 
REMARK    6  A    between atoms: C_34  and  C_22 
REMARK    7  A    between atoms: C_24  and  N_58 
REMARK    8  A    between atoms: C_37  and  C_28 
REMARK    9  A    between atoms: C_28  and  N_56 
REMARK   10  A    between atoms: C_29  and  O_59 
REMARK   11  A    between atoms: C_30  and  O_60 
REMARK   12  A    between atoms: C_31  and  O_62 
REMARK   13  A    between atoms: C_32  and  O_63 
REMARK   14  A    between atoms: N_41  and  C_33 
REMARK   15  A    between atoms: N_42  and  C_34 
REMARK   16  A    between atoms: O_65  and  C_34 
REMARK       I    between atoms: N_54  and  C_37 
REMARK   17  A    between atoms: C_38  and  N_55 
REMARK   18  A    between atoms: C_39  and  N_57 
REMARK   19  A    between atoms: P_78  and  O_70 
REMARK   20  A    between atoms: P_77  and  O_72 
REMARK   21  A    between atoms: P_78  and  O_73 
REMARK   22  A    between atoms: P_77  and  O_76 
REMARK   23  A    between atoms: P_78  and  O_76 
ROOT
HETATM    1  C   UNK N   1      30.057  17.717   6.740  0.00  0.00     0.180 C 
HETATM    2  C   UNK N   1      29.939  17.026   5.402  0.00  0.00     0.182 C 
HETATM    3  C   UNK N   1      29.192  18.075   4.645  0.00  0.00     0.198 C 
HETATM    4  C   UNK N   1      28.294  18.709   5.762  0.00  0.00     0.259 C 
HETATM    5  O   UNK N   1      28.795  18.277   7.004  0.00  0.00    -0.353 OA
ENDROOT
BRANCH   4   6
HETATM    6  N   UNK N   1      26.904  18.345   5.616  0.00  0.00    -0.337 N 
HETATM    7  C   UNK N   1      26.478  16.991   5.797  0.00  0.00     0.091 C 
HETATM    8  C   UNK N   1      25.324  16.562   5.275  0.00  0.00     0.017 C 
HETATM    9  C   UNK N   1      24.424  17.536   4.581  0.00  0.00     0.147 C 
HETATM   10  C   UNK N   1      25.009  18.955   4.286  0.00  0.00     0.031 C 
HETATM   11  C   UNK N   1      26.114  19.283   4.924  0.00  0.00     0.106 C 
BRANCH   9  12
HETATM   12  N   UNK N   1      23.299  16.933   3.822  0.00  0.00    -0.192 NA
HETATM   13  C   UNK N   1      22.275  16.449   4.558  0.00  0.00     0.102 C 
HETATM   14  C   UNK N   1      22.220  15.107   4.314  0.00  0.00     0.059 C 
HETATM   15  C   UNK N   1      23.062  14.880   3.292  0.00  0.00     0.131 C 
HETATM   16  C   UNK N   1      21.816  14.079   5.160  0.00  0.00     0.119 C 
HETATM   17  N   UNK N   1      23.511  13.661   2.984  0.00  0.00    -0.337 N 
HETATM   18  N   UNK N   1      23.678  16.001   2.953  0.00  0.00    -0.299 N 
HETATM   19  C   UNK N   1      23.286  12.681   3.891  0.00  0.00     0.186 C 
ATOM     20  HN  UNK N   1      24.000  13.477   2.108  1.00  0.00     0.168 HD
HETATM   21  N   UNK N   1      22.548  12.901   5.045  0.00  0.00    -0.315 N 
ATOM     22  HN  UNK N   1      24.321  16.127   2.171  1.00  0.00     0.183 HD
HETATM   23  S   UNK N   1      20.902  14.340   6.244  0.00  0.00    -0.059 SA
BRANCH  21  24
HETATM   24  C   UNK N   1      22.920  11.961   6.154  0.00  0.00     0.216 C 
BRANCH  24  25
HETATM   25  C   UNK N   1      23.422  12.351   7.563  0.00  0.00    -0.026 A 
HETATM   26  C   UNK N   1      22.884  11.670   8.671  0.00  0.00     0.010 A 
HETATM   27  C   UNK N   1      23.409  11.844   9.958  0.00  0.00     0.001 A 
HETATM   28  C   UNK N   1      24.495  12.696  10.162  0.00  0.00     0.000 A 
HETATM   29  C   UNK N   1      25.073  13.348   9.077  0.00  0.00     0.001 A 
HETATM   30  C   UNK N   1      24.563  13.144   7.789  0.00  0.00     0.010 A 
ENDBRANCH  24  25
BRANCH  24  31
HETATM   31  C   UNK N   1      22.259  10.612   5.980  0.00  0.00     0.247 C 
HETATM   32  N   UNK N   1      22.971   9.459   5.915  0.00  0.00    -0.350 N 
HETATM   33  C   UNK N   1      24.415   9.461   5.950  0.00  0.00     0.126 C 
HETATM   34  C   UNK N   1      22.269   8.193   5.933  0.00  0.00     0.126 C 
HETATM   35  C   UNK N   1      25.032   9.376   4.547  0.00  0.00     0.020 C 
HETATM   36  C   UNK N   1      24.242   8.568   3.513  0.00  0.00     0.002 C 
HETATM   37  C   UNK N   1      23.676   7.273   4.070  0.00  0.00     0.002 C 
HETATM   38  C   UNK N   1      22.265   7.526   4.569  0.00  0.00     0.020 C 
HETATM   39  O   UNK N   1      21.033  10.568   5.955  0.00  0.00    -0.271 OA
ENDBRANCH  24  31
ENDBRANCH  21  24
ENDBRANCH   9  12
BRANCH  10  40
HETATM   40  C   UNK N   1      24.610  20.018   3.311  0.00  0.00     0.143 C 
BRANCH  40  41
HETATM   41  N   UNK N   1      23.388  20.204   2.998  0.00  0.00    -0.380 N 
HETATM   42  H   UNK N   1      22.471  20.561   3.041  0.00  0.00     0.158 HD
ATOM     43  HN  UNK N   1      23.309  19.591   2.186  1.00  0.00     0.158 HD
ENDBRANCH  40  41
BRANCH  40  44
HETATM   44  O   UNK N   1      25.555  20.568   2.516  0.00  0.00    -0.346 OA
ATOM     45  HO  UNK N   1      25.735  20.171   1.673  1.00  0.00     0.219 HD
ENDBRANCH  40  44
ENDBRANCH  10  40
ENDBRANCH   4   6
BRANCH   3  46
HETATM   46  O   UNK N   1      28.536  17.494   3.553  0.00  0.00    -0.388 OA
HETATM   47  H   UNK N   1      28.530  16.615   3.142  0.00  0.00     0.210 HD
ENDBRANCH   3  46
BRANCH   2  48
HETATM   48  O   UNK N   1      31.174  16.740   4.814  0.00  0.00    -0.390 OA
HETATM   49  H   UNK N   1      31.733  17.344   4.300  0.00  0.00     0.210 HD
ENDBRANCH   2  48
BRANCH   1  50
HETATM   50  C   UNK N   1      30.419  16.773   7.874  0.00  0.00     0.216 C 
BRANCH  50  51
HETATM   51  O   UNK N   1      31.292  15.837   7.322  0.00  0.00    -0.287 OA
BRANCH  51  52
HETATM   52  P   UNK N   1      32.574  15.543   8.443  0.00  0.00     0.417 P 
HETATM   53  O   UNK N   1      33.265  16.286   7.035  0.00  0.00    -0.624 OA
HETATM   54  O   UNK N   1      33.356  14.295   7.959  0.00  0.00    -0.624 OA
BRANCH  52  55
HETATM   55  O   UNK N   1      33.717  16.731   9.009  0.00  0.00    -0.188 OA
BRANCH  55  56
HETATM   56  P   UNK N   1      34.902  15.940  10.020  0.00  0.00     0.402 P 
HETATM   57  O   UNK N   1      35.756  17.081  10.631  0.00  0.00    -0.631 OA
BRANCH  56  58
HETATM   58  O   UNK N   1      36.009  14.910   9.161  0.00  0.00    -0.307 OA
HETATM   59  H   UNK N   1      36.489  14.120   9.454  0.00  0.00     0.222 HD
ENDBRANCH  56  58
BRANCH  56  60
HETATM   60  O   UNK N   1      34.167  15.135  11.380  0.00  0.00    -0.294 OA
BRANCH  60  61
HETATM   61  C   UNK N   1      35.235  14.824  12.223  0.00  0.00     0.215 C 
BRANCH  61  62
HETATM   62  C   UNK N   1      35.215  13.368  12.694  0.00  0.00     0.180 C 
HETATM   63  C   UNK N   1      36.506  12.567  12.433  0.00  0.00     0.182 C 
HETATM   64  C   UNK N   1      36.731  11.854  13.758  0.00  0.00     0.198 C 
HETATM   65  C   UNK N   1      35.314  11.859  14.293  0.00  0.00     0.262 C 
HETATM   66  O   UNK N   1      34.851  13.174  14.052  0.00  0.00    -0.353 OA
BRANCH  63  67
HETATM   67  O   UNK N   1      37.610  13.350  12.080  0.00  0.00    -0.390 OA
ATOM     68  HO  UNK N   1      38.122  13.660  12.818  1.00  0.00     0.210 HD
ENDBRANCH  63  67
BRANCH  64  69
HETATM   69  O   UNK N   1      37.534  12.634  14.599  0.00  0.00    -0.388 OA
ATOM     70  HO  UNK N   1      37.696  12.177  15.416  1.00  0.00     0.210 HD
ENDBRANCH  64  69
BRANCH  65  71
HETATM   71  N   UNK N   1      35.191  11.452  15.699  0.00  0.00    -0.297 N 
HETATM   72  C   UNK N   1      35.143  10.191  16.201  0.00  0.00     0.188 A 
HETATM   73  N   UNK N   1      35.171  10.201  17.568  0.00  0.00    -0.346 N 
HETATM   74  C   UNK N   1      35.231  11.506  17.891  0.00  0.00     0.122 A 
ATOM     75  HN  UNK N   1      35.150   9.401  18.200  1.00  0.00     0.167 HD
HETATM   76  C   UNK N   1      35.319  12.120  19.133  0.00  0.00     0.131 A 
HETATM   77  C   UNK N   1      35.230  12.255  16.772  0.00  0.00     0.142 A 
HETATM   78  N   UNK N   1      35.371  13.485  19.172  0.00  0.00    -0.337 N 
HETATM   79  C   UNK N   1      35.346  14.226  18.015  0.00  0.00     0.183 A 
ATOM     80  HN  UNK N   1      35.428  13.960  20.073  1.00  0.00     0.168 HD
HETATM   81  N   UNK N   1      35.291  13.607  16.797  0.00  0.00    -0.336 N 
ATOM     82  HN  UNK N   1      35.297  14.147  15.931  1.00  0.00     0.168 HD
BRANCH  76  83
HETATM   83  N   UNK N   1      35.380  11.365  20.323  0.00  0.00    -0.383 N 
HETATM   84  H   UNK N   1      34.686  11.472  21.012  0.00  0.00     0.157 HD
HETATM   85  H   UNK N   1      36.119  10.731  20.464  0.00  0.00     0.157 HD
ENDBRANCH  76  83
ENDBRANCH  65  71
ENDBRANCH  61  62
ENDBRANCH  60  61
ENDBRANCH  56  60
ENDBRANCH  55  56
ENDBRANCH  52  55
ENDBRANCH  51  52
ENDBRANCH  50  51
ENDBRANCH   1  50
TORSDOF 23
ENDMDL
