MODEL 1
REMARK VINA RESULT:      -6.8      0.000      0.000
REMARK  6 active torsions:
REMARK  status: ('A' for Active; 'I' for Inactive)
REMARK    1  A    between atoms: N_2  and  C_4 
REMARK    2  A    between atoms: C_4  and  C_5 
REMARK    3  A    between atoms: C_5  and  C_6 
REMARK    4  A    between atoms: C_6  and  N_7 
REMARK       I    between atoms: N_7  and  C_8 
REMARK    5  A    between atoms: C_8  and  C_10 
REMARK    6  A    between atoms: C_15  and  N_16 
ROOT
HETATM    1  C   UNK N   1      34.215  16.371   8.051  0.00  0.00     0.059 A 
HETATM    2  C   UNK N   1      35.013  15.858   7.014  0.00  0.00     0.019 A 
HETATM    3  C   UNK N   1      34.509  15.695   5.727  0.00  0.00     0.002 A 
HETATM    4  C   UNK N   1      33.198  16.061   5.441  0.00  0.00     0.016 A 
HETATM    5  C   UNK N   1      32.373  16.580   6.447  0.00  0.00     0.019 A 
HETATM    6  C   UNK N   1      31.058  16.970   6.153  0.00  0.00     0.051 A 
HETATM    7  C   UNK N   1      30.251  17.493   7.173  0.00  0.00     0.018 A 
HETATM    8  C   UNK N   1      30.778  17.610   8.478  0.00  0.00     0.045 A 
HETATM    9  C   UNK N   1      29.980  18.124   9.505  0.00  0.00     0.030 A 
HETATM   10  C   UNK N   1      28.667  18.525   9.241  0.00  0.00     0.002 A 
HETATM   11  C   UNK N   1      28.146  18.415   7.948  0.00  0.00     0.001 A 
HETATM   12  C   UNK N   1      28.935  17.900   6.916  0.00  0.00     0.016 A 
HETATM   13  N   UNK N   1      32.059  17.234   8.737  0.00  0.00    -0.354 N 
ATOM     14  HN  UNK N   1      32.421  17.334   9.686  1.00  0.00     0.166 HD
HETATM   15  C   UNK N   1      32.873  16.728   7.767  0.00  0.00     0.061 A 
ENDROOT
BRANCH   1  16
HETATM   16  C   UNK N   1      34.847  16.546   9.388  0.00  0.00     0.253 C 
HETATM   17  N   UNK N   1      35.079  15.435  10.142  0.00  0.00    -0.357 N 
HETATM   18  H   UNK N   1      34.782  14.585   9.747  0.00  0.00     0.162 HD
HETATM   19  O   UNK N   1      35.174  17.655   9.784  0.00  0.00    -0.268 OA
BRANCH  17  20
HETATM   20  C   UNK N   1      35.706  15.332  11.448  0.00  0.00     0.124 C 
BRANCH  20  21
HETATM   21  C   UNK N   1      35.319  14.130  12.297  0.00  0.00     0.050 C 
BRANCH  21  22
HETATM   22  C   UNK N   1      36.112  14.135  13.603  0.00  0.00     0.273 C 
BRANCH  22  23
HETATM   23  N   UNK N   1      35.418  13.408  14.660  0.00  0.00     0.080 N 
HETATM   24  C   UNK N   1      34.856  12.217  14.052  0.00  0.00     0.309 C 
HETATM   25  C   UNK N   1      36.413  12.944  15.614  0.00  0.00     0.309 C 
ENDBRANCH  22  23
ENDBRANCH  21  22
ENDBRANCH  20  21
ENDBRANCH  17  20
ENDBRANCH   1  16
BRANCH   6  26
HETATM   26  N   UNK N   1      30.554  16.848   4.836  0.00  0.00    -0.398 N 
HETATM   27  H   UNK N   1      29.640  16.512   4.687  0.00  0.00     0.156 HD
HETATM   28  H   UNK N   1      31.117  17.098   4.068  0.00  0.00     0.156 HD
ENDBRANCH   6  26
TORSDOF 6
ENDMDL
MODEL 2
REMARK VINA RESULT:      -6.7      2.820      9.590
REMARK  6 active torsions:
REMARK  status: ('A' for Active; 'I' for Inactive)
REMARK    1  A    between atoms: N_2  and  C_4 
REMARK    2  A    between atoms: C_4  and  C_5 
REMARK    3  A    between atoms: C_5  and  C_6 
REMARK    4  A    between atoms: C_6  and  N_7 
REMARK       I    between atoms: N_7  and  C_8 
REMARK    5  A    between atoms: C_8  and  C_10 
REMARK    6  A    between atoms: C_15  and  N_16 
ROOT
HETATM    1  C   UNK N   1      35.125  12.149  12.917  0.00  0.00     0.059 A 
HETATM    2  C   UNK N   1      35.119  11.080  12.005  0.00  0.00     0.019 A 
HETATM    3  C   UNK N   1      35.174   9.759  12.439  0.00  0.00     0.002 A 
HETATM    4  C   UNK N   1      35.215   9.475  13.800  0.00  0.00     0.016 A 
HETATM    5  C   UNK N   1      35.218  10.513  14.741  0.00  0.00     0.019 A 
HETATM    6  C   UNK N   1      35.236  10.225  16.114  0.00  0.00     0.051 A 
HETATM    7  C   UNK N   1      35.233  11.279  17.037  0.00  0.00     0.018 A 
HETATM    8  C   UNK N   1      35.218  12.610  16.565  0.00  0.00     0.045 A 
HETATM    9  C   UNK N   1      35.221  13.670  17.478  0.00  0.00     0.030 A 
HETATM   10  C   UNK N   1      35.235  13.414  18.852  0.00  0.00     0.002 A 
HETATM   11  C   UNK N   1      35.244  12.097  19.321  0.00  0.00     0.001 A 
HETATM   12  C   UNK N   1      35.245  11.031  18.416  0.00  0.00     0.016 A 
HETATM   13  N   UNK N   1      35.190  12.865  15.230  0.00  0.00    -0.354 N 
ATOM     14  HN  UNK N   1      35.172  13.834  14.912  1.00  0.00     0.166 HD
HETATM   15  C   UNK N   1      35.186  11.863  14.304  0.00  0.00     0.061 A 
ENDROOT
BRANCH   1  16
HETATM   16  C   UNK N   1      35.028  13.528  12.366  0.00  0.00     0.253 C 
HETATM   17  N   UNK N   1      34.182  13.749  11.321  0.00  0.00    -0.357 N 
HETATM   18  H   UNK N   1      33.708  12.955  10.986  0.00  0.00     0.162 HD
HETATM   19  O   UNK N   1      35.671  14.445  12.859  0.00  0.00    -0.268 OA
BRANCH  17  20
HETATM   20  C   UNK N   1      33.883  14.992  10.633  0.00  0.00     0.124 C 
BRANCH  20  21
HETATM   21  C   UNK N   1      34.885  15.450   9.583  0.00  0.00     0.050 C 
BRANCH  21  22
HETATM   22  C   UNK N   1      34.881  16.974   9.485  0.00  0.00     0.273 C 
BRANCH  22  23
HETATM   23  N   UNK N   1      34.541  17.428   8.141  0.00  0.00     0.080 N 
HETATM   24  C   UNK N   1      34.503  16.250   7.295  0.00  0.00     0.309 C 
HETATM   25  C   UNK N   1      33.183  17.948   8.172  0.00  0.00     0.309 C 
ENDBRANCH  22  23
ENDBRANCH  21  22
ENDBRANCH  20  21
ENDBRANCH  17  20
ENDBRANCH   1  16
BRANCH   6  26
HETATM   26  N   UNK N   1      35.247   8.882  16.562  0.00  0.00    -0.398 N 
HETATM   27  H   UNK N   1      34.920   8.164  15.973  0.00  0.00     0.156 HD
HETATM   28  H   UNK N   1      35.581   8.667  17.463  0.00  0.00     0.156 HD
ENDBRANCH   6  26
TORSDOF 6
ENDMDL
MODEL 3
REMARK VINA RESULT:      -6.6      2.409      3.201
REMARK  6 active torsions:
REMARK  status: ('A' for Active; 'I' for Inactive)
REMARK    1  A    between atoms: N_2  and  C_4 
REMARK    2  A    between atoms: C_4  and  C_5 
REMARK    3  A    between atoms: C_5  and  C_6 
REMARK    4  A    between atoms: C_6  and  N_7 
REMARK       I    between atoms: N_7  and  C_8 
REMARK    5  A    between atoms: C_8  and  C_10 
REMARK    6  A    between atoms: C_15  and  N_16 
ROOT
HETATM    1  C   UNK N   1      33.200  16.374   5.243  0.00  0.00     0.059 A 
HETATM    2  C   UNK N   1      33.396  16.201   3.862  0.00  0.00     0.019 A 
HETATM    3  C   UNK N   1      32.384  16.478   2.948  0.00  0.00     0.002 A 
HETATM    4  C   UNK N   1      31.156  16.955   3.392  0.00  0.00     0.016 A 
HETATM    5  C   UNK N   1      30.924  17.146   4.760  0.00  0.00     0.019 A 
HETATM    6  C   UNK N   1      29.692  17.649   5.206  0.00  0.00     0.051 A 
HETATM    7  C   UNK N   1      29.483  17.837   6.579  0.00  0.00     0.018 A 
HETATM    8  C   UNK N   1      30.515  17.510   7.486  0.00  0.00     0.045 A 
HETATM    9  C   UNK N   1      30.315  17.688   8.859  0.00  0.00     0.030 A 
HETATM   10  C   UNK N   1      29.100  18.191   9.333  0.00  0.00     0.002 A 
HETATM   11  C   UNK N   1      28.079  18.521   8.436  0.00  0.00     0.001 A 
HETATM   12  C   UNK N   1      28.269  18.344   7.062  0.00  0.00     0.016 A 
HETATM   13  N   UNK N   1      31.704  17.033   7.030  0.00  0.00    -0.354 N 
ATOM     14  HN  UNK N   1      32.438  16.809   7.702  1.00  0.00     0.166 HD
HETATM   15  C   UNK N   1      31.943  16.843   5.700  0.00  0.00     0.061 A 
ENDROOT
BRANCH   1  16
HETATM   16  C   UNK N   1      34.349  16.088   6.145  0.00  0.00     0.253 C 
HETATM   17  N   UNK N   1      34.827  14.813   6.198  0.00  0.00    -0.357 N 
HETATM   18  H   UNK N   1      34.349  14.159   5.641  0.00  0.00     0.162 HD
HETATM   19  O   UNK N   1      34.866  16.981   6.800  0.00  0.00    -0.268 OA
BRANCH  17  20
HETATM   20  C   UNK N   1      35.945  14.287   6.961  0.00  0.00     0.124 C 
BRANCH  20  21
HETATM   21  C   UNK N   1      35.631  13.757   8.353  0.00  0.00     0.050 C 
BRANCH  21  22
HETATM   22  C   UNK N   1      36.143  14.732   9.412  0.00  0.00     0.273 C 
BRANCH  22  23
HETATM   23  N   UNK N   1      35.113  15.683   9.814  0.00  0.00     0.080 N 
HETATM   24  C   UNK N   1      33.912  14.914  10.082  0.00  0.00     0.309 C 
HETATM   25  C   UNK N   1      35.512  16.268  11.084  0.00  0.00     0.309 C 
ENDBRANCH  22  23
ENDBRANCH  21  22
ENDBRANCH  20  21
ENDBRANCH  17  20
ENDBRANCH   1  16
BRANCH   6  26
HETATM   26  N   UNK N   1      28.675  17.974   4.278  0.00  0.00    -0.398 N 
HETATM   27  H   UNK N   1      27.913  18.533   4.556  0.00  0.00     0.156 HD
HETATM   28  H   UNK N   1      28.729  17.642   3.352  0.00  0.00     0.156 HD
ENDBRANCH   6  26
TORSDOF 6
ENDMDL
MODEL 4
REMARK VINA RESULT:      -6.6     14.466     17.822
REMARK  6 active torsions:
REMARK  status: ('A' for Active; 'I' for Inactive)
REMARK    1  A    between atoms: N_2  and  C_4 
REMARK    2  A    between atoms: C_4  and  C_5 
REMARK    3  A    between atoms: C_5  and  C_6 
REMARK    4  A    between atoms: C_6  and  N_7 
REMARK       I    between atoms: N_7  and  C_8 
REMARK    5  A    between atoms: C_8  and  C_10 
REMARK    6  A    between atoms: C_15  and  N_16 
ROOT
HETATM    1  C   UNK N   1      27.156  23.976  -5.106  0.00  0.00     0.059 A 
HETATM    2  C   UNK N   1      26.293  23.936  -6.214  0.00  0.00     0.019 A 
HETATM    3  C   UNK N   1      26.562  23.124  -7.312  0.00  0.00     0.002 A 
HETATM    4  C   UNK N   1      27.694  22.316  -7.319  0.00  0.00     0.016 A 
HETATM    5  C   UNK N   1      28.577  22.325  -6.232  0.00  0.00     0.019 A 
HETATM    6  C   UNK N   1      29.706  21.492  -6.230  0.00  0.00     0.051 A 
HETATM    7  C   UNK N   1      30.573  21.513  -5.129  0.00  0.00     0.018 A 
HETATM    8  C   UNK N   1      30.295  22.376  -4.047  0.00  0.00     0.045 A 
HETATM    9  C   UNK N   1      31.156  22.409  -2.945  0.00  0.00     0.030 A 
HETATM   10  C   UNK N   1      32.287  21.588  -2.913  0.00  0.00     0.002 A 
HETATM   11  C   UNK N   1      32.561  20.728  -3.982  0.00  0.00     0.001 A 
HETATM   12  C   UNK N   1      31.708  20.691  -5.088  0.00  0.00     0.016 A 
HETATM   13  N   UNK N   1      29.188  23.167  -4.066  0.00  0.00    -0.354 N 
ATOM     14  HN  UNK N   1      29.003  23.778  -3.271  1.00  0.00     0.166 HD
HETATM   15  C   UNK N   1      28.321  23.167  -5.119  0.00  0.00     0.061 A 
ENDROOT
BRANCH   1  16
HETATM   16  C   UNK N   1      26.772  24.845  -3.961  0.00  0.00     0.253 C 
HETATM   17  N   UNK N   1      26.581  26.174  -4.194  0.00  0.00    -0.357 N 
HETATM   18  H   UNK N   1      26.740  26.469  -5.119  0.00  0.00     0.162 HD
HETATM   19  O   UNK N   1      26.603  24.372  -2.846  0.00  0.00    -0.268 OA
BRANCH  17  20
HETATM   20  C   UNK N   1      26.174  27.215  -3.267  0.00  0.00     0.124 C 
BRANCH  20  21
HETATM   21  C   UNK N   1      25.838  28.572  -3.869  0.00  0.00     0.050 C 
BRANCH  21  22
HETATM   22  C   UNK N   1      26.710  29.655  -3.238  0.00  0.00     0.273 C 
BRANCH  22  23
HETATM   23  N   UNK N   1      27.987  29.121  -2.776  0.00  0.00     0.080 N 
HETATM   24  C   UNK N   1      28.993  29.553  -3.728  0.00  0.00     0.309 C 
HETATM   25  C   UNK N   1      28.316  29.770  -1.516  0.00  0.00     0.309 C 
ENDBRANCH  22  23
ENDBRANCH  21  22
ENDBRANCH  20  21
ENDBRANCH  17  20
ENDBRANCH   1  16
BRANCH   6  26
HETATM   26  N   UNK N   1      29.961  20.632  -7.324  0.00  0.00    -0.398 N 
HETATM   27  H   UNK N   1      30.868  20.277  -7.471  0.00  0.00     0.156 HD
HETATM   28  H   UNK N   1      29.232  20.388  -7.940  0.00  0.00     0.156 HD
ENDBRANCH   6  26
TORSDOF 6
ENDMDL
MODEL 5
REMARK VINA RESULT:      -6.5      2.251      4.337
REMARK  6 active torsions:
REMARK  status: ('A' for Active; 'I' for Inactive)
REMARK    1  A    between atoms: N_2  and  C_4 
REMARK    2  A    between atoms: C_4  and  C_5 
REMARK    3  A    between atoms: C_5  and  C_6 
REMARK    4  A    between atoms: C_6  and  N_7 
REMARK       I    between atoms: N_7  and  C_8 
REMARK    5  A    between atoms: C_8  and  C_10 
REMARK    6  A    between atoms: C_15  and  N_16 
ROOT
HETATM    1  C   UNK N   1      30.983  17.748   8.081  0.00  0.00     0.059 A 
HETATM    2  C   UNK N   1      30.450  18.204   9.299  0.00  0.00     0.019 A 
HETATM    3  C   UNK N   1      29.076  18.298   9.497  0.00  0.00     0.002 A 
HETATM    4  C   UNK N   1      28.199  17.918   8.487  0.00  0.00     0.016 A 
HETATM    5  C   UNK N   1      28.691  17.454   7.260  0.00  0.00     0.019 A 
HETATM    6  C   UNK N   1      27.806  17.049   6.250  0.00  0.00     0.051 A 
HETATM    7  C   UNK N   1      28.320  16.583   5.032  0.00  0.00     0.018 A 
HETATM    8  C   UNK N   1      29.719  16.537   4.845  0.00  0.00     0.045 A 
HETATM    9  C   UNK N   1      30.243  16.079   3.632  0.00  0.00     0.030 A 
HETATM   10  C   UNK N   1      29.385  15.665   2.608  0.00  0.00     0.002 A 
HETATM   11  C   UNK N   1      28.000  15.705   2.793  0.00  0.00     0.001 A 
HETATM   12  C   UNK N   1      27.468  16.164   4.001  0.00  0.00     0.016 A 
HETATM   13  N   UNK N   1      30.558  16.925   5.843  0.00  0.00    -0.354 N 
ATOM     14  HN  UNK N   1      31.565  16.876   5.689  1.00  0.00     0.166 HD
HETATM   15  C   UNK N   1      30.091  17.378   7.042  0.00  0.00     0.061 A 
ENDROOT
BRANCH   1  16
HETATM   16  C   UNK N   1      32.463  17.646   7.968  0.00  0.00     0.253 C 
HETATM   17  N   UNK N   1      33.175  17.319   9.083  0.00  0.00    -0.357 N 
HETATM   18  H   UNK N   1      32.645  17.197   9.903  0.00  0.00     0.162 HD
HETATM   19  O   UNK N   1      33.022  17.822   6.895  0.00  0.00    -0.268 OA
BRANCH  17  20
HETATM   20  C   UNK N   1      34.606  17.124   9.230  0.00  0.00     0.124 C 
BRANCH  20  21
HETATM   21  C   UNK N   1      35.077  16.458  10.515  0.00  0.00     0.050 C 
BRANCH  21  22
HETATM   22  C   UNK N   1      34.531  15.033  10.596  0.00  0.00     0.273 C 
BRANCH  22  23
HETATM   23  N   UNK N   1      34.805  14.422  11.891  0.00  0.00     0.080 N 
HETATM   24  C   UNK N   1      35.115  13.027  11.642  0.00  0.00     0.309 C 
HETATM   25  C   UNK N   1      36.021  15.019  12.421  0.00  0.00     0.309 C 
ENDBRANCH  22  23
ENDBRANCH  21  22
ENDBRANCH  20  21
ENDBRANCH  17  20
ENDBRANCH   1  16
BRANCH   6  26
HETATM   26  N   UNK N   1      26.408  17.101   6.462  0.00  0.00    -0.398 N 
HETATM   27  H   UNK N   1      25.960  17.968   6.587  0.00  0.00     0.156 HD
HETATM   28  H   UNK N   1      25.882  16.268   6.485  0.00  0.00     0.156 HD
ENDBRANCH   6  26
TORSDOF 6
ENDMDL
MODEL 6
REMARK VINA RESULT:      -6.5      4.404      9.868
REMARK  6 active torsions:
REMARK  status: ('A' for Active; 'I' for Inactive)
REMARK    1  A    between atoms: N_2  and  C_4 
REMARK    2  A    between atoms: C_4  and  C_5 
REMARK    3  A    between atoms: C_5  and  C_6 
REMARK    4  A    between atoms: C_6  and  N_7 
REMARK       I    between atoms: N_7  and  C_8 
REMARK    5  A    between atoms: C_8  and  C_10 
REMARK    6  A    between atoms: C_15  and  N_16 
ROOT
HETATM    1  C   UNK N   1      28.402  18.002   7.015  0.00  0.00     0.059 A 
HETATM    2  C   UNK N   1      27.933  18.420   8.272  0.00  0.00     0.019 A 
HETATM    3  C   UNK N   1      28.765  18.433   9.387  0.00  0.00     0.002 A 
HETATM    4  C   UNK N   1      30.096  18.046   9.267  0.00  0.00     0.016 A 
HETATM    5  C   UNK N   1      30.602  17.627   8.030  0.00  0.00     0.019 A 
HETATM    6  C   UNK N   1      31.951  17.259   7.905  0.00  0.00     0.051 A 
HETATM    7  C   UNK N   1      32.438  16.848   6.657  0.00  0.00     0.018 A 
HETATM    8  C   UNK N   1      31.559  16.807   5.552  0.00  0.00     0.045 A 
HETATM    9  C   UNK N   1      32.033  16.393   4.303  0.00  0.00     0.030 A 
HETATM   10  C   UNK N   1      33.373  16.024   4.147  0.00  0.00     0.002 A 
HETATM   11  C   UNK N   1      34.245  16.069   5.239  0.00  0.00     0.001 A 
HETATM   12  C   UNK N   1      33.780  16.479   6.491  0.00  0.00     0.016 A 
HETATM   13  N   UNK N   1      30.259  17.178   5.695  0.00  0.00    -0.354 N 
ATOM     14  HN  UNK N   1      29.643  17.147   4.882  1.00  0.00     0.166 HD
HETATM   15  C   UNK N   1      29.754  17.589   6.894  0.00  0.00     0.061 A 
ENDROOT
BRANCH   1  16
HETATM   16  C   UNK N   1      27.453  18.054   5.870  0.00  0.00     0.253 C 
HETATM   17  N   UNK N   1      26.528  19.054   5.842  0.00  0.00    -0.357 N 
HETATM   18  H   UNK N   1      26.543  19.665   6.613  0.00  0.00     0.162 HD
HETATM   19  O   UNK N   1      27.522  17.236   4.963  0.00  0.00    -0.268 OA
BRANCH  17  20
HETATM   20  C   UNK N   1      25.525  19.344   4.834  0.00  0.00     0.124 C 
BRANCH  20  21
HETATM   21  C   UNK N   1      24.249  18.515   4.882  0.00  0.00     0.050 C 
BRANCH  21  22
HETATM   22  C   UNK N   1      23.250  19.032   3.848  0.00  0.00     0.273 C 
BRANCH  22  23
HETATM   23  N   UNK N   1      21.914  18.490   4.070  0.00  0.00     0.080 N 
HETATM   24  C   UNK N   1      21.811  18.188   5.485  0.00  0.00     0.309 C 
HETATM   25  C   UNK N   1      20.951  19.550   3.811  0.00  0.00     0.309 C 
ENDBRANCH  22  23
ENDBRANCH  21  22
ENDBRANCH  20  21
ENDBRANCH  17  20
ENDBRANCH   1  16
BRANCH   6  26
HETATM   26  N   UNK N   1      32.813  17.313   9.026  0.00  0.00    -0.398 N 
HETATM   27  H   UNK N   1      32.722  16.651   9.750  0.00  0.00     0.156 HD
HETATM   28  H   UNK N   1      33.504  18.012   9.083  0.00  0.00     0.156 HD
ENDBRANCH   6  26
TORSDOF 6
ENDMDL
MODEL 7
REMARK VINA RESULT:      -6.5      4.326      8.873
REMARK  6 active torsions:
REMARK  status: ('A' for Active; 'I' for Inactive)
REMARK    1  A    between atoms: N_2  and  C_4 
REMARK    2  A    between atoms: C_4  and  C_5 
REMARK    3  A    between atoms: C_5  and  C_6 
REMARK    4  A    between atoms: C_6  and  N_7 
REMARK       I    between atoms: N_7  and  C_8 
REMARK    5  A    between atoms: C_8  and  C_10 
REMARK    6  A    between atoms: C_15  and  N_16 
ROOT
HETATM    1  C   UNK N   1      28.557  18.314   6.978  0.00  0.00     0.059 A 
HETATM    2  C   UNK N   1      28.077  18.642   8.257  0.00  0.00     0.019 A 
HETATM    3  C   UNK N   1      28.845  18.421   9.397  0.00  0.00     0.002 A 
HETATM    4  C   UNK N   1      30.123  17.884   9.282  0.00  0.00     0.016 A 
HETATM    5  C   UNK N   1      30.638  17.547   8.023  0.00  0.00     0.019 A 
HETATM    6  C   UNK N   1      31.936  17.027   7.906  0.00  0.00     0.051 A 
HETATM    7  C   UNK N   1      32.434  16.702   6.637  0.00  0.00     0.018 A 
HETATM    8  C   UNK N   1      31.617  16.901   5.503  0.00  0.00     0.045 A 
HETATM    9  C   UNK N   1      32.101  16.575   4.232  0.00  0.00     0.030 A 
HETATM   10  C   UNK N   1      33.392  16.058   4.084  0.00  0.00     0.002 A 
HETATM   11  C   UNK N   1      34.205  15.866   5.205  0.00  0.00     0.001 A 
HETATM   12  C   UNK N   1      33.727  16.186   6.479  0.00  0.00     0.016 A 
HETATM   13  N   UNK N   1      30.366  17.416   5.640  0.00  0.00    -0.354 N 
ATOM     14  HN  UNK N   1      29.795  17.558   4.807  1.00  0.00     0.166 HD
HETATM   15  C   UNK N   1      29.852  17.749   6.860  0.00  0.00     0.061 A 
ENDROOT
BRANCH   1  16
HETATM   16  C   UNK N   1      27.683  18.618   5.812  0.00  0.00     0.253 C 
HETATM   17  N   UNK N   1      26.439  18.064   5.776  0.00  0.00    -0.357 N 
HETATM   18  H   UNK N   1      26.218  17.471   6.529  0.00  0.00     0.162 HD
HETATM   19  O   UNK N   1      28.063  19.369   4.925  0.00  0.00    -0.268 OA
BRANCH  17  20
HETATM   20  C   UNK N   1      25.394  18.227   4.781  0.00  0.00     0.124 C 
BRANCH  20  21
HETATM   21  C   UNK N   1      25.456  17.310   3.569  0.00  0.00     0.050 C 
BRANCH  21  22
HETATM   22  C   UNK N   1      25.844  15.897   4.001  0.00  0.00     0.273 C 
BRANCH  22  23
HETATM   23  N   UNK N   1      26.785  15.286   3.069  0.00  0.00     0.080 N 
HETATM   24  C   UNK N   1      26.222  15.438   1.741  0.00  0.00     0.309 C 
HETATM   25  C   UNK N   1      28.008  16.074   3.083  0.00  0.00     0.309 C 
ENDBRANCH  22  23
ENDBRANCH  21  22
ENDBRANCH  20  21
ENDBRANCH  17  20
ENDBRANCH   1  16
BRANCH   6  26
HETATM   26  N   UNK N   1      32.738  16.841   9.057  0.00  0.00    -0.398 N 
HETATM   27  H   UNK N   1      33.697  17.062   9.031  0.00  0.00     0.156 HD
HETATM   28  H   UNK N   1      32.337  16.491   9.886  0.00  0.00     0.156 HD
ENDBRANCH   6  26
TORSDOF 6
ENDMDL
MODEL 8
REMARK VINA RESULT:      -6.4      4.128      8.988
REMARK  6 active torsions:
REMARK  status: ('A' for Active; 'I' for Inactive)
REMARK    1  A    between atoms: N_2  and  C_4 
REMARK    2  A    between atoms: C_4  and  C_5 
REMARK    3  A    between atoms: C_5  and  C_6 
REMARK    4  A    between atoms: C_6  and  N_7 
REMARK       I    between atoms: N_7  and  C_8 
REMARK    5  A    between atoms: C_8  and  C_10 
REMARK    6  A    between atoms: C_15  and  N_16 
ROOT
HETATM    1  C   UNK N   1      28.990  17.590   6.897  0.00  0.00     0.059 A 
HETATM    2  C   UNK N   1      28.449  18.282   7.994  0.00  0.00     0.019 A 
HETATM    3  C   UNK N   1      29.226  18.596   9.106  0.00  0.00     0.002 A 
HETATM    4  C   UNK N   1      30.571  18.243   9.137  0.00  0.00     0.016 A 
HETATM    5  C   UNK N   1      31.148  17.556   8.061  0.00  0.00     0.019 A 
HETATM    6  C   UNK N   1      32.510  17.221   8.083  0.00  0.00     0.051 A 
HETATM    7  C   UNK N   1      33.068  16.539   6.993  0.00  0.00     0.018 A 
HETATM    8  C   UNK N   1      32.245  16.199   5.897  0.00  0.00     0.045 A 
HETATM    9  C   UNK N   1      32.790  15.514   4.806  0.00  0.00     0.030 A 
HETATM   10  C   UNK N   1      34.145  15.170   4.798  0.00  0.00     0.002 A 
HETATM   11  C   UNK N   1      34.963  15.511   5.880  0.00  0.00     0.001 A 
HETATM   12  C   UNK N   1      34.426  16.193   6.976  0.00  0.00     0.016 A 
HETATM   13  N   UNK N   1      30.930  16.544   5.893  0.00  0.00    -0.354 N 
ATOM     14  HN  UNK N   1      30.356  16.294   5.088  1.00  0.00     0.166 HD
HETATM   15  C   UNK N   1      30.356  17.213   6.935  0.00  0.00     0.061 A 
ENDROOT
BRANCH   1  16
HETATM   16  C   UNK N   1      28.096  17.328   5.736  0.00  0.00     0.253 C 
HETATM   17  N   UNK N   1      26.759  17.198   5.967  0.00  0.00    -0.357 N 
HETATM   18  H   UNK N   1      26.484  17.264   6.909  0.00  0.00     0.162 HD
HETATM   19  O   UNK N   1      28.548  17.260   4.602  0.00  0.00    -0.268 OA
BRANCH  17  20
HETATM   20  C   UNK N   1      25.685  16.976   5.015  0.00  0.00     0.124 C 
BRANCH  20  21
HETATM   21  C   UNK N   1      25.320  18.146   4.113  0.00  0.00     0.050 C 
BRANCH  21  22
HETATM   22  C   UNK N   1      24.995  19.376   4.957  0.00  0.00     0.273 C 
BRANCH  22  23
HETATM   23  N   UNK N   1      25.815  20.522   4.581  0.00  0.00     0.080 N 
HETATM   24  C   UNK N   1      26.660  20.828   5.720  0.00  0.00     0.309 C 
HETATM   25  C   UNK N   1      26.710  20.104   3.514  0.00  0.00     0.309 C 
ENDBRANCH  22  23
ENDBRANCH  21  22
ENDBRANCH  20  21
ENDBRANCH  17  20
ENDBRANCH   1  16
BRANCH   6  26
HETATM   26  N   UNK N   1      33.316  17.577   9.191  0.00  0.00    -0.398 N 
HETATM   27  H   UNK N   1      33.030  18.299   9.796  0.00  0.00     0.156 HD
HETATM   28  H   UNK N   1      34.162  17.102   9.357  0.00  0.00     0.156 HD
ENDBRANCH   6  26
TORSDOF 6
ENDMDL
MODEL 9
REMARK VINA RESULT:      -6.4      1.949      4.095
REMARK  6 active torsions:
REMARK  status: ('A' for Active; 'I' for Inactive)
REMARK    1  A    between atoms: N_2  and  C_4 
REMARK    2  A    between atoms: C_4  and  C_5 
REMARK    3  A    between atoms: C_5  and  C_6 
REMARK    4  A    between atoms: C_6  and  N_7 
REMARK       I    between atoms: N_7  and  C_8 
REMARK    5  A    between atoms: C_8  and  C_10 
REMARK    6  A    between atoms: C_15  and  N_16 
ROOT
HETATM    1  C   UNK N   1      32.263  17.545   7.929  0.00  0.00     0.059 A 
HETATM    2  C   UNK N   1      31.297  18.199   8.713  0.00  0.00     0.019 A 
HETATM    3  C   UNK N   1      29.943  18.125   8.402  0.00  0.00     0.002 A 
HETATM    4  C   UNK N   1      29.519  17.377   7.309  0.00  0.00     0.016 A 
HETATM    5  C   UNK N   1      30.451  16.707   6.506  0.00  0.00     0.019 A 
HETATM    6  C   UNK N   1      30.021  15.934   5.417  0.00  0.00     0.051 A 
HETATM    7  C   UNK N   1      30.970  15.267   4.630  0.00  0.00     0.018 A 
HETATM    8  C   UNK N   1      32.341  15.393   4.947  0.00  0.00     0.045 A 
HETATM    9  C   UNK N   1      33.297  14.737   4.165  0.00  0.00     0.030 A 
HETATM   10  C   UNK N   1      32.898  13.956   3.076  0.00  0.00     0.002 A 
HETATM   11  C   UNK N   1      31.541  13.825   2.764  0.00  0.00     0.001 A 
HETATM   12  C   UNK N   1      30.579  14.480   3.538  0.00  0.00     0.016 A 
HETATM   13  N   UNK N   1      32.733  16.140   6.013  0.00  0.00    -0.354 N 
ATOM     14  HN  UNK N   1      33.728  16.211   6.228  1.00  0.00     0.166 HD
HETATM   15  C   UNK N   1      31.835  16.796   6.803  0.00  0.00     0.061 A 
ENDROOT
BRANCH   1  16
HETATM   16  C   UNK N   1      33.685  17.648   8.356  0.00  0.00     0.253 C 
HETATM   17  N   UNK N   1      34.040  17.114   9.559  0.00  0.00    -0.357 N 
HETATM   18  H   UNK N   1      33.305  16.715  10.077  0.00  0.00     0.162 HD
HETATM   19  O   UNK N   1      34.518  18.173   7.631  0.00  0.00    -0.268 OA
BRANCH  17  20
HETATM   20  C   UNK N   1      35.350  17.053  10.181  0.00  0.00     0.124 C 
BRANCH  20  21
HETATM   21  C   UNK N   1      35.497  16.116  11.371  0.00  0.00     0.050 C 
BRANCH  21  22
HETATM   22  C   UNK N   1      34.574  14.911  11.205  0.00  0.00     0.273 C 
BRANCH  22  23
HETATM   23  N   UNK N   1      34.917  13.836  12.129  0.00  0.00     0.080 N 
HETATM   24  C   UNK N   1      35.383  12.721  11.325  0.00  0.00     0.309 C 
HETATM   25  C   UNK N   1      36.058  14.270  12.920  0.00  0.00     0.309 C 
ENDBRANCH  22  23
ENDBRANCH  21  22
ENDBRANCH  20  21
ENDBRANCH  17  20
ENDBRANCH   1  16
BRANCH   6  26
HETATM   26  N   UNK N   1      28.641  15.819   5.123  0.00  0.00    -0.398 N 
HETATM   27  H   UNK N   1      28.347  15.313   4.331  0.00  0.00     0.156 HD
HETATM   28  H   UNK N   1      27.976  16.245   5.710  0.00  0.00     0.156 HD
ENDBRANCH   6  26
TORSDOF 6
ENDMDL
