REMARK  8 active torsions:
REMARK  status: ('A' for Active; 'I' for Inactive)
REMARK    1  A    between atoms: C_4  and  C_1 
REMARK    2  A    between atoms: O_24  and  C_1 
REMARK    3  A    between atoms: C_6  and  O_20 
REMARK    4  A    between atoms: C_7  and  O_21 
REMARK    5  A    between atoms: N_11  and  C_8 
REMARK    6  A    between atoms: C_10  and  N_19 
REMARK    7  A    between atoms: S_26  and  N_12 
REMARK    8  A    between atoms: S_26  and  O_24 
ROOT
HETATM    1  C   UNK N   1      -0.112  -1.938   0.483  0.00  0.00     0.180 C 
HETATM    2  C   UNK N   1       1.190  -2.418  -0.163  0.00  0.00     0.182 C 
HETATM    3  C   UNK N   1       2.055  -1.157  -0.145  0.00  0.00     0.198 C 
HETATM    4  C   UNK N   1       1.116  -0.130   0.489  0.00  0.00     0.262 C 
HETATM    5  O   UNK N   1      -0.201  -0.559   0.181  0.00  0.00    -0.353 OA
ENDROOT
BRANCH   4   6
HETATM    6  N   UNK N   1       1.387   1.255   0.084  0.00  0.00    -0.297 N 
HETATM    7  C   UNK N   1       0.494   2.181  -0.354  0.00  0.00     0.188 A 
HETATM    8  N   UNK N   1       1.096   3.387  -0.573  0.00  0.00    -0.346 N 
HETATM    9  C   UNK N   1       2.389   3.175  -0.267  0.00  0.00     0.122 A 
ATOM     10  HN  UNK N   1       0.663   4.252  -0.895  1.00  0.00     0.167 HD
HETATM   11  C   UNK N   1       3.470   4.044  -0.298  0.00  0.00     0.131 A 
HETATM   12  C   UNK N   1       2.563   1.899   0.125  0.00  0.00     0.142 A 
HETATM   13  N   UNK N   1       4.697   3.554   0.054  0.00  0.00    -0.337 N 
HETATM   14  C   UNK N   1       4.851   2.243   0.436  0.00  0.00     0.183 A 
ATOM     15  HN  UNK N   1       5.509   4.170   0.032  1.00  0.00     0.168 HD
HETATM   16  N   UNK N   1       3.771   1.403   0.483  0.00  0.00    -0.336 N 
ATOM     17  HN  UNK N   1       3.874   0.432   0.779  1.00  0.00     0.168 HD
BRANCH  11  18
HETATM   18  N   UNK N   1       3.317   5.394  -0.675  0.00  0.00    -0.383 N 
HETATM   19  H   UNK N   1       4.080   5.957  -0.938  0.00  0.00     0.157 HD
HETATM   20  H   UNK N   1       2.415   5.787  -0.675  0.00  0.00     0.157 HD
ENDBRANCH  11  18
ENDBRANCH   4   6
BRANCH   3  21
HETATM   21  O   UNK N   1       2.393  -0.774  -1.450  0.00  0.00    -0.388 OA
HETATM   22  H   UNK N   1       2.740  -0.843  -2.353  0.00  0.00     0.210 HD
ENDBRANCH   3  21
BRANCH   2  23
HETATM   23  O   UNK N   1       0.950  -2.806  -1.490  0.00  0.00    -0.390 OA
HETATM   24  H   UNK N   1       0.634  -2.796  -2.407  0.00  0.00     0.210 HD
ENDBRANCH   2  23
BRANCH   1  25
HETATM   25  C   UNK N   1      -1.300  -2.801   0.045  0.00  0.00     0.226 C 
BRANCH  25  26
HETATM   26  O   UNK N   1      -2.373  -2.067  -0.484  0.00  0.00    -0.257 OA
BRANCH  26  27
HETATM   27  S   UNK N   1      -3.746  -2.486   0.479  0.00  0.00     0.355 S 
HETATM   28  O   UNK N   1      -3.988  -1.088  -0.112  0.00  0.00    -0.176 OA
HETATM   29  O   UNK N   1      -3.777  -3.451  -0.721  0.00  0.00    -0.176 OA
BRANCH  27  30
HETATM   30  N   UNK N   1      -5.378  -2.470  -0.191  0.00  0.00    -0.306 N 
HETATM   31  H   UNK N   1      -5.842  -1.648  -0.578  0.00  0.00     0.171 HD
HETATM   32  H   UNK N   1      -5.897  -3.348  -0.191  0.00  0.00     0.171 HD
ENDBRANCH  27  30
ENDBRANCH  26  27
ENDBRANCH  25  26
ENDBRANCH   1  25
TORSDOF 8
