MODEL 1
REMARK VINA RESULT:      -6.7      0.000      0.000
REMARK  31 active torsions:
REMARK  status: ('A' for Active; 'I' for Inactive)
REMARK    1  A    between atoms: S_1  and  C_2 
REMARK    2  A    between atoms: S_1  and  C_52 
REMARK    3  A    between atoms: C_2  and  C_3 
REMARK    4  A    between atoms: C_3  and  N_4 
REMARK       I    between atoms: N_4  and  C_5 
REMARK    5  A    between atoms: C_5  and  C_6 
REMARK    6  A    between atoms: C_6  and  C_7 
REMARK    7  A    between atoms: C_7  and  N_8 
REMARK       I    between atoms: N_8  and  C_9 
REMARK    8  A    between atoms: C_9  and  C_10 
REMARK    9  A    between atoms: C_10  and  C_11 
REMARK   10  A    between atoms: C_10  and  O_16 
REMARK   11  A    between atoms: C_11  and  C_12 
REMARK   12  A    between atoms: C_12  and  O_13 
REMARK   13  A    between atoms: O_13  and  P_19 
REMARK   14  A    between atoms: P_19  and  O_21 
REMARK   15  A    between atoms: P_19  and  O_51 
REMARK   16  A    between atoms: C_22  and  O_28 
REMARK   17  A    between atoms: C_23  and  O_29 
REMARK   18  A    between atoms: C_24  and  C_27 
REMARK   19  A    between atoms: C_26  and  N_36 
REMARK   20  A    between atoms: C_27  and  O_47 
REMARK   21  A    between atoms: O_29  and  P_30 
REMARK   22  A    between atoms: P_30  and  O_31 
REMARK   23  A    between atoms: P_30  and  O_32 
REMARK   24  A    between atoms: C_40  and  N_46 
REMARK   25  A    between atoms: O_47  and  P_48 
REMARK   26  A    between atoms: P_48  and  O_49 
REMARK   27  A    between atoms: P_48  and  O_51 
REMARK   28  A    between atoms: C_52  and  C_53 
REMARK   29  A    between atoms: C_53  and  C_54 
REMARK   30  A    between atoms: C_54  and  C_55 
REMARK   31  A    between atoms: C_55  and  C_56 
ROOT
HETATM    1  P   UNK N   1      25.422  15.026   6.464  0.00  0.00     0.401 P 
HETATM    2  O   UNK N   1      26.135  13.706   6.066  0.00  0.00    -0.631 OA
ENDROOT
BRANCH   1   3
HETATM    3  O   UNK N   1      23.802  14.583   6.999  0.00  0.00    -0.294 OA
BRANCH   3   4
HETATM    4  C   UNK N   1      23.537  13.274   6.569  0.00  0.00     0.215 C 
BRANCH   4   5
HETATM    5  C   UNK N   1      22.274  13.227   5.699  0.00  0.00     0.180 C 
HETATM    6  C   UNK N   1      21.107  13.675   6.514  0.00  0.00     0.197 C 
HETATM    7  C   UNK N   1      20.042  13.945   5.501  0.00  0.00     0.199 C 
HETATM    8  C   UNK N   1      20.903  14.263   4.268  0.00  0.00     0.262 C 
HETATM    9  O   UNK N   1      22.284  14.121   4.603  0.00  0.00    -0.353 OA
BRANCH   6  10
HETATM   10  O   UNK N   1      20.755  12.866   7.614  0.00  0.00    -0.286 OA
BRANCH  10  11
HETATM   11  P   UNK N   1      20.695  13.815   9.086  0.00  0.00     0.391 P 
HETATM   12  O   UNK N   1      20.186  12.855  10.192  0.00  0.00    -0.632 OA
BRANCH  11  13
HETATM   13  O   UNK N   1      22.265  14.347   9.586  0.00  0.00    -0.307 OA
HETATM   14  H   UNK N   1      22.652  14.626  10.431  0.00  0.00     0.222 HD
ENDBRANCH  11  13
BRANCH  11  15
HETATM   15  O   UNK N   1      19.546  15.116   9.005  0.00  0.00    -0.307 OA
HETATM   16  H   UNK N   1      19.349  15.562   8.166  0.00  0.00     0.222 HD
ENDBRANCH  11  15
ENDBRANCH  10  11
ENDBRANCH   6  10
BRANCH   7  17
HETATM   17  O   UNK N   1      19.288  15.008   5.970  0.00  0.00    -0.388 OA
HETATM   18  H   UNK N   1      18.963  15.737   5.418  0.00  0.00     0.210 HD
ENDBRANCH   7  17
BRANCH   8  19
HETATM   19  N   UNK N   1      20.598  15.479   3.473  0.00  0.00    -0.297 N 
HETATM   20  C   UNK N   1      20.767  16.799   3.740  0.00  0.00     0.142 A 
HETATM   21  C   UNK N   1      20.276  17.528   2.715  0.00  0.00     0.122 A 
HETATM   22  N   UNK N   1      21.314  17.384   4.833  0.00  0.00    -0.336 N 
HETATM   23  N   UNK N   1      19.767  16.716   1.777  0.00  0.00    -0.346 N 
HETATM   24  C   UNK N   1      20.342  18.917   2.748  0.00  0.00     0.131 A 
HETATM   25  C   UNK N   1      19.968  15.458   2.268  0.00  0.00     0.188 A 
ATOM     26  HN  UNK N   1      19.327  16.978   0.895  1.00  0.00     0.167 HD
HETATM   27  N   UNK N   1      20.917  19.508   3.835  0.00  0.00    -0.337 N 
HETATM   28  C   UNK N   1      21.399  18.751   4.873  0.00  0.00     0.183 A 
ATOM     29  HN  UNK N   1      20.988  20.525   3.878  1.00  0.00     0.168 HD
ATOM     30  HN  UNK N   1      21.655  16.819   5.609  1.00  0.00     0.168 HD
BRANCH  24  31
HETATM   31  N   UNK N   1      19.831  19.700   1.693  0.00  0.00    -0.383 N 
HETATM   32  H   UNK N   1      19.670  20.670   1.745  0.00  0.00     0.157 HD
HETATM   33  H   UNK N   1      19.621  19.246   0.845  0.00  0.00     0.157 HD
ENDBRANCH  24  31
ENDBRANCH   8  19
ENDBRANCH   4   5
ENDBRANCH   3   4
ENDBRANCH   1   3
BRANCH   1  34
HETATM   34  O   UNK N   1      26.267  15.657   7.847  0.00  0.00    -0.307 OA
HETATM   35  H   UNK N   1      27.089  15.474   8.327  0.00  0.00     0.222 HD
ENDBRANCH   1  34
BRANCH   1  36
HETATM   36  O   UNK N   1      25.391  16.153   5.103  0.00  0.00    -0.195 OA
BRANCH  36  37
HETATM   37  P   UNK N   1      25.956  15.472   3.571  0.00  0.00     0.401 P 
HETATM   38  O   UNK N   1      25.667  16.410   2.365  0.00  0.00    -0.631 OA
BRANCH  37  39
HETATM   39  O   UNK N   1      27.671  15.080   3.503  0.00  0.00    -0.296 OA
BRANCH  39  40
HETATM   40  C   UNK N   1      28.445  16.256   3.447  0.00  0.00     0.192 C 
BRANCH  40  41
HETATM   41  C   UNK N   1      29.709  16.125   4.337  0.00  0.00     0.009 C 
HETATM   42  C   UNK N   1      30.228  17.509   4.697  0.00  0.00     0.020 C 
HETATM   43  C   UNK N   1      29.352  15.439   5.649  0.00  0.00     0.020 C 
BRANCH  41  44
HETATM   44  C   UNK N   1      30.826  15.276   3.674  0.00  0.00     0.219 C 
BRANCH  44  45
HETATM   45  C   UNK N   1      32.069  16.047   3.232  0.00  0.00     0.247 C 
HETATM   46  N   UNK N   1      33.263  15.993   3.878  0.00  0.00    -0.358 N 
HETATM   47  H   UNK N   1      34.027  16.443   3.451  0.00  0.00     0.162 HD
HETATM   48  O   UNK N   1      31.976  16.784   2.265  0.00  0.00    -0.271 OA
BRANCH  46  49
HETATM   49  C   UNK N   1      33.509  15.330   5.140  0.00  0.00     0.132 C 
BRANCH  49  50
HETATM   50  C   UNK N   1      34.570  16.090   5.940  0.00  0.00     0.122 C 
BRANCH  50  51
HETATM   51  C   UNK N   1      33.957  17.161   6.787  0.00  0.00     0.219 C 
HETATM   52  N   UNK N   1      32.675  17.024   7.199  0.00  0.00    -0.360 N 
HETATM   53  H   UNK N   1      32.139  16.270   6.861  0.00  0.00     0.162 HD
HETATM   54  O   UNK N   1      34.632  18.114   7.152  0.00  0.00    -0.274 OA
BRANCH  52  55
HETATM   55  C   UNK N   1      32.075  17.955   8.121  0.00  0.00     0.133 C 
BRANCH  55  56
HETATM   56  C   UNK N   1      30.811  17.376   8.721  0.00  0.00     0.102 C 
BRANCH  56  57
HETATM   57  S   UNK N   1      29.897  18.666   9.620  0.00  0.00    -0.091 SA
BRANCH  57  58
HETATM   58  C   UNK N   1      28.358  18.264   8.794  0.00  0.00     0.186 C 
HETATM   59  O   UNK N   1      27.526  17.572   9.359  0.00  0.00    -0.286 OA
BRANCH  58  60
HETATM   60  C   UNK N   1      28.103  18.740   7.402  0.00  0.00     0.091 C 
BRANCH  60  61
HETATM   61  C   UNK N   1      27.549  20.158   7.407  0.00  0.00     0.008 C 
BRANCH  61  62
HETATM   62  C   UNK N   1      26.884  20.495   6.080  0.00  0.00     0.000 C 
BRANCH  62  63
HETATM   63  C   UNK N   1      27.794  20.146   4.914  0.00  0.00    -0.005 C 
HETATM   64  C   UNK N   1      26.973  19.608   3.759  0.00  0.00     0.005 C 
ENDBRANCH  62  63
ENDBRANCH  61  62
ENDBRANCH  60  61
ENDBRANCH  58  60
ENDBRANCH  57  58
ENDBRANCH  56  57
ENDBRANCH  55  56
ENDBRANCH  52  55
ENDBRANCH  50  51
ENDBRANCH  49  50
ENDBRANCH  46  49
ENDBRANCH  44  45
BRANCH  44  65
HETATM   65  O   UNK N   1      30.276  14.488   2.656  0.00  0.00    -0.385 OA
HETATM   66  H   UNK N   1      29.670  14.078   2.020  0.00  0.00     0.210 HD
ENDBRANCH  44  65
ENDBRANCH  41  44
ENDBRANCH  40  41
ENDBRANCH  39  40
ENDBRANCH  37  39
BRANCH  37  67
HETATM   67  O   UNK N   1      25.103  14.007   3.225  0.00  0.00    -0.307 OA
HETATM   68  H   UNK N   1      24.281  13.550   2.988  0.00  0.00     0.222 HD
ENDBRANCH  37  67
ENDBRANCH  36  37
ENDBRANCH   1  36
TORSDOF 31
ENDMDL
MODEL 2
REMARK VINA RESULT:      -6.6      3.595      9.410
REMARK  31 active torsions:
REMARK  status: ('A' for Active; 'I' for Inactive)
REMARK    1  A    between atoms: S_1  and  C_2 
REMARK    2  A    between atoms: S_1  and  C_52 
REMARK    3  A    between atoms: C_2  and  C_3 
REMARK    4  A    between atoms: C_3  and  N_4 
REMARK       I    between atoms: N_4  and  C_5 
REMARK    5  A    between atoms: C_5  and  C_6 
REMARK    6  A    between atoms: C_6  and  C_7 
REMARK    7  A    between atoms: C_7  and  N_8 
REMARK       I    between atoms: N_8  and  C_9 
REMARK    8  A    between atoms: C_9  and  C_10 
REMARK    9  A    between atoms: C_10  and  C_11 
REMARK   10  A    between atoms: C_10  and  O_16 
REMARK   11  A    between atoms: C_11  and  C_12 
REMARK   12  A    between atoms: C_12  and  O_13 
REMARK   13  A    between atoms: O_13  and  P_19 
REMARK   14  A    between atoms: P_19  and  O_21 
REMARK   15  A    between atoms: P_19  and  O_51 
REMARK   16  A    between atoms: C_22  and  O_28 
REMARK   17  A    between atoms: C_23  and  O_29 
REMARK   18  A    between atoms: C_24  and  C_27 
REMARK   19  A    between atoms: C_26  and  N_36 
REMARK   20  A    between atoms: C_27  and  O_47 
REMARK   21  A    between atoms: O_29  and  P_30 
REMARK   22  A    between atoms: P_30  and  O_31 
REMARK   23  A    between atoms: P_30  and  O_32 
REMARK   24  A    between atoms: C_40  and  N_46 
REMARK   25  A    between atoms: O_47  and  P_48 
REMARK   26  A    between atoms: P_48  and  O_49 
REMARK   27  A    between atoms: P_48  and  O_51 
REMARK   28  A    between atoms: C_52  and  C_53 
REMARK   29  A    between atoms: C_53  and  C_54 
REMARK   30  A    between atoms: C_54  and  C_55 
REMARK   31  A    between atoms: C_55  and  C_56 
ROOT
HETATM    1  P   UNK N   1      31.453  16.110   3.328  0.00  0.00     0.401 P 
HETATM    2  O   UNK N   1      32.247  16.907   2.259  0.00  0.00    -0.631 OA
ENDROOT
BRANCH   1   3
HETATM    3  O   UNK N   1      32.249  16.406   4.873  0.00  0.00    -0.294 OA
BRANCH   3   4
HETATM    4  C   UNK N   1      32.112  15.258   5.668  0.00  0.00     0.215 C 
BRANCH   4   5
HETATM    5  C   UNK N   1      31.201  15.529   6.872  0.00  0.00     0.180 C 
HETATM    6  C   UNK N   1      31.928  16.394   7.846  0.00  0.00     0.197 C 
HETATM    7  C   UNK N   1      30.855  16.890   8.761  0.00  0.00     0.199 C 
HETATM    8  C   UNK N   1      29.634  16.805   7.830  0.00  0.00     0.262 C 
HETATM    9  O   UNK N   1      30.034  16.269   6.568  0.00  0.00    -0.353 OA
BRANCH   6  10
HETATM   10  O   UNK N   1      33.079  15.843   8.447  0.00  0.00    -0.286 OA
BRANCH  10  11
HETATM   11  P   UNK N   1      34.495  16.803   8.071  0.00  0.00     0.391 P 
HETATM   12  O   UNK N   1      35.616  15.791   7.721  0.00  0.00    -0.632 OA
BRANCH  11  13
HETATM   13  O   UNK N   1      34.265  17.783   6.661  0.00  0.00    -0.307 OA
HETATM   14  H   UNK N   1      33.721  18.558   6.453  0.00  0.00     0.222 HD
ENDBRANCH  11  13
BRANCH  11  15
HETATM   15  O   UNK N   1      35.072  17.718   9.431  0.00  0.00    -0.307 OA
HETATM   16  H   UNK N   1      36.009  17.706   9.684  0.00  0.00     0.222 HD
ENDBRANCH  11  15
ENDBRANCH  10  11
ENDBRANCH   6  10
BRANCH   7  17
HETATM   17  O   UNK N   1      31.202  18.174   9.145  0.00  0.00    -0.388 OA
HETATM   18  H   UNK N   1      30.566  18.883   9.331  0.00  0.00     0.210 HD
ENDBRANCH   7  17
BRANCH   8  19
HETATM   19  N   UNK N   1      28.728  17.976   7.727  0.00  0.00    -0.297 N 
HETATM   20  C   UNK N   1      28.380  18.760   6.675  0.00  0.00     0.142 A 
HETATM   21  C   UNK N   1      27.561  19.744   7.103  0.00  0.00     0.122 A 
HETATM   22  N   UNK N   1      28.753  18.659   5.377  0.00  0.00    -0.336 N 
HETATM   23  N   UNK N   1      27.371  19.640   8.427  0.00  0.00    -0.346 N 
HETATM   24  C   UNK N   1      27.056  20.677   6.204  0.00  0.00     0.131 A 
HETATM   25  C   UNK N   1      28.106  18.549   8.793  0.00  0.00     0.188 A 
ATOM     26  HN  UNK N   1      26.806  20.241   9.026  1.00  0.00     0.167 HD
HETATM   27  N   UNK N   1      27.409  20.561   4.891  0.00  0.00    -0.337 N 
HETATM   28  C   UNK N   1      28.253  19.562   4.476  0.00  0.00     0.183 A 
ATOM     29  HN  UNK N   1      27.043  21.227   4.210  1.00  0.00     0.168 HD
ATOM     30  HN  UNK N   1      29.394  17.925   5.076  1.00  0.00     0.168 HD
BRANCH  24  31
HETATM   31  N   UNK N   1      26.204  21.718   6.628  0.00  0.00    -0.383 N 
HETATM   32  H   UNK N   1      25.366  21.585   7.128  0.00  0.00     0.157 HD
HETATM   33  H   UNK N   1      26.466  22.641   6.409  0.00  0.00     0.157 HD
ENDBRANCH  24  31
ENDBRANCH   8  19
ENDBRANCH   4   5
ENDBRANCH   3   4
ENDBRANCH   1   3
BRANCH   1  34
HETATM   34  O   UNK N   1      29.871  16.825   3.419  0.00  0.00    -0.307 OA
HETATM   35  H   UNK N   1      29.035  16.655   3.881  0.00  0.00     0.222 HD
ENDBRANCH   1  34
BRANCH   1  36
HETATM   36  O   UNK N   1      31.409  14.390   2.920  0.00  0.00    -0.195 OA
BRANCH  36  37
HETATM   37  P   UNK N   1      29.816  13.638   3.076  0.00  0.00     0.401 P 
HETATM   38  O   UNK N   1      29.472  13.284   4.550  0.00  0.00    -0.631 OA
BRANCH  37  39
HETATM   39  O   UNK N   1      28.466  14.585   2.459  0.00  0.00    -0.296 OA
BRANCH  39  40
HETATM   40  C   UNK N   1      27.348  13.760   2.227  0.00  0.00     0.192 C 
BRANCH  40  41
HETATM   41  C   UNK N   1      26.045  14.456   2.698  0.00  0.00     0.009 C 
HETATM   42  C   UNK N   1      25.982  15.865   2.127  0.00  0.00     0.020 C 
HETATM   43  C   UNK N   1      24.832  13.712   2.153  0.00  0.00     0.020 C 
BRANCH  41  44
HETATM   44  C   UNK N   1      25.901  14.484   4.242  0.00  0.00     0.219 C 
BRANCH  44  45
HETATM   45  C   UNK N   1      26.283  15.799   4.919  0.00  0.00     0.247 C 
HETATM   46  N   UNK N   1      25.380  16.693   5.401  0.00  0.00    -0.358 N 
HETATM   47  H   UNK N   1      25.732  17.456   5.913  0.00  0.00     0.162 HD
HETATM   48  O   UNK N   1      27.467  16.083   4.999  0.00  0.00    -0.271 OA
BRANCH  46  49
HETATM   49  C   UNK N   1      23.946  16.619   5.228  0.00  0.00     0.132 C 
BRANCH  49  50
HETATM   50  C   UNK N   1      23.359  18.023   5.063  0.00  0.00     0.122 C 
BRANCH  50  51
HETATM   51  C   UNK N   1      21.883  17.975   4.816  0.00  0.00     0.219 C 
HETATM   52  N   UNK N   1      21.271  16.773   4.703  0.00  0.00    -0.360 N 
HETATM   53  H   UNK N   1      21.817  15.953   4.694  0.00  0.00     0.162 HD
HETATM   54  O   UNK N   1      21.235  19.012   4.782  0.00  0.00    -0.274 OA
BRANCH  52  55
HETATM   55  C   UNK N   1      19.838  16.663   4.597  0.00  0.00     0.133 C 
BRANCH  55  56
HETATM   56  C   UNK N   1      19.276  15.847   5.743  0.00  0.00     0.102 C 
BRANCH  56  57
HETATM   57  S   UNK N   1      20.479  14.585   6.260  0.00  0.00    -0.091 SA
BRANCH  57  58
HETATM   58  C   UNK N   1      20.709  15.347   7.866  0.00  0.00     0.186 C 
HETATM   59  O   UNK N   1      21.120  16.494   7.944  0.00  0.00    -0.286 OA
BRANCH  58  60
HETATM   60  C   UNK N   1      20.435  14.573   9.114  0.00  0.00     0.091 C 
BRANCH  60  61
HETATM   61  C   UNK N   1      21.710  13.936   9.647  0.00  0.00     0.008 C 
BRANCH  61  62
HETATM   62  C   UNK N   1      21.400  12.721  10.510  0.00  0.00     0.000 C 
BRANCH  62  63
HETATM   63  C   UNK N   1      22.570  11.751  10.520  0.00  0.00    -0.005 C 
HETATM   64  C   UNK N   1      23.164  11.639   9.131  0.00  0.00     0.005 C 
ENDBRANCH  62  63
ENDBRANCH  61  62
ENDBRANCH  60  61
ENDBRANCH  58  60
ENDBRANCH  57  58
ENDBRANCH  56  57
ENDBRANCH  55  56
ENDBRANCH  52  55
ENDBRANCH  50  51
ENDBRANCH  49  50
ENDBRANCH  46  49
ENDBRANCH  44  45
BRANCH  44  65
HETATM   65  O   UNK N   1      26.548  13.372   4.794  0.00  0.00    -0.385 OA
HETATM   66  H   UNK N   1      26.776  12.474   5.082  0.00  0.00     0.210 HD
ENDBRANCH  44  65
ENDBRANCH  41  44
ENDBRANCH  40  41
ENDBRANCH  39  40
ENDBRANCH  37  39
BRANCH  37  67
HETATM   67  O   UNK N   1      29.788  12.131   2.226  0.00  0.00    -0.307 OA
HETATM   68  H   UNK N   1      29.290  11.429   1.778  0.00  0.00     0.222 HD
ENDBRANCH  37  67
ENDBRANCH  36  37
ENDBRANCH   1  36
TORSDOF 31
ENDMDL
MODEL 3
REMARK VINA RESULT:      -6.4      2.435      4.051
REMARK  31 active torsions:
REMARK  status: ('A' for Active; 'I' for Inactive)
REMARK    1  A    between atoms: S_1  and  C_2 
REMARK    2  A    between atoms: S_1  and  C_52 
REMARK    3  A    between atoms: C_2  and  C_3 
REMARK    4  A    between atoms: C_3  and  N_4 
REMARK       I    between atoms: N_4  and  C_5 
REMARK    5  A    between atoms: C_5  and  C_6 
REMARK    6  A    between atoms: C_6  and  C_7 
REMARK    7  A    between atoms: C_7  and  N_8 
REMARK       I    between atoms: N_8  and  C_9 
REMARK    8  A    between atoms: C_9  and  C_10 
REMARK    9  A    between atoms: C_10  and  C_11 
REMARK   10  A    between atoms: C_10  and  O_16 
REMARK   11  A    between atoms: C_11  and  C_12 
REMARK   12  A    between atoms: C_12  and  O_13 
REMARK   13  A    between atoms: O_13  and  P_19 
REMARK   14  A    between atoms: P_19  and  O_21 
REMARK   15  A    between atoms: P_19  and  O_51 
REMARK   16  A    between atoms: C_22  and  O_28 
REMARK   17  A    between atoms: C_23  and  O_29 
REMARK   18  A    between atoms: C_24  and  C_27 
REMARK   19  A    between atoms: C_26  and  N_36 
REMARK   20  A    between atoms: C_27  and  O_47 
REMARK   21  A    between atoms: O_29  and  P_30 
REMARK   22  A    between atoms: P_30  and  O_31 
REMARK   23  A    between atoms: P_30  and  O_32 
REMARK   24  A    between atoms: C_40  and  N_46 
REMARK   25  A    between atoms: O_47  and  P_48 
REMARK   26  A    between atoms: P_48  and  O_49 
REMARK   27  A    between atoms: P_48  and  O_51 
REMARK   28  A    between atoms: C_52  and  C_53 
REMARK   29  A    between atoms: C_53  and  C_54 
REMARK   30  A    between atoms: C_54  and  C_55 
REMARK   31  A    between atoms: C_55  and  C_56 
ROOT
HETATM    1  P   UNK N   1      22.820  13.034   7.299  0.00  0.00     0.401 P 
HETATM    2  O   UNK N   1      22.882  11.550   7.749  0.00  0.00    -0.631 OA
ENDROOT
BRANCH   1   3
HETATM    3  O   UNK N   1      21.744  13.094   5.904  0.00  0.00    -0.294 OA
BRANCH   3   4
HETATM    4  C   UNK N   1      20.693  13.977   6.195  0.00  0.00     0.215 C 
BRANCH   4   5
HETATM    5  C   UNK N   1      20.874  15.309   5.455  0.00  0.00     0.180 C 
HETATM    6  C   UNK N   1      20.611  16.430   6.405  0.00  0.00     0.197 C 
HETATM    7  C   UNK N   1      21.168  17.630   5.709  0.00  0.00     0.199 C 
HETATM    8  C   UNK N   1      22.231  16.968   4.818  0.00  0.00     0.262 C 
HETATM    9  O   UNK N   1      22.191  15.553   5.001  0.00  0.00    -0.353 OA
BRANCH   6  10
HETATM   10  O   UNK N   1      19.300  16.535   6.915  0.00  0.00    -0.286 OA
BRANCH  10  11
HETATM   11  P   UNK N   1      19.325  16.684   8.660  0.00  0.00     0.391 P 
HETATM   12  O   UNK N   1      20.814  16.566   9.077  0.00  0.00    -0.632 OA
BRANCH  11  13
HETATM   13  O   UNK N   1      18.792  18.245   9.191  0.00  0.00    -0.307 OA
HETATM   14  H   UNK N   1      18.788  18.709  10.043  0.00  0.00     0.222 HD
ENDBRANCH  11  13
BRANCH  11  15
HETATM   15  O   UNK N   1      18.490  15.388   9.461  0.00  0.00    -0.307 OA
HETATM   16  H   UNK N   1      17.994  14.723   8.959  0.00  0.00     0.222 HD
ENDBRANCH  11  15
ENDBRANCH  10  11
ENDBRANCH   6  10
BRANCH   7  17
HETATM   17  O   UNK N   1      21.673  18.473   6.685  0.00  0.00    -0.388 OA
HETATM   18  H   UNK N   1      21.686  18.271   7.634  0.00  0.00     0.210 HD
ENDBRANCH   7  17
BRANCH   8  19
HETATM   19  N   UNK N   1      23.603  17.534   4.795  0.00  0.00    -0.297 N 
HETATM   20  C   UNK N   1      24.126  18.611   4.156  0.00  0.00     0.142 A 
HETATM   21  C   UNK N   1      25.450  18.680   4.409  0.00  0.00     0.122 A 
HETATM   22  N   UNK N   1      23.504  19.516   3.362  0.00  0.00    -0.336 N 
HETATM   23  N   UNK N   1      25.822  17.657   5.192  0.00  0.00    -0.346 N 
HETATM   24  C   UNK N   1      26.214  19.710   3.870  0.00  0.00     0.131 A 
HETATM   25  C   UNK N   1      24.670  16.958   5.411  0.00  0.00     0.188 A 
ATOM     26  HN  UNK N   1      26.756  17.447   5.544  1.00  0.00     0.167 HD
HETATM   27  N   UNK N   1      25.585  20.638   3.092  0.00  0.00    -0.337 N 
HETATM   28  C   UNK N   1      24.240  20.545   2.836  0.00  0.00     0.183 A 
ATOM     29  HN  UNK N   1      26.121  21.410   2.695  1.00  0.00     0.168 HD
ATOM     30  HN  UNK N   1      22.509  19.433   3.161  1.00  0.00     0.168 HD
BRANCH  24  31
HETATM   31  N   UNK N   1      27.600  19.801   4.114  0.00  0.00    -0.383 N 
HETATM   32  H   UNK N   1      28.106  20.644   4.152  0.00  0.00     0.157 HD
HETATM   33  H   UNK N   1      28.095  18.962   4.257  0.00  0.00     0.157 HD
ENDBRANCH  24  31
ENDBRANCH   8  19
ENDBRANCH   4   5
ENDBRANCH   3   4
ENDBRANCH   1   3
BRANCH   1  34
HETATM   34  O   UNK N   1      22.050  13.919   8.582  0.00  0.00    -0.307 OA
HETATM   35  H   UNK N   1      21.639  13.723   9.438  0.00  0.00     0.222 HD
ENDBRANCH   1  34
BRANCH   1  36
HETATM   36  O   UNK N   1      24.438  13.639   6.920  0.00  0.00    -0.195 OA
BRANCH  36  37
HETATM   37  P   UNK N   1      25.199  12.875   5.518  0.00  0.00     0.401 P 
HETATM   38  O   UNK N   1      24.713  13.488   4.174  0.00  0.00    -0.631 OA
BRANCH  37  39
HETATM   39  O   UNK N   1      26.958  12.928   5.487  0.00  0.00    -0.296 OA
BRANCH  39  40
HETATM   40  C   UNK N   1      27.411  14.259   5.387  0.00  0.00     0.192 C 
BRANCH  40  41
HETATM   41  C   UNK N   1      28.600  14.361   4.396  0.00  0.00     0.009 C 
HETATM   42  C   UNK N   1      29.907  14.130   5.139  0.00  0.00     0.020 C 
HETATM   43  C   UNK N   1      28.497  13.263   3.346  0.00  0.00     0.020 C 
BRANCH  41  44
HETATM   44  C   UNK N   1      28.634  15.712   3.634  0.00  0.00     0.219 C 
BRANCH  44  45
HETATM   45  C   UNK N   1      29.443  16.826   4.297  0.00  0.00     0.247 C 
HETATM   46  N   UNK N   1      30.680  17.209   3.890  0.00  0.00    -0.358 N 
HETATM   47  H   UNK N   1      31.069  18.006   4.318  0.00  0.00     0.162 HD
HETATM   48  O   UNK N   1      28.966  17.380   5.275  0.00  0.00    -0.271 OA
BRANCH  46  49
HETATM   49  C   UNK N   1      31.477  16.548   2.881  0.00  0.00     0.132 C 
BRANCH  49  50
HETATM   50  C   UNK N   1      32.949  16.947   3.020  0.00  0.00     0.122 C 
BRANCH  50  51
HETATM   51  C   UNK N   1      33.394  16.911   4.449  0.00  0.00     0.219 C 
HETATM   52  N   UNK N   1      33.767  15.729   4.995  0.00  0.00    -0.360 N 
HETATM   53  H   UNK N   1      33.653  14.901   4.474  0.00  0.00     0.162 HD
HETATM   54  O   UNK N   1      33.479  17.949   5.090  0.00  0.00    -0.274 OA
BRANCH  52  55
HETATM   55  C   UNK N   1      34.328  15.654   6.320  0.00  0.00     0.133 C 
BRANCH  55  56
HETATM   56  C   UNK N   1      33.313  15.104   7.301  0.00  0.00     0.102 C 
BRANCH  56  57
HETATM   57  S   UNK N   1      33.633  15.763   8.966  0.00  0.00    -0.091 SA
BRANCH  57  58
HETATM   58  C   UNK N   1      33.101  17.411   8.503  0.00  0.00     0.186 C 
HETATM   59  O   UNK N   1      33.880  18.347   8.580  0.00  0.00    -0.286 OA
BRANCH  58  60
HETATM   60  C   UNK N   1      31.695  17.653   8.059  0.00  0.00     0.091 C 
BRANCH  60  61
HETATM   61  C   UNK N   1      30.718  17.416   9.201  0.00  0.00     0.008 C 
BRANCH  61  62
HETATM   62  C   UNK N   1      29.835  18.634   9.433  0.00  0.00     0.000 C 
BRANCH  62  63
HETATM   63  C   UNK N   1      28.579  18.564   8.580  0.00  0.00    -0.005 C 
HETATM   64  C   UNK N   1      27.745  17.365   8.983  0.00  0.00     0.005 C 
ENDBRANCH  62  63
ENDBRANCH  61  62
ENDBRANCH  60  61
ENDBRANCH  58  60
ENDBRANCH  57  58
ENDBRANCH  56  57
ENDBRANCH  55  56
ENDBRANCH  52  55
ENDBRANCH  50  51
ENDBRANCH  49  50
ENDBRANCH  46  49
ENDBRANCH  44  45
BRANCH  44  65
HETATM   65  O   UNK N   1      27.330  16.099   3.305  0.00  0.00    -0.385 OA
HETATM   66  H   UNK N   1      26.368  16.124   3.184  0.00  0.00     0.210 HD
ENDBRANCH  44  65
ENDBRANCH  41  44
ENDBRANCH  40  41
ENDBRANCH  39  40
ENDBRANCH  37  39
BRANCH  37  67
HETATM   67  O   UNK N   1      24.757  11.204   5.443  0.00  0.00    -0.307 OA
HETATM   68  H   UNK N   1      25.002  10.276   5.301  0.00  0.00     0.222 HD
ENDBRANCH  37  67
ENDBRANCH  36  37
ENDBRANCH   1  36
TORSDOF 31
ENDMDL
MODEL 4
REMARK VINA RESULT:      -6.3      5.546     12.856
REMARK  31 active torsions:
REMARK  status: ('A' for Active; 'I' for Inactive)
REMARK    1  A    between atoms: S_1  and  C_2 
REMARK    2  A    between atoms: S_1  and  C_52 
REMARK    3  A    between atoms: C_2  and  C_3 
REMARK    4  A    between atoms: C_3  and  N_4 
REMARK       I    between atoms: N_4  and  C_5 
REMARK    5  A    between atoms: C_5  and  C_6 
REMARK    6  A    between atoms: C_6  and  C_7 
REMARK    7  A    between atoms: C_7  and  N_8 
REMARK       I    between atoms: N_8  and  C_9 
REMARK    8  A    between atoms: C_9  and  C_10 
REMARK    9  A    between atoms: C_10  and  C_11 
REMARK   10  A    between atoms: C_10  and  O_16 
REMARK   11  A    between atoms: C_11  and  C_12 
REMARK   12  A    between atoms: C_12  and  O_13 
REMARK   13  A    between atoms: O_13  and  P_19 
REMARK   14  A    between atoms: P_19  and  O_21 
REMARK   15  A    between atoms: P_19  and  O_51 
REMARK   16  A    between atoms: C_22  and  O_28 
REMARK   17  A    between atoms: C_23  and  O_29 
REMARK   18  A    between atoms: C_24  and  C_27 
REMARK   19  A    between atoms: C_26  and  N_36 
REMARK   20  A    between atoms: C_27  and  O_47 
REMARK   21  A    between atoms: O_29  and  P_30 
REMARK   22  A    between atoms: P_30  and  O_31 
REMARK   23  A    between atoms: P_30  and  O_32 
REMARK   24  A    between atoms: C_40  and  N_46 
REMARK   25  A    between atoms: O_47  and  P_48 
REMARK   26  A    between atoms: P_48  and  O_49 
REMARK   27  A    between atoms: P_48  and  O_51 
REMARK   28  A    between atoms: C_52  and  C_53 
REMARK   29  A    between atoms: C_53  and  C_54 
REMARK   30  A    between atoms: C_54  and  C_55 
REMARK   31  A    between atoms: C_55  and  C_56 
ROOT
HETATM    1  P   UNK N   1      35.073  16.050  10.174  0.00  0.00     0.401 P 
HETATM    2  O   UNK N   1      35.312  17.421  10.861  0.00  0.00    -0.631 OA
ENDROOT
BRANCH   1   3
HETATM    3  O   UNK N   1      36.451  15.032  10.586  0.00  0.00    -0.294 OA
BRANCH   3   4
HETATM    4  C   UNK N   1      36.007  14.013  11.443  0.00  0.00     0.215 C 
BRANCH   4   5
HETATM    5  C   UNK N   1      36.610  12.659  11.046  0.00  0.00     0.180 C 
HETATM    6  C   UNK N   1      35.941  12.176   9.802  0.00  0.00     0.197 C 
HETATM    7  C   UNK N   1      36.835  11.082   9.313  0.00  0.00     0.199 C 
HETATM    8  C   UNK N   1      38.176  11.523   9.923  0.00  0.00     0.262 C 
HETATM    9  O   UNK N   1      37.980  12.708  10.696  0.00  0.00    -0.353 OA
BRANCH   6  10
HETATM   10  O   UNK N   1      34.564  11.886   9.895  0.00  0.00    -0.286 OA
BRANCH  10  11
HETATM   11  P   UNK N   1      33.692  12.582   8.545  0.00  0.00     0.391 P 
HETATM   12  O   UNK N   1      33.075  11.386   7.774  0.00  0.00    -0.632 OA
BRANCH  11  13
HETATM   13  O   UNK N   1      32.364  13.567   9.062  0.00  0.00    -0.307 OA
HETATM   14  H   UNK N   1      31.669  13.474   9.731  0.00  0.00     0.222 HD
ENDBRANCH  11  13
BRANCH  11  15
HETATM   15  O   UNK N   1      34.731  13.402   7.420  0.00  0.00    -0.307 OA
HETATM   16  H   UNK N   1      34.546  13.396   6.467  0.00  0.00     0.222 HD
ENDBRANCH  11  15
ENDBRANCH  10  11
ENDBRANCH   6  10
BRANCH   7  17
HETATM   17  O   UNK N   1      36.793  11.105   7.929  0.00  0.00    -0.388 OA
HETATM   18  H   UNK N   1      37.559  11.275   7.358  0.00  0.00     0.210 HD
ENDBRANCH   7  17
BRANCH   8  19
HETATM   19  N   UNK N   1      39.380  11.561   9.056  0.00  0.00    -0.297 N 
HETATM   20  C   UNK N   1      39.855  12.510   8.211  0.00  0.00     0.142 A 
HETATM   21  C   UNK N   1      40.967  12.048   7.600  0.00  0.00     0.122 A 
HETATM   22  N   UNK N   1      39.359  13.743   7.946  0.00  0.00    -0.336 N 
HETATM   23  N   UNK N   1      41.230  10.798   8.011  0.00  0.00    -0.346 N 
HETATM   24  C   UNK N   1      41.650  12.846   6.688  0.00  0.00     0.131 A 
HETATM   25  C   UNK N   1      40.235  10.515   8.901  0.00  0.00     0.188 A 
ATOM     26  HN  UNK N   1      42.000  10.195   7.722  1.00  0.00     0.167 HD
HETATM   27  N   UNK N   1      41.166  14.097   6.440  0.00  0.00    -0.337 N 
HETATM   28  C   UNK N   1      40.028  14.546   7.061  0.00  0.00     0.183 A 
ATOM     29  HN  UNK N   1      41.656  14.706   5.784  1.00  0.00     0.168 HD
ATOM     30  HN  UNK N   1      38.504  14.066   8.397  1.00  0.00     0.168 HD
BRANCH  24  31
HETATM   31  N   UNK N   1      42.809  12.383   6.032  0.00  0.00    -0.383 N 
HETATM   32  H   UNK N   1      43.404  11.679   6.379  0.00  0.00     0.157 HD
HETATM   33  H   UNK N   1      43.039  12.791   5.166  0.00  0.00     0.157 HD
ENDBRANCH  24  31
ENDBRANCH   8  19
ENDBRANCH   4   5
ENDBRANCH   3   4
ENDBRANCH   1   3
BRANCH   1  34
HETATM   34  O   UNK N   1      33.671  15.347  10.925  0.00  0.00    -0.307 OA
HETATM   35  H   UNK N   1      32.724  15.264  10.734  0.00  0.00     0.222 HD
ENDBRANCH   1  34
BRANCH   1  36
HETATM   36  O   UNK N   1      34.889  16.250   8.427  0.00  0.00    -0.195 OA
BRANCH  36  37
HETATM   37  P   UNK N   1      34.125  17.768   7.937  0.00  0.00     0.401 P 
HETATM   38  O   UNK N   1      34.982  19.009   8.315  0.00  0.00    -0.631 OA
BRANCH  37  39
HETATM   39  O   UNK N   1      33.758  17.914   6.222  0.00  0.00    -0.296 OA
BRANCH  39  40
HETATM   40  C   UNK N   1      34.006  16.696   5.558  0.00  0.00     0.192 C 
BRANCH  40  41
HETATM   41  C   UNK N   1      32.862  16.369   4.564  0.00  0.00     0.009 C 
HETATM   42  C   UNK N   1      31.977  17.594   4.380  0.00  0.00     0.020 C 
HETATM   43  C   UNK N   1      33.441  16.042   3.194  0.00  0.00     0.020 C 
BRANCH  41  44
HETATM   44  C   UNK N   1      32.016  15.144   5.000  0.00  0.00     0.219 C 
BRANCH  44  45
HETATM   45  C   UNK N   1      30.907  15.432   6.011  0.00  0.00     0.247 C 
HETATM   46  N   UNK N   1      29.584  15.440   5.702  0.00  0.00    -0.358 N 
HETATM   47  H   UNK N   1      28.948  15.532   6.447  0.00  0.00     0.162 HD
HETATM   48  O   UNK N   1      31.228  15.708   7.156  0.00  0.00    -0.271 OA
BRANCH  46  49
HETATM   49  C   UNK N   1      29.029  15.326   4.371  0.00  0.00     0.132 C 
BRANCH  49  50
HETATM   50  C   UNK N   1      27.751  16.161   4.256  0.00  0.00     0.122 C 
BRANCH  50  51
HETATM   51  C   UNK N   1      27.919  17.510   4.883  0.00  0.00     0.219 C 
HETATM   52  N   UNK N   1      28.080  18.594   4.087  0.00  0.00    -0.360 N 
HETATM   53  H   UNK N   1      28.176  18.466   3.115  0.00  0.00     0.162 HD
HETATM   54  O   UNK N   1      27.845  17.633   6.097  0.00  0.00    -0.274 OA
BRANCH  52  55
HETATM   55  C   UNK N   1      28.114  19.929   4.628  0.00  0.00     0.133 C 
BRANCH  55  56
HETATM   56  C   UNK N   1      26.726  20.535   4.646  0.00  0.00     0.102 C 
BRANCH  56  57
HETATM   57  S   UNK N   1      25.879  20.204   3.071  0.00  0.00    -0.091 SA
BRANCH  57  58
HETATM   58  C   UNK N   1      24.419  19.572   3.898  0.00  0.00     0.186 C 
HETATM   59  O   UNK N   1      24.534  18.909   4.916  0.00  0.00    -0.286 OA
BRANCH  58  60
HETATM   60  C   UNK N   1      23.062  19.820   3.325  0.00  0.00     0.091 C 
BRANCH  60  61
HETATM   61  C   UNK N   1      22.009  18.987   4.042  0.00  0.00     0.008 C 
BRANCH  61  62
HETATM   62  C   UNK N   1      21.628  17.760   3.228  0.00  0.00     0.000 C 
BRANCH  62  63
HETATM   63  C   UNK N   1      20.119  17.583   3.187  0.00  0.00    -0.005 C 
HETATM   64  C   UNK N   1      19.461  18.854   2.688  0.00  0.00     0.005 C 
ENDBRANCH  62  63
ENDBRANCH  61  62
ENDBRANCH  60  61
ENDBRANCH  58  60
ENDBRANCH  57  58
ENDBRANCH  56  57
ENDBRANCH  55  56
ENDBRANCH  52  55
ENDBRANCH  50  51
ENDBRANCH  49  50
ENDBRANCH  46  49
ENDBRANCH  44  45
BRANCH  44  65
HETATM   65  O   UNK N   1      32.865  14.104   5.396  0.00  0.00    -0.385 OA
HETATM   66  H   UNK N   1      33.633  13.526   5.524  0.00  0.00     0.210 HD
ENDBRANCH  44  65
ENDBRANCH  41  44
ENDBRANCH  40  41
ENDBRANCH  39  40
ENDBRANCH  37  39
BRANCH  37  67
HETATM   67  O   UNK N   1      32.628  17.975   8.780  0.00  0.00    -0.307 OA
HETATM   68  H   UNK N   1      31.981  17.662   9.430  0.00  0.00     0.222 HD
ENDBRANCH  37  67
ENDBRANCH  36  37
ENDBRANCH   1  36
TORSDOF 31
ENDMDL
MODEL 5
REMARK VINA RESULT:      -6.3      1.556      2.071
REMARK  31 active torsions:
REMARK  status: ('A' for Active; 'I' for Inactive)
REMARK    1  A    between atoms: S_1  and  C_2 
REMARK    2  A    between atoms: S_1  and  C_52 
REMARK    3  A    between atoms: C_2  and  C_3 
REMARK    4  A    between atoms: C_3  and  N_4 
REMARK       I    between atoms: N_4  and  C_5 
REMARK    5  A    between atoms: C_5  and  C_6 
REMARK    6  A    between atoms: C_6  and  C_7 
REMARK    7  A    between atoms: C_7  and  N_8 
REMARK       I    between atoms: N_8  and  C_9 
REMARK    8  A    between atoms: C_9  and  C_10 
REMARK    9  A    between atoms: C_10  and  C_11 
REMARK   10  A    between atoms: C_10  and  O_16 
REMARK   11  A    between atoms: C_11  and  C_12 
REMARK   12  A    between atoms: C_12  and  O_13 
REMARK   13  A    between atoms: O_13  and  P_19 
REMARK   14  A    between atoms: P_19  and  O_21 
REMARK   15  A    between atoms: P_19  and  O_51 
REMARK   16  A    between atoms: C_22  and  O_28 
REMARK   17  A    between atoms: C_23  and  O_29 
REMARK   18  A    between atoms: C_24  and  C_27 
REMARK   19  A    between atoms: C_26  and  N_36 
REMARK   20  A    between atoms: C_27  and  O_47 
REMARK   21  A    between atoms: O_29  and  P_30 
REMARK   22  A    between atoms: P_30  and  O_31 
REMARK   23  A    between atoms: P_30  and  O_32 
REMARK   24  A    between atoms: C_40  and  N_46 
REMARK   25  A    between atoms: O_47  and  P_48 
REMARK   26  A    between atoms: P_48  and  O_49 
REMARK   27  A    between atoms: P_48  and  O_51 
REMARK   28  A    between atoms: C_52  and  C_53 
REMARK   29  A    between atoms: C_53  and  C_54 
REMARK   30  A    between atoms: C_54  and  C_55 
REMARK   31  A    between atoms: C_55  and  C_56 
ROOT
HETATM    1  P   UNK N   1      25.083  15.444   5.360  0.00  0.00     0.401 P 
HETATM    2  O   UNK N   1      25.622  15.433   6.815  0.00  0.00    -0.631 OA
ENDROOT
BRANCH   1   3
HETATM    3  O   UNK N   1      24.047  14.029   5.193  0.00  0.00    -0.294 OA
BRANCH   3   4
HETATM    4  C   UNK N   1      22.884  14.241   5.948  0.00  0.00     0.215 C 
BRANCH   4   5
HETATM    5  C   UNK N   1      21.650  14.339   5.042  0.00  0.00     0.180 C 
HETATM    6  C   UNK N   1      20.577  15.085   5.762  0.00  0.00     0.197 C 
HETATM    7  C   UNK N   1      19.600  15.440   4.688  0.00  0.00     0.199 C 
HETATM    8  C   UNK N   1      20.527  15.453   3.461  0.00  0.00     0.262 C 
HETATM    9  O   UNK N   1      21.849  15.090   3.860  0.00  0.00    -0.353 OA
BRANCH   6  10
HETATM   10  O   UNK N   1      20.058  14.483   6.927  0.00  0.00    -0.286 OA
BRANCH  10  11
HETATM   11  P   UNK N   1      20.187  15.568   8.296  0.00  0.00     0.391 P 
HETATM   12  O   UNK N   1      21.293  14.977   9.207  0.00  0.00    -0.632 OA
BRANCH  11  13
HETATM   13  O   UNK N   1      20.730  17.146   7.831  0.00  0.00    -0.307 OA
HETATM   14  H   UNK N   1      21.259  17.494   7.096  0.00  0.00     0.222 HD
ENDBRANCH  11  13
BRANCH  11  15
HETATM   15  O   UNK N   1      18.740  15.618   9.257  0.00  0.00    -0.307 OA
HETATM   16  H   UNK N   1      18.383  14.817   9.670  0.00  0.00     0.222 HD
ENDBRANCH  11  15
ENDBRANCH  10  11
ENDBRANCH   6  10
BRANCH   7  17
HETATM   17  O   UNK N   1      19.056  16.671   5.016  0.00  0.00    -0.388 OA
HETATM   18  H   UNK N   1      18.186  16.982   4.723  0.00  0.00     0.210 HD
ENDBRANCH   7  17
BRANCH   8  19
HETATM   19  N   UNK N   1      20.474  16.611   2.534  0.00  0.00    -0.297 N 
HETATM   20  C   UNK N   1      20.766  17.924   2.711  0.00  0.00     0.142 A 
HETATM   21  C   UNK N   1      20.500  18.598   1.571  0.00  0.00     0.122 A 
HETATM   22  N   UNK N   1      21.238  18.552   3.815  0.00  0.00    -0.336 N 
HETATM   23  N   UNK N   1      20.018  17.757   0.643  0.00  0.00    -0.346 N 
HETATM   24  C   UNK N   1      20.729  19.968   1.497  0.00  0.00     0.131 A 
HETATM   25  C   UNK N   1      20.003  16.540   1.260  0.00  0.00     0.188 A 
ATOM     26  HN  UNK N   1      19.728  17.979  -0.309  1.00  0.00     0.167 HD
HETATM   27  N   UNK N   1      21.229  20.597   2.599  0.00  0.00    -0.337 N 
HETATM   28  C   UNK N   1      21.482  19.898   3.753  0.00  0.00     0.183 A 
ATOM     29  HN  UNK N   1      21.417  21.599   2.567  1.00  0.00     0.168 HD
ATOM     30  HN  UNK N   1      21.408  18.032   4.675  1.00  0.00     0.168 HD
BRANCH  24  31
HETATM   31  N   UNK N   1      20.453  20.695   0.320  0.00  0.00    -0.383 N 
HETATM   32  H   UNK N   1      19.570  20.743  -0.113  0.00  0.00     0.157 HD
HETATM   33  H   UNK N   1      21.195  21.189  -0.097  0.00  0.00     0.157 HD
ENDBRANCH  24  31
ENDBRANCH   8  19
ENDBRANCH   4   5
ENDBRANCH   3   4
ENDBRANCH   1   3
BRANCH   1  34
HETATM   34  O   UNK N   1      24.067  16.847   5.209  0.00  0.00    -0.307 OA
HETATM   35  H   UNK N   1      24.171  17.784   4.979  0.00  0.00     0.222 HD
ENDBRANCH   1  34
BRANCH   1  36
HETATM   36  O   UNK N   1      26.418  15.434   4.200  0.00  0.00    -0.195 OA
BRANCH  36  37
HETATM   37  P   UNK N   1      27.142  13.844   3.927  0.00  0.00     0.401 P 
HETATM   38  O   UNK N   1      26.544  13.129   2.682  0.00  0.00    -0.631 OA
BRANCH  37  39
HETATM   39  O   UNK N   1      28.891  13.831   3.722  0.00  0.00    -0.296 OA
BRANCH  39  40
HETATM   40  C   UNK N   1      29.367  15.130   3.456  0.00  0.00     0.192 C 
BRANCH  40  41
HETATM   41  C   UNK N   1      30.901  15.207   3.670  0.00  0.00     0.009 C 
HETATM   42  C   UNK N   1      31.590  14.145   2.825  0.00  0.00     0.020 C 
HETATM   43  C   UNK N   1      31.426  16.553   3.189  0.00  0.00     0.020 C 
BRANCH  41  44
HETATM   44  C   UNK N   1      31.309  15.071   5.161  0.00  0.00     0.219 C 
BRANCH  44  45
HETATM   45  C   UNK N   1      32.157  13.848   5.506  0.00  0.00     0.247 C 
HETATM   46  N   UNK N   1      33.514  13.858   5.563  0.00  0.00    -0.358 N 
HETATM   47  H   UNK N   1      33.957  13.046   5.897  0.00  0.00     0.162 HD
HETATM   48  O   UNK N   1      31.585  12.788   5.706  0.00  0.00    -0.271 OA
BRANCH  46  49
HETATM   49  C   UNK N   1      34.365  14.962   5.174  0.00  0.00     0.132 C 
BRANCH  49  50
HETATM   50  C   UNK N   1      34.975  15.623   6.413  0.00  0.00     0.122 C 
BRANCH  50  51
HETATM   51  C   UNK N   1      34.138  16.768   6.892  0.00  0.00     0.219 C 
HETATM   52  N   UNK N   1      33.192  16.547   7.834  0.00  0.00    -0.360 N 
HETATM   53  H   UNK N   1      33.007  15.623   8.122  0.00  0.00     0.162 HD
HETATM   54  O   UNK N   1      34.356  17.899   6.479  0.00  0.00    -0.274 OA
BRANCH  52  55
HETATM   55  C   UNK N   1      32.449  17.630   8.426  0.00  0.00     0.133 C 
BRANCH  55  56
HETATM   56  C   UNK N   1      31.014  17.219   8.683  0.00  0.00     0.102 C 
BRANCH  56  57
HETATM   57  S   UNK N   1      30.009  18.678   9.090  0.00  0.00    -0.091 SA
BRANCH  57  58
HETATM   58  C   UNK N   1      28.798  18.297   7.824  0.00  0.00     0.186 C 
HETATM   59  O   UNK N   1      28.708  17.159   7.390  0.00  0.00    -0.286 OA
BRANCH  58  60
HETATM   60  C   UNK N   1      27.922  19.372   7.270  0.00  0.00     0.091 C 
BRANCH  60  61
HETATM   61  C   UNK N   1      27.849  19.284   5.752  0.00  0.00     0.008 C 
BRANCH  61  62
HETATM   62  C   UNK N   1      27.145  20.496   5.162  0.00  0.00     0.000 C 
BRANCH  62  63
HETATM   63  C   UNK N   1      26.847  20.286   3.687  0.00  0.00    -0.005 C 
HETATM   64  C   UNK N   1      25.441  19.749   3.512  0.00  0.00     0.005 C 
ENDBRANCH  62  63
ENDBRANCH  61  62
ENDBRANCH  60  61
ENDBRANCH  58  60
ENDBRANCH  57  58
ENDBRANCH  56  57
ENDBRANCH  55  56
ENDBRANCH  52  55
ENDBRANCH  50  51
ENDBRANCH  49  50
ENDBRANCH  46  49
ENDBRANCH  44  45
BRANCH  44  65
HETATM   65  O   UNK N   1      30.176  15.202   5.972  0.00  0.00    -0.385 OA
HETATM   66  H   UNK N   1      29.357  15.032   6.463  0.00  0.00     0.210 HD
ENDBRANCH  44  65
ENDBRANCH  41  44
ENDBRANCH  40  41
ENDBRANCH  39  40
ENDBRANCH  37  39
BRANCH  37  67
HETATM   67  O   UNK N   1      26.796  12.799   5.262  0.00  0.00    -0.307 OA
HETATM   68  H   UNK N   1      27.072  12.376   6.091  0.00  0.00     0.222 HD
ENDBRANCH  37  67
ENDBRANCH  36  37
ENDBRANCH   1  36
TORSDOF 31
ENDMDL
MODEL 6
REMARK VINA RESULT:      -6.2      3.118     11.071
REMARK  31 active torsions:
REMARK  status: ('A' for Active; 'I' for Inactive)
REMARK    1  A    between atoms: S_1  and  C_2 
REMARK    2  A    between atoms: S_1  and  C_52 
REMARK    3  A    between atoms: C_2  and  C_3 
REMARK    4  A    between atoms: C_3  and  N_4 
REMARK       I    between atoms: N_4  and  C_5 
REMARK    5  A    between atoms: C_5  and  C_6 
REMARK    6  A    between atoms: C_6  and  C_7 
REMARK    7  A    between atoms: C_7  and  N_8 
REMARK       I    between atoms: N_8  and  C_9 
REMARK    8  A    between atoms: C_9  and  C_10 
REMARK    9  A    between atoms: C_10  and  C_11 
REMARK   10  A    between atoms: C_10  and  O_16 
REMARK   11  A    between atoms: C_11  and  C_12 
REMARK   12  A    between atoms: C_12  and  O_13 
REMARK   13  A    between atoms: O_13  and  P_19 
REMARK   14  A    between atoms: P_19  and  O_21 
REMARK   15  A    between atoms: P_19  and  O_51 
REMARK   16  A    between atoms: C_22  and  O_28 
REMARK   17  A    between atoms: C_23  and  O_29 
REMARK   18  A    between atoms: C_24  and  C_27 
REMARK   19  A    between atoms: C_26  and  N_36 
REMARK   20  A    between atoms: C_27  and  O_47 
REMARK   21  A    between atoms: O_29  and  P_30 
REMARK   22  A    between atoms: P_30  and  O_31 
REMARK   23  A    between atoms: P_30  and  O_32 
REMARK   24  A    between atoms: C_40  and  N_46 
REMARK   25  A    between atoms: O_47  and  P_48 
REMARK   26  A    between atoms: P_48  and  O_49 
REMARK   27  A    between atoms: P_48  and  O_51 
REMARK   28  A    between atoms: C_52  and  C_53 
REMARK   29  A    between atoms: C_53  and  C_54 
REMARK   30  A    between atoms: C_54  and  C_55 
REMARK   31  A    between atoms: C_55  and  C_56 
ROOT
HETATM    1  P   UNK N   1      27.003  17.140   4.712  0.00  0.00     0.401 P 
HETATM    2  O   UNK N   1      27.736  18.322   4.021  0.00  0.00    -0.631 OA
ENDROOT
BRANCH   1   3
HETATM    3  O   UNK N   1      28.109  15.769   4.673  0.00  0.00    -0.294 OA
BRANCH   3   4
HETATM    4  C   UNK N   1      28.762  15.693   5.913  0.00  0.00     0.215 C 
BRANCH   4   5
HETATM    5  C   UNK N   1      30.138  16.369   5.852  0.00  0.00     0.180 C 
HETATM    6  C   UNK N   1      30.444  16.966   7.186  0.00  0.00     0.197 C 
HETATM    7  C   UNK N   1      31.910  17.252   7.125  0.00  0.00     0.199 C 
HETATM    8  C   UNK N   1      32.356  16.207   6.089  0.00  0.00     0.262 C 
HETATM    9  O   UNK N   1      31.216  15.483   5.623  0.00  0.00    -0.353 OA
BRANCH   6  10
HETATM   10  O   UNK N   1      29.604  18.012   7.620  0.00  0.00    -0.286 OA
BRANCH  10  11
HETATM   11  P   UNK N   1      29.148  17.785   9.296  0.00  0.00     0.391 P 
HETATM   12  O   UNK N   1      29.572  19.083  10.032  0.00  0.00    -0.632 OA
BRANCH  11  13
HETATM   13  O   UNK N   1      27.433  17.650   9.496  0.00  0.00    -0.307 OA
HETATM   14  H   UNK N   1      26.663  17.964   8.996  0.00  0.00     0.222 HD
ENDBRANCH  11  13
BRANCH  11  15
HETATM   15  O   UNK N   1      30.012  16.487  10.062  0.00  0.00    -0.307 OA
HETATM   16  H   UNK N   1      30.190  16.494  11.016  0.00  0.00     0.222 HD
ENDBRANCH  11  15
ENDBRANCH  10  11
ENDBRANCH   6  10
BRANCH   7  17
HETATM   17  O   UNK N   1      32.419  17.059   8.399  0.00  0.00    -0.388 OA
HETATM   18  H   UNK N   1      32.556  17.766   9.049  0.00  0.00     0.210 HD
ENDBRANCH   7  17
BRANCH   8  19
HETATM   19  N   UNK N   1      33.530  15.352   6.392  0.00  0.00    -0.297 N 
HETATM   20  C   UNK N   1      33.693  14.311   7.248  0.00  0.00     0.142 A 
HETATM   21  C   UNK N   1      34.977  13.894   7.204  0.00  0.00     0.122 A 
HETATM   22  N   UNK N   1      32.782  13.726   8.062  0.00  0.00    -0.336 N 
HETATM   23  N   UNK N   1      35.677  14.653   6.347  0.00  0.00    -0.346 N 
HETATM   24  C   UNK N   1      35.395  12.825   7.990  0.00  0.00     0.131 A 
HETATM   25  C   UNK N   1      34.768  15.550   5.864  0.00  0.00     0.188 A 
ATOM     26  HN  UNK N   1      36.665  14.577   6.110  1.00  0.00     0.167 HD
HETATM   27  N   UNK N   1      34.472  12.217   8.790  0.00  0.00    -0.337 N 
HETATM   28  C   UNK N   1      33.174  12.662   8.831  0.00  0.00     0.183 A 
ATOM     29  HN  UNK N   1      34.750  11.423   9.368  1.00  0.00     0.168 HD
ATOM     30  HN  UNK N   1      31.824  14.070   8.101  1.00  0.00     0.168 HD
BRANCH  24  31
HETATM   31  N   UNK N   1      36.731  12.376   7.967  0.00  0.00    -0.383 N 
HETATM   32  H   UNK N   1      37.109  11.782   7.279  0.00  0.00     0.157 HD
HETATM   33  H   UNK N   1      37.328  12.678   8.689  0.00  0.00     0.157 HD
ENDBRANCH  24  31
ENDBRANCH   8  19
ENDBRANCH   4   5
ENDBRANCH   3   4
ENDBRANCH   1   3
BRANCH   1  34
HETATM   34  O   UNK N   1      26.792  17.585   6.379  0.00  0.00    -0.307 OA
HETATM   35  H   UNK N   1      26.058  17.677   7.007  0.00  0.00     0.222 HD
ENDBRANCH   1  34
BRANCH   1  36
HETATM   36  O   UNK N   1      25.476  16.790   3.894  0.00  0.00    -0.195 OA
BRANCH  36  37
HETATM   37  P   UNK N   1      24.640  15.347   4.486  0.00  0.00     0.401 P 
HETATM   38  O   UNK N   1      24.519  15.329   6.036  0.00  0.00    -0.631 OA
BRANCH  37  39
HETATM   39  O   UNK N   1      23.017  15.098   3.852  0.00  0.00    -0.296 OA
BRANCH  39  40
HETATM   40  C   UNK N   1      22.274  16.293   3.910  0.00  0.00     0.192 C 
BRANCH  40  41
HETATM   41  C   UNK N   1      20.822  16.063   3.415  0.00  0.00     0.009 C 
HETATM   42  C   UNK N   1      20.725  16.408   1.936  0.00  0.00     0.020 C 
HETATM   43  C   UNK N   1      20.457  14.590   3.542  0.00  0.00     0.020 C 
BRANCH  41  44
HETATM   44  C   UNK N   1      19.773  16.860   4.233  0.00  0.00     0.219 C 
BRANCH  44  45
HETATM   45  C   UNK N   1      19.081  16.087   5.355  0.00  0.00     0.247 C 
HETATM   46  N   UNK N   1      19.555  16.008   6.625  0.00  0.00    -0.358 N 
HETATM   47  H   UNK N   1      18.979  15.574   7.295  0.00  0.00     0.162 HD
HETATM   48  O   UNK N   1      18.062  15.470   5.086  0.00  0.00    -0.271 OA
BRANCH  46  49
HETATM   49  C   UNK N   1      20.833  16.509   7.080  0.00  0.00     0.132 C 
BRANCH  49  50
HETATM   50  C   UNK N   1      21.602  15.410   7.818  0.00  0.00     0.122 C 
BRANCH  50  51
HETATM   51  C   UNK N   1      21.232  14.049   7.315  0.00  0.00     0.219 C 
HETATM   52  N   UNK N   1      21.992  13.470   6.356  0.00  0.00    -0.360 N 
HETATM   53  H   UNK N   1      22.719  13.988   5.940  0.00  0.00     0.162 HD
HETATM   54  O   UNK N   1      20.291  13.447   7.815  0.00  0.00    -0.274 OA
BRANCH  52  55
HETATM   55  C   UNK N   1      21.762  12.113   5.929  0.00  0.00     0.133 C 
BRANCH  55  56
HETATM   56  C   UNK N   1      22.674  11.157   6.669  0.00  0.00     0.102 C 
BRANCH  56  57
HETATM   57  S   UNK N   1      24.394  11.740   6.584  0.00  0.00    -0.091 SA
BRANCH  57  58
HETATM   58  C   UNK N   1      24.366  12.320   8.280  0.00  0.00     0.186 C 
HETATM   59  O   UNK N   1      25.076  13.254   8.617  0.00  0.00    -0.286 OA
BRANCH  58  60
HETATM   60  C   UNK N   1      23.506  11.640   9.294  0.00  0.00     0.091 C 
BRANCH  60  61
HETATM   61  C   UNK N   1      23.977  11.957  10.706  0.00  0.00     0.008 C 
BRANCH  61  62
HETATM   62  C   UNK N   1      22.803  12.085  11.665  0.00  0.00     0.000 C 
BRANCH  62  63
HETATM   63  C   UNK N   1      21.594  12.682  10.964  0.00  0.00    -0.005 C 
HETATM   64  C   UNK N   1      20.318  12.128  11.567  0.00  0.00     0.005 C 
ENDBRANCH  62  63
ENDBRANCH  61  62
ENDBRANCH  60  61
ENDBRANCH  58  60
ENDBRANCH  57  58
ENDBRANCH  56  57
ENDBRANCH  55  56
ENDBRANCH  52  55
ENDBRANCH  50  51
ENDBRANCH  49  50
ENDBRANCH  46  49
ENDBRANCH  44  45
BRANCH  44  65
HETATM   65  O   UNK N   1      18.875  17.487   3.362  0.00  0.00    -0.385 OA
HETATM   66  H   UNK N   1      18.114  17.960   2.989  0.00  0.00     0.210 HD
ENDBRANCH  44  65
ENDBRANCH  41  44
ENDBRANCH  40  41
ENDBRANCH  39  40
ENDBRANCH  37  39
BRANCH  37  67
HETATM   67  O   UNK N   1      25.548  13.930   4.083  0.00  0.00    -0.307 OA
HETATM   68  H   UNK N   1      25.642  12.965   4.086  0.00  0.00     0.222 HD
ENDBRANCH  37  67
ENDBRANCH  36  37
ENDBRANCH   1  36
TORSDOF 31
ENDMDL
MODEL 7
REMARK VINA RESULT:      -6.2      4.293     11.936
REMARK  31 active torsions:
REMARK  status: ('A' for Active; 'I' for Inactive)
REMARK    1  A    between atoms: S_1  and  C_2 
REMARK    2  A    between atoms: S_1  and  C_52 
REMARK    3  A    between atoms: C_2  and  C_3 
REMARK    4  A    between atoms: C_3  and  N_4 
REMARK       I    between atoms: N_4  and  C_5 
REMARK    5  A    between atoms: C_5  and  C_6 
REMARK    6  A    between atoms: C_6  and  C_7 
REMARK    7  A    between atoms: C_7  and  N_8 
REMARK       I    between atoms: N_8  and  C_9 
REMARK    8  A    between atoms: C_9  and  C_10 
REMARK    9  A    between atoms: C_10  and  C_11 
REMARK   10  A    between atoms: C_10  and  O_16 
REMARK   11  A    between atoms: C_11  and  C_12 
REMARK   12  A    between atoms: C_12  and  O_13 
REMARK   13  A    between atoms: O_13  and  P_19 
REMARK   14  A    between atoms: P_19  and  O_21 
REMARK   15  A    between atoms: P_19  and  O_51 
REMARK   16  A    between atoms: C_22  and  O_28 
REMARK   17  A    between atoms: C_23  and  O_29 
REMARK   18  A    between atoms: C_24  and  C_27 
REMARK   19  A    between atoms: C_26  and  N_36 
REMARK   20  A    between atoms: C_27  and  O_47 
REMARK   21  A    between atoms: O_29  and  P_30 
REMARK   22  A    between atoms: P_30  and  O_31 
REMARK   23  A    between atoms: P_30  and  O_32 
REMARK   24  A    between atoms: C_40  and  N_46 
REMARK   25  A    between atoms: O_47  and  P_48 
REMARK   26  A    between atoms: P_48  and  O_49 
REMARK   27  A    between atoms: P_48  and  O_51 
REMARK   28  A    between atoms: C_52  and  C_53 
REMARK   29  A    between atoms: C_53  and  C_54 
REMARK   30  A    between atoms: C_54  and  C_55 
REMARK   31  A    between atoms: C_55  and  C_56 
ROOT
HETATM    1  P   UNK N   1      32.486  16.520   3.942  0.00  0.00     0.401 P 
HETATM    2  O   UNK N   1      32.920  16.470   2.453  0.00  0.00    -0.631 OA
ENDROOT
BRANCH   1   3
HETATM    3  O   UNK N   1      33.965  16.500   4.900  0.00  0.00    -0.294 OA
BRANCH   3   4
HETATM    4  C   UNK N   1      33.881  15.444   5.821  0.00  0.00     0.215 C 
BRANCH   4   5
HETATM    5  C   UNK N   1      33.814  15.973   7.259  0.00  0.00     0.180 C 
HETATM    6  C   UNK N   1      32.712  15.272   7.982  0.00  0.00     0.197 C 
HETATM    7  C   UNK N   1      32.975  15.574   9.422  0.00  0.00     0.199 C 
HETATM    8  C   UNK N   1      34.493  15.813   9.384  0.00  0.00     0.262 C 
HETATM    9  O   UNK N   1      34.960  15.694   8.039  0.00  0.00    -0.353 OA
BRANCH   6  10
HETATM   10  O   UNK N   1      31.402  15.495   7.509  0.00  0.00    -0.286 OA
BRANCH  10  11
HETATM   11  P   UNK N   1      30.902  17.144   7.824  0.00  0.00     0.391 P 
HETATM   12  O   UNK N   1      30.119  17.104   9.161  0.00  0.00    -0.632 OA
BRANCH  11  13
HETATM   13  O   UNK N   1      32.251  18.199   8.079  0.00  0.00    -0.307 OA
HETATM   14  H   UNK N   1      32.697  18.556   8.864  0.00  0.00     0.222 HD
ENDBRANCH  11  13
BRANCH  11  15
HETATM   15  O   UNK N   1      29.796  17.754   6.630  0.00  0.00    -0.307 OA
HETATM   16  H   UNK N   1      29.456  18.662   6.677  0.00  0.00     0.222 HD
ENDBRANCH  11  15
ENDBRANCH  10  11
ENDBRANCH   6  10
BRANCH   7  17
HETATM   17  O   UNK N   1      32.581  14.466  10.153  0.00  0.00    -0.388 OA
HETATM   18  H   UNK N   1      33.122  14.038  10.836  0.00  0.00     0.210 HD
ENDBRANCH   7  17
BRANCH   8  19
HETATM   19  N   UNK N   1      35.353  15.130  10.383  0.00  0.00    -0.297 N 
HETATM   20  C   UNK N   1      35.906  13.891  10.403  0.00  0.00     0.142 A 
HETATM   21  C   UNK N   1      36.564  13.715  11.568  0.00  0.00     0.122 A 
HETATM   22  N   UNK N   1      35.851  12.918   9.462  0.00  0.00    -0.336 N 
HETATM   23  N   UNK N   1      36.443  14.810  12.334  0.00  0.00    -0.346 N 
HETATM   24  C   UNK N   1      37.229  12.520  11.825  0.00  0.00     0.131 A 
HETATM   25  C   UNK N   1      35.686  15.666  11.588  0.00  0.00     0.188 A 
ATOM     26  HN  UNK N   1      36.829  14.967  13.264  1.00  0.00     0.167 HD
HETATM   27  N   UNK N   1      37.197  11.549  10.867  0.00  0.00    -0.337 N 
HETATM   28  C   UNK N   1      36.512  11.741   9.693  0.00  0.00     0.183 A 
ATOM     29  HN  UNK N   1      37.686  10.667  11.026  1.00  0.00     0.168 HD
ATOM     30  HN  UNK N   1      35.327  13.059   8.599  1.00  0.00     0.168 HD
BRANCH  24  31
HETATM   31  N   UNK N   1      37.917  12.309  13.037  0.00  0.00    -0.383 N 
HETATM   32  H   UNK N   1      38.253  13.027  13.621  0.00  0.00     0.157 HD
HETATM   33  H   UNK N   1      38.072  11.379  13.319  0.00  0.00     0.157 HD
ENDBRANCH  24  31
ENDBRANCH   8  19
ENDBRANCH   4   5
ENDBRANCH   3   4
ENDBRANCH   1   3
BRANCH   1  34
HETATM   34  O   UNK N   1      31.729  18.065   4.195  0.00  0.00    -0.307 OA
HETATM   35  H   UNK N   1      31.985  19.000   4.164  0.00  0.00     0.222 HD
ENDBRANCH   1  34
BRANCH   1  36
HETATM   36  O   UNK N   1      31.423  15.161   4.328  0.00  0.00    -0.195 OA
BRANCH  36  37
HETATM   37  P   UNK N   1      29.748  15.363   3.794  0.00  0.00     0.401 P 
HETATM   38  O   UNK N   1      29.220  14.121   3.023  0.00  0.00    -0.631 OA
BRANCH  37  39
HETATM   39  O   UNK N   1      28.581  15.698   5.068  0.00  0.00    -0.296 OA
BRANCH  39  40
HETATM   40  C   UNK N   1      27.412  14.934   4.881  0.00  0.00     0.192 C 
BRANCH  40  41
HETATM   41  C   UNK N   1      26.219  15.842   4.486  0.00  0.00     0.009 C 
HETATM   42  C   UNK N   1      26.232  16.082   2.984  0.00  0.00     0.020 C 
HETATM   43  C   UNK N   1      24.904  15.141   4.803  0.00  0.00     0.020 C 
BRANCH  41  44
HETATM   44  C   UNK N   1      26.207  17.190   5.256  0.00  0.00     0.219 C 
BRANCH  44  45
HETATM   45  C   UNK N   1      26.764  18.392   4.494  0.00  0.00     0.247 C 
HETATM   46  N   UNK N   1      25.992  19.294   3.834  0.00  0.00    -0.358 N 
HETATM   47  H   UNK N   1      26.442  20.088   3.466  0.00  0.00     0.162 HD
HETATM   48  O   UNK N   1      27.975  18.530   4.442  0.00  0.00    -0.271 OA
BRANCH  46  49
HETATM   49  C   UNK N   1      24.564  19.189   3.626  0.00  0.00     0.132 C 
BRANCH  49  50
HETATM   50  C   UNK N   1      24.068  20.348   2.757  0.00  0.00     0.122 C 
BRANCH  50  51
HETATM   51  C   UNK N   1      22.582  20.504   2.847  0.00  0.00     0.219 C 
HETATM   52  N   UNK N   1      21.817  19.415   3.092  0.00  0.00    -0.360 N 
HETATM   53  H   UNK N   1      22.239  18.525   3.116  0.00  0.00     0.162 HD
HETATM   54  O   UNK N   1      22.078  21.615   2.764  0.00  0.00    -0.274 OA
BRANCH  52  55
HETATM   55  C   UNK N   1      20.398  19.525   3.319  0.00  0.00     0.133 C 
BRANCH  55  56
HETATM   56  C   UNK N   1      19.674  18.303   2.793  0.00  0.00     0.102 C 
BRANCH  56  57
HETATM   57  S   UNK N   1      20.854  16.947   2.519  0.00  0.00    -0.091 SA
BRANCH  57  58
HETATM   58  C   UNK N   1      20.280  16.679   0.842  0.00  0.00     0.186 C 
HETATM   59  O   UNK N   1      20.370  17.574   0.017  0.00  0.00    -0.286 OA
BRANCH  58  60
HETATM   60  C   UNK N   1      19.656  15.378   0.458  0.00  0.00     0.091 C 
BRANCH  60  61
HETATM   61  C   UNK N   1      19.809  14.353   1.573  0.00  0.00     0.008 C 
BRANCH  61  62
HETATM   62  C   UNK N   1      20.706  13.202   1.145  0.00  0.00     0.000 C 
BRANCH  62  63
HETATM   63  C   UNK N   1      22.114  13.380   1.689  0.00  0.00    -0.005 C 
HETATM   64  C   UNK N   1      23.044  13.834   0.582  0.00  0.00     0.005 C 
ENDBRANCH  62  63
ENDBRANCH  61  62
ENDBRANCH  60  61
ENDBRANCH  58  60
ENDBRANCH  57  58
ENDBRANCH  56  57
ENDBRANCH  55  56
ENDBRANCH  52  55
ENDBRANCH  50  51
ENDBRANCH  49  50
ENDBRANCH  46  49
ENDBRANCH  44  45
BRANCH  44  65
HETATM   65  O   UNK N   1      26.794  17.017   6.515  0.00  0.00    -0.385 OA
HETATM   66  H   UNK N   1      27.015  17.084   7.457  0.00  0.00     0.210 HD
ENDBRANCH  44  65
ENDBRANCH  41  44
ENDBRANCH  40  41
ENDBRANCH  39  40
ENDBRANCH  37  39
BRANCH  37  67
HETATM   67  O   UNK N   1      29.640  16.676   2.671  0.00  0.00    -0.307 OA
HETATM   68  H   UNK N   1      29.991  17.508   2.316  0.00  0.00     0.222 HD
ENDBRANCH  37  67
ENDBRANCH  36  37
ENDBRANCH   1  36
TORSDOF 31
ENDMDL
MODEL 8
REMARK VINA RESULT:      -6.2      3.820      9.836
REMARK  31 active torsions:
REMARK  status: ('A' for Active; 'I' for Inactive)
REMARK    1  A    between atoms: S_1  and  C_2 
REMARK    2  A    between atoms: S_1  and  C_52 
REMARK    3  A    between atoms: C_2  and  C_3 
REMARK    4  A    between atoms: C_3  and  N_4 
REMARK       I    between atoms: N_4  and  C_5 
REMARK    5  A    between atoms: C_5  and  C_6 
REMARK    6  A    between atoms: C_6  and  C_7 
REMARK    7  A    between atoms: C_7  and  N_8 
REMARK       I    between atoms: N_8  and  C_9 
REMARK    8  A    between atoms: C_9  and  C_10 
REMARK    9  A    between atoms: C_10  and  C_11 
REMARK   10  A    between atoms: C_10  and  O_16 
REMARK   11  A    between atoms: C_11  and  C_12 
REMARK   12  A    between atoms: C_12  and  O_13 
REMARK   13  A    between atoms: O_13  and  P_19 
REMARK   14  A    between atoms: P_19  and  O_21 
REMARK   15  A    between atoms: P_19  and  O_51 
REMARK   16  A    between atoms: C_22  and  O_28 
REMARK   17  A    between atoms: C_23  and  O_29 
REMARK   18  A    between atoms: C_24  and  C_27 
REMARK   19  A    between atoms: C_26  and  N_36 
REMARK   20  A    between atoms: C_27  and  O_47 
REMARK   21  A    between atoms: O_29  and  P_30 
REMARK   22  A    between atoms: P_30  and  O_31 
REMARK   23  A    between atoms: P_30  and  O_32 
REMARK   24  A    between atoms: C_40  and  N_46 
REMARK   25  A    between atoms: O_47  and  P_48 
REMARK   26  A    between atoms: P_48  and  O_49 
REMARK   27  A    between atoms: P_48  and  O_51 
REMARK   28  A    between atoms: C_52  and  C_53 
REMARK   29  A    between atoms: C_53  and  C_54 
REMARK   30  A    between atoms: C_54  and  C_55 
REMARK   31  A    between atoms: C_55  and  C_56 
ROOT
HETATM    1  P   UNK N   1      21.468  17.242   4.059  0.00  0.00     0.401 P 
HETATM    2  O   UNK N   1      21.680  18.757   4.324  0.00  0.00    -0.631 OA
ENDROOT
BRANCH   1   3
HETATM    3  O   UNK N   1      22.626  16.385   5.074  0.00  0.00    -0.294 OA
BRANCH   3   4
HETATM    4  C   UNK N   1      23.660  17.272   5.410  0.00  0.00     0.215 C 
BRANCH   4   5
HETATM    5  C   UNK N   1      24.987  16.835   4.774  0.00  0.00     0.180 C 
HETATM    6  C   UNK N   1      25.620  18.015   4.115  0.00  0.00     0.197 C 
HETATM    7  C   UNK N   1      27.029  17.578   3.872  0.00  0.00     0.199 C 
HETATM    8  C   UNK N   1      27.192  16.528   4.983  0.00  0.00     0.262 C 
HETATM    9  O   UNK N   1      25.964  16.399   5.700  0.00  0.00    -0.353 OA
BRANCH   6  10
HETATM   10  O   UNK N   1      24.927  18.580   3.026  0.00  0.00    -0.286 OA
BRANCH  10  11
HETATM   11  P   UNK N   1      24.868  20.325   3.167  0.00  0.00     0.391 P 
HETATM   12  O   UNK N   1      25.346  20.653   4.605  0.00  0.00    -0.632 OA
BRANCH  11  13
HETATM   13  O   UNK N   1      25.979  21.106   2.093  0.00  0.00    -0.307 OA
HETATM   14  H   UNK N   1      26.311  20.916   1.201  0.00  0.00     0.222 HD
ENDBRANCH  11  13
BRANCH  11  15
HETATM   15  O   UNK N   1      23.256  20.959   3.034  0.00  0.00    -0.307 OA
HETATM   16  H   UNK N   1      23.074  21.771   2.535  0.00  0.00     0.222 HD
ENDBRANCH  11  15
ENDBRANCH  10  11
ENDBRANCH   6  10
BRANCH   7  17
HETATM   17  O   UNK N   1      27.835  18.696   4.010  0.00  0.00    -0.388 OA
HETATM   18  H   UNK N   1      28.787  18.668   4.196  0.00  0.00     0.210 HD
ENDBRANCH   7  17
BRANCH   8  19
HETATM   19  N   UNK N   1      28.394  16.582   5.851  0.00  0.00    -0.297 N 
HETATM   20  C   UNK N   1      28.608  17.155   7.063  0.00  0.00     0.142 A 
HETATM   21  C   UNK N   1      29.899  16.976   7.419  0.00  0.00     0.122 A 
HETATM   22  N   UNK N   1      27.738  17.827   7.854  0.00  0.00    -0.336 N 
HETATM   23  N   UNK N   1      30.552  16.310   6.456  0.00  0.00    -0.346 N 
HETATM   24  C   UNK N   1      30.365  17.467   8.634  0.00  0.00     0.131 A 
HETATM   25  C   UNK N   1      29.609  16.084   5.496  0.00  0.00     0.188 A 
ATOM     26  HN  UNK N   1      31.534  16.034   6.443  1.00  0.00     0.167 HD
HETATM   27  N   UNK N   1      29.484  18.121   9.444  0.00  0.00    -0.337 N 
HETATM   28  C   UNK N   1      28.179  18.304   9.060  0.00  0.00     0.183 A 
ATOM     29  HN  UNK N   1      29.798  18.481  10.346  1.00  0.00     0.168 HD
ATOM     30  HN  UNK N   1      26.774  17.975   7.557  1.00  0.00     0.168 HD
BRANCH  24  31
HETATM   31  N   UNK N   1      31.709  17.300   9.025  0.00  0.00    -0.383 N 
HETATM   32  H   UNK N   1      32.118  16.436   9.263  0.00  0.00     0.157 HD
HETATM   33  H   UNK N   1      32.279  18.102   9.062  0.00  0.00     0.157 HD
ENDBRANCH  24  31
ENDBRANCH   8  19
ENDBRANCH   4   5
ENDBRANCH   3   4
ENDBRANCH   1   3
BRANCH   1  34
HETATM   34  O   UNK N   1      19.879  16.847   4.643  0.00  0.00    -0.307 OA
HETATM   35  H   UNK N   1      18.972  17.169   4.521  0.00  0.00     0.222 HD
ENDBRANCH   1  34
BRANCH   1  36
HETATM   36  O   UNK N   1      21.682  16.872   2.344  0.00  0.00    -0.195 OA
BRANCH  36  37
HETATM   37  P   UNK N   1      20.180  16.812   1.411  0.00  0.00     0.401 P 
HETATM   38  O   UNK N   1      20.384  17.249  -0.067  0.00  0.00    -0.631 OA
BRANCH  37  39
HETATM   39  O   UNK N   1      19.377  15.246   1.367  0.00  0.00    -0.296 OA
BRANCH  39  40
HETATM   40  C   UNK N   1      20.044  14.325   2.198  0.00  0.00     0.192 C 
BRANCH  40  41
HETATM   41  C   UNK N   1      19.312  12.958   2.201  0.00  0.00     0.009 C 
HETATM   42  C   UNK N   1      18.383  12.872   0.999  0.00  0.00     0.020 C 
HETATM   43  C   UNK N   1      20.321  11.827   2.052  0.00  0.00     0.020 C 
BRANCH  41  44
HETATM   44  C   UNK N   1      18.532  12.695   3.516  0.00  0.00     0.219 C 
BRANCH  44  45
HETATM   45  C   UNK N   1      19.347  12.808   4.803  0.00  0.00     0.247 C 
HETATM   46  N   UNK N   1      19.956  11.755   5.409  0.00  0.00    -0.358 N 
HETATM   47  H   UNK N   1      20.543  11.954   6.174  0.00  0.00     0.162 HD
HETATM   48  O   UNK N   1      19.426  13.901   5.341  0.00  0.00    -0.271 OA
BRANCH  46  49
HETATM   49  C   UNK N   1      19.816  10.367   5.028  0.00  0.00     0.132 C 
BRANCH  49  50
HETATM   50  C   UNK N   1      21.093   9.593   5.364  0.00  0.00     0.122 C 
BRANCH  50  51
HETATM   51  C   UNK N   1      22.255  10.514   5.569  0.00  0.00     0.219 C 
HETATM   52  N   UNK N   1      22.921  10.484   6.748  0.00  0.00    -0.360 N 
HETATM   53  H   UNK N   1      22.576   9.925   7.481  0.00  0.00     0.162 HD
HETATM   54  O   UNK N   1      22.632  11.235   4.657  0.00  0.00    -0.274 OA
BRANCH  52  55
HETATM   55  C   UNK N   1      24.124  11.251   6.953  0.00  0.00     0.133 C 
BRANCH  55  56
HETATM   56  C   UNK N   1      23.956  12.212   8.111  0.00  0.00     0.102 C 
BRANCH  56  57
HETATM   57  S   UNK N   1      23.210  13.765   7.532  0.00  0.00    -0.091 SA
BRANCH  57  58
HETATM   58  C   UNK N   1      21.679  13.452   8.411  0.00  0.00     0.186 C 
HETATM   59  O   UNK N   1      20.983  12.498   8.102  0.00  0.00    -0.286 OA
BRANCH  58  60
HETATM   60  C   UNK N   1      21.231  14.374   9.497  0.00  0.00     0.091 C 
BRANCH  60  61
HETATM   61  C   UNK N   1      20.024  15.188   9.054  0.00  0.00     0.008 C 
BRANCH  61  62
HETATM   62  C   UNK N   1      20.448  16.458   8.334  0.00  0.00     0.000 C 
BRANCH  62  63
HETATM   63  C   UNK N   1      19.603  17.641   8.778  0.00  0.00    -0.005 C 
HETATM   64  C   UNK N   1      18.214  17.173   9.161  0.00  0.00     0.005 C 
ENDBRANCH  62  63
ENDBRANCH  61  62
ENDBRANCH  60  61
ENDBRANCH  58  60
ENDBRANCH  57  58
ENDBRANCH  56  57
ENDBRANCH  55  56
ENDBRANCH  52  55
ENDBRANCH  50  51
ENDBRANCH  49  50
ENDBRANCH  46  49
ENDBRANCH  44  45
BRANCH  44  65
HETATM   65  O   UNK N   1      17.830  11.488   3.413  0.00  0.00    -0.385 OA
HETATM   66  H   UNK N   1      17.395  10.644   3.609  0.00  0.00     0.210 HD
ENDBRANCH  44  65
ENDBRANCH  41  44
ENDBRANCH  40  41
ENDBRANCH  39  40
ENDBRANCH  37  39
BRANCH  37  67
HETATM   67  O   UNK N   1      19.034  17.933   2.063  0.00  0.00    -0.307 OA
HETATM   68  H   UNK N   1      18.145  18.123   2.402  0.00  0.00     0.222 HD
ENDBRANCH  37  67
ENDBRANCH  36  37
ENDBRANCH   1  36
TORSDOF 31
ENDMDL
MODEL 9
REMARK VINA RESULT:      -6.1      7.180     13.198
REMARK  31 active torsions:
REMARK  status: ('A' for Active; 'I' for Inactive)
REMARK    1  A    between atoms: S_1  and  C_2 
REMARK    2  A    between atoms: S_1  and  C_52 
REMARK    3  A    between atoms: C_2  and  C_3 
REMARK    4  A    between atoms: C_3  and  N_4 
REMARK       I    between atoms: N_4  and  C_5 
REMARK    5  A    between atoms: C_5  and  C_6 
REMARK    6  A    between atoms: C_6  and  C_7 
REMARK    7  A    between atoms: C_7  and  N_8 
REMARK       I    between atoms: N_8  and  C_9 
REMARK    8  A    between atoms: C_9  and  C_10 
REMARK    9  A    between atoms: C_10  and  C_11 
REMARK   10  A    between atoms: C_10  and  O_16 
REMARK   11  A    between atoms: C_11  and  C_12 
REMARK   12  A    between atoms: C_12  and  O_13 
REMARK   13  A    between atoms: O_13  and  P_19 
REMARK   14  A    between atoms: P_19  and  O_21 
REMARK   15  A    between atoms: P_19  and  O_51 
REMARK   16  A    between atoms: C_22  and  O_28 
REMARK   17  A    between atoms: C_23  and  O_29 
REMARK   18  A    between atoms: C_24  and  C_27 
REMARK   19  A    between atoms: C_26  and  N_36 
REMARK   20  A    between atoms: C_27  and  O_47 
REMARK   21  A    between atoms: O_29  and  P_30 
REMARK   22  A    between atoms: P_30  and  O_31 
REMARK   23  A    between atoms: P_30  and  O_32 
REMARK   24  A    between atoms: C_40  and  N_46 
REMARK   25  A    between atoms: O_47  and  P_48 
REMARK   26  A    between atoms: P_48  and  O_49 
REMARK   27  A    between atoms: P_48  and  O_51 
REMARK   28  A    between atoms: C_52  and  C_53 
REMARK   29  A    between atoms: C_53  and  C_54 
REMARK   30  A    between atoms: C_54  and  C_55 
REMARK   31  A    between atoms: C_55  and  C_56 
ROOT
HETATM    1  P   UNK N   1      35.368  15.788  10.043  0.00  0.00     0.401 P 
HETATM    2  O   UNK N   1      36.888  15.542  10.242  0.00  0.00    -0.631 OA
ENDROOT
BRANCH   1   3
HETATM    3  O   UNK N   1      34.534  14.420  10.777  0.00  0.00    -0.294 OA
BRANCH   3   4
HETATM    4  C   UNK N   1      35.111  14.173  12.033  0.00  0.00     0.215 C 
BRANCH   4   5
HETATM    5  C   UNK N   1      34.612  12.845  12.615  0.00  0.00     0.180 C 
HETATM    6  C   UNK N   1      35.658  11.801  12.407  0.00  0.00     0.197 C 
HETATM    7  C   UNK N   1      35.245  10.689  13.316  0.00  0.00     0.199 C 
HETATM    8  C   UNK N   1      34.453  11.473  14.375  0.00  0.00     0.262 C 
HETATM    9  O   UNK N   1      34.420  12.856  14.017  0.00  0.00    -0.353 OA
BRANCH   6  10
HETATM   10  O   UNK N   1      35.956  11.460  11.071  0.00  0.00    -0.286 OA
BRANCH  10  11
HETATM   11  P   UNK N   1      37.672  11.622  10.758  0.00  0.00     0.391 P 
HETATM   12  O   UNK N   1      38.357  10.466  11.532  0.00  0.00    -0.632 OA
BRANCH  11  13
HETATM   13  O   UNK N   1      38.058  11.386   9.087  0.00  0.00    -0.307 OA
HETATM   14  H   UNK N   1      37.889  10.680   8.443  0.00  0.00     0.222 HD
ENDBRANCH  11  13
BRANCH  11  15
HETATM   15  O   UNK N   1      38.339  13.095  11.394  0.00  0.00    -0.307 OA
HETATM   16  H   UNK N   1      38.052  13.961  11.063  0.00  0.00     0.222 HD
ENDBRANCH  11  15
ENDBRANCH  10  11
ENDBRANCH   6  10
BRANCH   7  17
HETATM   17  O   UNK N   1      36.402  10.089  13.785  0.00  0.00    -0.388 OA
HETATM   18  H   UNK N   1      36.495   9.139  13.962  0.00  0.00     0.210 HD
ENDBRANCH   7  17
BRANCH   8  19
HETATM   19  N   UNK N   1      34.738  11.230  15.811  0.00  0.00    -0.297 N 
HETATM   20  C   UNK N   1      34.973  12.079  16.842  0.00  0.00     0.142 A 
HETATM   21  C   UNK N   1      35.240  11.365  17.957  0.00  0.00     0.122 A 
HETATM   22  N   UNK N   1      34.976  13.434  16.847  0.00  0.00    -0.336 N 
HETATM   23  N   UNK N   1      35.204  10.053  17.680  0.00  0.00    -0.346 N 
HETATM   24  C   UNK N   1      35.505  12.014  19.158  0.00  0.00     0.131 A 
HETATM   25  C   UNK N   1      34.902   9.992  16.351  0.00  0.00     0.188 A 
ATOM     26  HN  UNK N   1      35.367   9.276  18.320  1.00  0.00     0.167 HD
HETATM   27  N   UNK N   1      35.482  13.378  19.171  0.00  0.00    -0.337 N 
HETATM   28  C   UNK N   1      35.221  14.088  18.026  0.00  0.00     0.183 A 
ATOM     29  HN  UNK N   1      35.662  13.877  20.043  1.00  0.00     0.168 HD
ATOM     30  HN  UNK N   1      34.798  13.957  15.991  1.00  0.00     0.168 HD
BRANCH  24  31
HETATM   31  N   UNK N   1      35.793  11.291  20.334  0.00  0.00    -0.383 N 
HETATM   32  H   UNK N   1      36.634  11.360  20.841  0.00  0.00     0.157 HD
HETATM   33  H   UNK N   1      35.104  10.674  20.672  0.00  0.00     0.157 HD
ENDBRANCH  24  31
ENDBRANCH   8  19
ENDBRANCH   4   5
ENDBRANCH   3   4
ENDBRANCH   1   3
BRANCH   1  34
HETATM   34  O   UNK N   1      34.960  17.199  10.973  0.00  0.00    -0.307 OA
HETATM   35  H   UNK N   1      34.360  17.427  11.700  0.00  0.00     0.222 HD
ENDBRANCH   1  34
BRANCH   1  36
HETATM   36  O   UNK N   1      34.984  15.960   8.326  0.00  0.00    -0.195 OA
BRANCH  36  37
HETATM   37  P   UNK N   1      34.286  17.525   7.882  0.00  0.00     0.401 P 
HETATM   38  O   UNK N   1      35.155  18.718   8.370  0.00  0.00    -0.631 OA
BRANCH  37  39
HETATM   39  O   UNK N   1      34.012  17.772   6.161  0.00  0.00    -0.296 OA
BRANCH  39  40
HETATM   40  C   UNK N   1      33.983  16.538   5.483  0.00  0.00     0.192 C 
BRANCH  40  41
HETATM   41  C   UNK N   1      32.573  16.267   4.895  0.00  0.00     0.009 C 
HETATM   42  C   UNK N   1      31.737  15.493   5.904  0.00  0.00     0.020 C 
HETATM   43  C   UNK N   1      31.850  17.585   4.650  0.00  0.00     0.020 C 
BRANCH  41  44
HETATM   44  C   UNK N   1      32.621  15.520   3.536  0.00  0.00     0.219 C 
BRANCH  44  45
HETATM   45  C   UNK N   1      32.715  13.997   3.620  0.00  0.00     0.247 C 
HETATM   46  N   UNK N   1      31.792  13.151   3.096  0.00  0.00    -0.358 N 
HETATM   47  H   UNK N   1      32.001  12.189   3.113  0.00  0.00     0.162 HD
HETATM   48  O   UNK N   1      33.656  13.511   4.228  0.00  0.00    -0.271 OA
BRANCH  46  49
HETATM   49  C   UNK N   1      30.526  13.540   2.513  0.00  0.00     0.132 C 
BRANCH  49  50
HETATM   50  C   UNK N   1      29.506  13.843   3.614  0.00  0.00     0.122 C 
BRANCH  50  51
HETATM   51  C   UNK N   1      28.583  14.952   3.217  0.00  0.00     0.219 C 
HETATM   52  N   UNK N   1      27.275  14.676   2.997  0.00  0.00    -0.360 N 
HETATM   53  H   UNK N   1      26.972  13.739   3.013  0.00  0.00     0.162 HD
HETATM   54  O   UNK N   1      28.998  16.101   3.156  0.00  0.00    -0.274 OA
BRANCH  52  55
HETATM   55  C   UNK N   1      26.317  15.722   2.742  0.00  0.00     0.133 C 
BRANCH  55  56
HETATM   56  C   UNK N   1      25.176  15.657   3.736  0.00  0.00     0.102 C 
BRANCH  56  57
HETATM   57  S   UNK N   1      25.348  16.979   4.972  0.00  0.00    -0.091 SA
BRANCH  57  58
HETATM   58  C   UNK N   1      26.315  15.939   6.067  0.00  0.00     0.186 C 
HETATM   59  O   UNK N   1      26.220  14.725   5.996  0.00  0.00    -0.286 OA
BRANCH  58  60
HETATM   60  C   UNK N   1      27.210  16.553   7.093  0.00  0.00     0.091 C 
BRANCH  60  61
HETATM   61  C   UNK N   1      28.533  16.981   6.473  0.00  0.00     0.008 C 
BRANCH  61  62
HETATM   62  C   UNK N   1      29.246  18.003   7.345  0.00  0.00     0.000 C 
BRANCH  62  63
HETATM   63  C   UNK N   1      28.466  18.264   8.623  0.00  0.00    -0.005 C 
HETATM   64  C   UNK N   1      29.418  18.388   9.796  0.00  0.00     0.005 C 
ENDBRANCH  62  63
ENDBRANCH  61  62
ENDBRANCH  60  61
ENDBRANCH  58  60
ENDBRANCH  57  58
ENDBRANCH  56  57
ENDBRANCH  55  56
ENDBRANCH  52  55
ENDBRANCH  50  51
ENDBRANCH  49  50
ENDBRANCH  46  49
ENDBRANCH  44  45
BRANCH  44  65
HETATM   65  O   UNK N   1      33.608  16.088   2.722  0.00  0.00    -0.385 OA
HETATM   66  H   UNK N   1      34.137  16.375   1.961  0.00  0.00     0.210 HD
ENDBRANCH  44  65
ENDBRANCH  41  44
ENDBRANCH  40  41
ENDBRANCH  39  40
ENDBRANCH  37  39
BRANCH  37  67
HETATM   67  O   UNK N   1      32.753  17.730   8.658  0.00  0.00    -0.307 OA
HETATM   68  H   UNK N   1      31.859  18.106   8.665  0.00  0.00     0.222 HD
ENDBRANCH  37  67
ENDBRANCH  36  37
ENDBRANCH   1  36
TORSDOF 31
ENDMDL
