MODEL 1
REMARK VINA RESULT:      -5.6      0.000      0.000
REMARK  7 active torsions:
REMARK  status: ('A' for Active; 'I' for Inactive)
REMARK    1  A    between atoms: C_6  and  C_3 
REMARK    2  A    between atoms: C_7  and  C_3 
REMARK    3  A    between atoms: C_9  and  C_6 
REMARK    4  A    between atoms: N_11  and  C_8 
REMARK    5  A    between atoms: C_10  and  C_9 
REMARK    6  A    between atoms: C_9  and  N_12 
REMARK    7  A    between atoms: O_14  and  C_10 
ROOT
HETATM    1  C   UNK N   1      31.946  16.092   8.549  0.00  0.00     0.015 C 
ENDROOT
BRANCH   1   2
HETATM    2  C   UNK N   1      33.336  15.868   7.947  0.00  0.00     0.036 C 
BRANCH   2   3
HETATM    3  C   UNK N   1      34.442  16.742   8.541  0.00  0.00     0.173 C 
BRANCH   3   4
HETATM    4  C   UNK N   1      34.627  18.052   7.819  0.00  0.00     0.163 C 
HETATM    5  O   UNK N   1      34.360  18.129   6.631  0.00  0.00    -0.648 OA
BRANCH   4   6
HETATM    6  O   UNK N   1      35.065  19.148   8.471  0.00  0.00    -0.775 OA
HETATM    7  H   UNK N   1      35.219  19.947   8.006  0.00  0.00     0.167 HD
ENDBRANCH   4   6
ENDBRANCH   3   4
BRANCH   3   8
HETATM    8  N   UNK N   1      34.182  16.984   9.951  0.00  0.00    -0.418 N 
HETATM    9  H   UNK N   1      34.791  17.084  10.763  0.00  0.00     0.150 HD
HETATM   10  H   UNK N   1      33.190  17.070  10.174  0.00  0.00     0.150 HD
ENDBRANCH   3   8
ENDBRANCH   2   3
ENDBRANCH   1   2
BRANCH   1  11
HETATM   11  C   UNK N   1      31.268  17.275   7.860  0.00  0.00     0.030 A 
HETATM   12  C   UNK N   1      30.034  16.806   7.132  0.00  0.00    -0.020 A 
HETATM   13  C   UNK N   1      28.823  17.350   7.317  0.00  0.00    -0.002 A 
HETATM   14  C   UNK N   1      28.564  18.477   8.280  0.00  0.00     0.119 A 
HETATM   15  C   UNK N   1      29.780  18.905   9.054  0.00  0.00    -0.002 A 
HETATM   16  C   UNK N   1      30.992  18.371   8.863  0.00  0.00    -0.020 A 
BRANCH  14  17
HETATM   17  N   UNK N   1      27.529  18.072   9.212  0.00  0.00    -0.420 N 
HETATM   18  H   UNK N   1      27.553  17.548  10.087  0.00  0.00     0.150 HD
HETATM   19  H   UNK N   1      26.592  18.370   8.940  0.00  0.00     0.150 HD
ENDBRANCH  14  17
ENDBRANCH   1  11
TORSDOF 7
ENDMDL
MODEL 2
REMARK VINA RESULT:      -5.5      1.105      1.722
REMARK  7 active torsions:
REMARK  status: ('A' for Active; 'I' for Inactive)
REMARK    1  A    between atoms: C_6  and  C_3 
REMARK    2  A    between atoms: C_7  and  C_3 
REMARK    3  A    between atoms: C_9  and  C_6 
REMARK    4  A    between atoms: N_11  and  C_8 
REMARK    5  A    between atoms: C_10  and  C_9 
REMARK    6  A    between atoms: C_9  and  N_12 
REMARK    7  A    between atoms: O_14  and  C_10 
ROOT
HETATM    1  C   UNK N   1      31.784  17.709   8.570  0.00  0.00     0.015 C 
ENDROOT
BRANCH   1   2
HETATM    2  C   UNK N   1      32.751  16.524   8.665  0.00  0.00     0.036 C 
BRANCH   2   3
HETATM    3  C   UNK N   1      34.230  16.907   8.741  0.00  0.00     0.173 C 
BRANCH   3   4
HETATM    4  C   UNK N   1      34.587  18.100   7.892  0.00  0.00     0.163 C 
HETATM    5  O   UNK N   1      34.443  18.044   6.681  0.00  0.00    -0.648 OA
BRANCH   4   6
HETATM    6  O   UNK N   1      35.046  19.237   8.452  0.00  0.00    -0.775 OA
HETATM    7  H   UNK N   1      34.834  20.070   8.077  0.00  0.00     0.167 HD
ENDBRANCH   4   6
ENDBRANCH   3   4
BRANCH   3   8
HETATM    8  N   UNK N   1      34.612  17.147  10.122  0.00  0.00    -0.418 N 
HETATM    9  H   UNK N   1      34.546  17.963  10.731  0.00  0.00     0.150 HD
HETATM   10  H   UNK N   1      35.033  16.335  10.575  0.00  0.00     0.150 HD
ENDBRANCH   3   8
ENDBRANCH   2   3
ENDBRANCH   1   2
BRANCH   1  11
HETATM   11  C   UNK N   1      30.362  17.199   8.344  0.00  0.00     0.030 A 
HETATM   12  C   UNK N   1      29.395  17.987   9.189  0.00  0.00    -0.020 A 
HETATM   13  C   UNK N   1      28.314  18.602   8.687  0.00  0.00    -0.002 A 
HETATM   14  C   UNK N   1      27.960  18.581   7.223  0.00  0.00     0.119 A 
HETATM   15  C   UNK N   1      28.956  17.848   6.369  0.00  0.00    -0.002 A 
HETATM   16  C   UNK N   1      30.030  17.226   6.870  0.00  0.00    -0.020 A 
BRANCH  14  17
HETATM   17  N   UNK N   1      27.842  19.946   6.748  0.00  0.00    -0.420 N 
HETATM   18  H   UNK N   1      28.427  20.520   6.141  0.00  0.00     0.150 HD
HETATM   19  H   UNK N   1      27.009  20.428   7.087  0.00  0.00     0.150 HD
ENDBRANCH  14  17
ENDBRANCH   1  11
TORSDOF 7
ENDMDL
MODEL 3
REMARK VINA RESULT:      -5.4      2.996      5.239
REMARK  7 active torsions:
REMARK  status: ('A' for Active; 'I' for Inactive)
REMARK    1  A    between atoms: C_6  and  C_3 
REMARK    2  A    between atoms: C_7  and  C_3 
REMARK    3  A    between atoms: C_9  and  C_6 
REMARK    4  A    between atoms: N_11  and  C_8 
REMARK    5  A    between atoms: C_10  and  C_9 
REMARK    6  A    between atoms: C_9  and  N_12 
REMARK    7  A    between atoms: O_14  and  C_10 
ROOT
HETATM    1  C   UNK N   1      30.523  17.219   7.597  0.00  0.00     0.015 C 
ENDROOT
BRANCH   1   2
HETATM    2  C   UNK N   1      30.633  18.148   8.810  0.00  0.00     0.036 C 
BRANCH   2   3
HETATM    3  C   UNK N   1      29.513  17.993   9.840  0.00  0.00     0.173 C 
BRANCH   3   4
HETATM    4  C   UNK N   1      28.135  17.952   9.231  0.00  0.00     0.163 C 
HETATM    5  O   UNK N   1      27.464  16.938   9.325  0.00  0.00    -0.648 OA
BRANCH   4   6
HETATM    6  O   UNK N   1      27.625  19.027   8.598  0.00  0.00    -0.775 OA
HETATM    7  H   UNK N   1      27.661  19.090   7.664  0.00  0.00     0.167 HD
ENDBRANCH   4   6
ENDBRANCH   3   4
BRANCH   3   8
HETATM    8  N   UNK N   1      29.737  16.802  10.644  0.00  0.00    -0.418 N 
HETATM    9  H   UNK N   1      29.248  15.910  10.717  0.00  0.00     0.150 HD
HETATM   10  H   UNK N   1      30.547  16.874  11.261  0.00  0.00     0.150 HD
ENDBRANCH   3   8
ENDBRANCH   2   3
ENDBRANCH   1   2
BRANCH   1  11
HETATM   11  C   UNK N   1      31.889  16.614   7.282  0.00  0.00     0.030 A 
HETATM   12  C   UNK N   1      32.927  17.703   7.203  0.00  0.00    -0.020 A 
HETATM   13  C   UNK N   1      34.063  17.688   7.915  0.00  0.00    -0.002 A 
HETATM   14  C   UNK N   1      34.416  16.588   8.880  0.00  0.00     0.119 A 
HETATM   15  C   UNK N   1      33.354  15.531   9.009  0.00  0.00    -0.002 A 
HETATM   16  C   UNK N   1      32.225  15.539   8.291  0.00  0.00    -0.020 A 
BRANCH  14  17
HETATM   17  N   UNK N   1      34.666  17.168  10.186  0.00  0.00    -0.420 N 
HETATM   18  H   UNK N   1      35.374  16.990  10.898  0.00  0.00     0.150 HD
HETATM   19  H   UNK N   1      34.003  17.900  10.442  0.00  0.00     0.150 HD
ENDBRANCH  14  17
ENDBRANCH   1  11
TORSDOF 7
ENDMDL
MODEL 4
REMARK VINA RESULT:      -5.3      9.814     11.564
REMARK  7 active torsions:
REMARK  status: ('A' for Active; 'I' for Inactive)
REMARK    1  A    between atoms: C_6  and  C_3 
REMARK    2  A    between atoms: C_7  and  C_3 
REMARK    3  A    between atoms: C_9  and  C_6 
REMARK    4  A    between atoms: N_11  and  C_8 
REMARK    5  A    between atoms: C_10  and  C_9 
REMARK    6  A    between atoms: C_9  and  N_12 
REMARK    7  A    between atoms: O_14  and  C_10 
ROOT
HETATM    1  C   UNK N   1      20.654  14.191   9.762  0.00  0.00     0.015 C 
ENDROOT
BRANCH   1   2
HETATM    2  C   UNK N   1      20.523  14.985   8.458  0.00  0.00     0.036 C 
BRANCH   2   3
HETATM    3  C   UNK N   1      20.256  16.479   8.640  0.00  0.00     0.173 C 
BRANCH   3   4
HETATM    4  C   UNK N   1      20.631  17.308   7.439  0.00  0.00     0.163 C 
HETATM    5  O   UNK N   1      20.848  16.760   6.371  0.00  0.00    -0.648 OA
BRANCH   4   6
HETATM    6  O   UNK N   1      20.714  18.651   7.521  0.00  0.00    -0.775 OA
HETATM    7  H   UNK N   1      20.040  19.192   7.156  0.00  0.00     0.167 HD
ENDBRANCH   4   6
ENDBRANCH   3   4
BRANCH   3   8
HETATM    8  N   UNK N   1      18.859  16.698   8.978  0.00  0.00    -0.418 N 
HETATM    9  H   UNK N   1      18.213  16.221   9.607  0.00  0.00     0.150 HD
HETATM   10  H   UNK N   1      18.439  17.487   8.486  0.00  0.00     0.150 HD
ENDBRANCH   3   8
ENDBRANCH   2   3
ENDBRANCH   1   2
BRANCH   1  11
HETATM   11  C   UNK N   1      21.449  12.911   9.511  0.00  0.00     0.030 A 
HETATM   12  C   UNK N   1      22.601  13.196   8.583  0.00  0.00    -0.020 A 
HETATM   13  C   UNK N   1      23.872  12.883   8.874  0.00  0.00    -0.002 A 
HETATM   14  C   UNK N   1      24.284  12.226  10.165  0.00  0.00     0.119 A 
HETATM   15  C   UNK N   1      23.145  11.998  11.119  0.00  0.00    -0.002 A 
HETATM   16  C   UNK N   1      21.875  12.300  10.826  0.00  0.00    -0.020 A 
BRANCH  14  17
HETATM   17  N   UNK N   1      25.287  13.050  10.813  0.00  0.00    -0.420 N 
HETATM   18  H   UNK N   1      26.120  13.526  10.466  0.00  0.00     0.150 HD
HETATM   19  H   UNK N   1      25.128  13.179  11.812  0.00  0.00     0.150 HD
ENDBRANCH  14  17
ENDBRANCH   1  11
TORSDOF 7
ENDMDL
MODEL 5
REMARK VINA RESULT:      -5.2      2.793      3.717
REMARK  7 active torsions:
REMARK  status: ('A' for Active; 'I' for Inactive)
REMARK    1  A    between atoms: C_6  and  C_3 
REMARK    2  A    between atoms: C_7  and  C_3 
REMARK    3  A    between atoms: C_9  and  C_6 
REMARK    4  A    between atoms: N_11  and  C_8 
REMARK    5  A    between atoms: C_10  and  C_9 
REMARK    6  A    between atoms: C_9  and  N_12 
REMARK    7  A    between atoms: O_14  and  C_10 
ROOT
HETATM    1  C   UNK N   1      32.563  16.142   8.721  0.00  0.00     0.015 C 
ENDROOT
BRANCH   1   2
HETATM    2  C   UNK N   1      34.006  15.643   8.610  0.00  0.00     0.036 C 
BRANCH   2   3
HETATM    3  C   UNK N   1      34.684  15.337   9.946  0.00  0.00     0.173 C 
BRANCH   3   4
HETATM    4  C   UNK N   1      35.659  16.400  10.384  0.00  0.00     0.163 C 
HETATM    5  O   UNK N   1      35.377  17.577  10.229  0.00  0.00    -0.648 OA
BRANCH   4   6
HETATM    6  O   UNK N   1      36.830  16.071  10.964  0.00  0.00    -0.775 OA
HETATM    7  H   UNK N   1      37.510  15.665  10.463  0.00  0.00     0.167 HD
ENDBRANCH   4   6
ENDBRANCH   3   4
BRANCH   3   8
HETATM    8  N   UNK N   1      33.681  15.126  10.977  0.00  0.00    -0.418 N 
HETATM    9  H   UNK N   1      33.414  14.313  11.532  0.00  0.00     0.150 HD
HETATM   10  H   UNK N   1      33.133  15.960  11.189  0.00  0.00     0.150 HD
ENDBRANCH   3   8
ENDBRANCH   2   3
ENDBRANCH   1   2
BRANCH   1  11
HETATM   11  C   UNK N   1      32.344  17.310   7.760  0.00  0.00     0.030 A 
HETATM   12  C   UNK N   1      33.538  17.459   6.854  0.00  0.00    -0.020 A 
HETATM   13  C   UNK N   1      33.444  17.487   5.517  0.00  0.00    -0.002 A 
HETATM   14  C   UNK N   1      32.138  17.359   4.779  0.00  0.00     0.119 A 
HETATM   15  C   UNK N   1      30.952  17.147   5.678  0.00  0.00    -0.002 A 
HETATM   16  C   UNK N   1      31.042  17.129   7.013  0.00  0.00    -0.020 A 
BRANCH  14  17
HETATM   17  N   UNK N   1      32.230  16.251   3.848  0.00  0.00    -0.420 N 
HETATM   18  H   UNK N   1      32.134  15.242   3.962  0.00  0.00     0.150 HD
HETATM   19  H   UNK N   1      32.429  16.537   2.889  0.00  0.00     0.150 HD
ENDBRANCH  14  17
ENDBRANCH   1  11
TORSDOF 7
ENDMDL
MODEL 6
REMARK VINA RESULT:      -5.1      9.208     10.770
REMARK  7 active torsions:
REMARK  status: ('A' for Active; 'I' for Inactive)
REMARK    1  A    between atoms: C_6  and  C_3 
REMARK    2  A    between atoms: C_7  and  C_3 
REMARK    3  A    between atoms: C_9  and  C_6 
REMARK    4  A    between atoms: N_11  and  C_8 
REMARK    5  A    between atoms: C_10  and  C_9 
REMARK    6  A    between atoms: C_9  and  N_12 
REMARK    7  A    between atoms: O_14  and  C_10 
ROOT
HETATM    1  C   UNK N   1      36.621  11.283  15.792  0.00  0.00     0.015 C 
ENDROOT
BRANCH   1   2
HETATM    2  C   UNK N   1      37.006  12.537  15.002  0.00  0.00     0.036 C 
BRANCH   2   3
HETATM    3  C   UNK N   1      36.592  12.522  13.530  0.00  0.00     0.173 C 
BRANCH   3   4
HETATM    4  C   UNK N   1      35.692  13.668  13.146  0.00  0.00     0.163 C 
HETATM    5  O   UNK N   1      36.110  14.813  13.216  0.00  0.00    -0.648 OA
BRANCH   4   6
HETATM    6  O   UNK N   1      34.436  13.448  12.709  0.00  0.00    -0.775 OA
HETATM    7  H   UNK N   1      33.793  13.073  13.279  0.00  0.00     0.167 HD
ENDBRANCH   4   6
ENDBRANCH   3   4
BRANCH   3   8
HETATM    8  N   UNK N   1      37.771  12.509  12.680  0.00  0.00    -0.418 N 
HETATM    9  H   UNK N   1      38.356  13.249  12.291  0.00  0.00     0.150 HD
HETATM   10  H   UNK N   1      38.075  11.571  12.419  0.00  0.00     0.150 HD
ENDBRANCH   3   8
ENDBRANCH   2   3
ENDBRANCH   1   2
BRANCH   1  11
HETATM   11  C   UNK N   1      35.349  11.548  16.596  0.00  0.00     0.030 A 
HETATM   12  C   UNK N   1      35.269  10.592  17.758  0.00  0.00    -0.020 A 
HETATM   13  C   UNK N   1      35.103  10.993  19.027  0.00  0.00    -0.002 A 
HETATM   14  C   UNK N   1      34.993  12.441  19.426  0.00  0.00     0.119 A 
HETATM   15  C   UNK N   1      35.135  13.399  18.277  0.00  0.00    -0.002 A 
HETATM   16  C   UNK N   1      35.290  13.000  17.009  0.00  0.00    -0.020 A 
BRANCH  14  17
HETATM   17  N   UNK N   1      36.011  12.735  20.416  0.00  0.00    -0.420 N 
HETATM   18  H   UNK N   1      36.682  12.149  20.914  0.00  0.00     0.150 HD
HETATM   19  H   UNK N   1      36.068  13.723  20.665  0.00  0.00     0.150 HD
ENDBRANCH  14  17
ENDBRANCH   1  11
TORSDOF 7
ENDMDL
MODEL 7
REMARK VINA RESULT:      -5.0     13.953     14.909
REMARK  7 active torsions:
REMARK  status: ('A' for Active; 'I' for Inactive)
REMARK    1  A    between atoms: C_6  and  C_3 
REMARK    2  A    between atoms: C_7  and  C_3 
REMARK    3  A    between atoms: C_9  and  C_6 
REMARK    4  A    between atoms: N_11  and  C_8 
REMARK    5  A    between atoms: C_10  and  C_9 
REMARK    6  A    between atoms: C_9  and  N_12 
REMARK    7  A    between atoms: O_14  and  C_10 
ROOT
HETATM    1  C   UNK N   1      27.882  23.924  -4.798  0.00  0.00     0.015 C 
ENDROOT
BRANCH   1   2
HETATM    2  C   UNK N   1      28.711  23.785  -3.518  0.00  0.00     0.036 C 
BRANCH   2   3
HETATM    3  C   UNK N   1      30.084  23.139  -3.708  0.00  0.00     0.173 C 
BRANCH   3   4
HETATM    4  C   UNK N   1      30.744  22.736  -2.415  0.00  0.00     0.163 C 
HETATM    5  O   UNK N   1      30.243  23.068  -1.353  0.00  0.00    -0.648 OA
BRANCH   4   6
HETATM    6  O   UNK N   1      31.871  21.997  -2.412  0.00  0.00    -0.775 OA
HETATM    7  H   UNK N   1      31.844  21.089  -2.642  0.00  0.00     0.167 HD
ENDBRANCH   4   6
ENDBRANCH   3   4
BRANCH   3   8
HETATM    8  N   UNK N   1      29.976  21.990  -4.591  0.00  0.00    -0.418 N 
HETATM    9  H   UNK N   1      29.877  20.989  -4.420  0.00  0.00     0.150 HD
HETATM   10  H   UNK N   1      30.006  22.232  -5.581  0.00  0.00     0.150 HD
ENDBRANCH   3   8
ENDBRANCH   2   3
ENDBRANCH   1   2
BRANCH   1  11
HETATM   11  C   UNK N   1      26.527  24.549  -4.473  0.00  0.00     0.030 A 
HETATM   12  C   UNK N   1      26.681  25.561  -3.367  0.00  0.00    -0.020 A 
HETATM   13  C   UNK N   1      26.255  26.828  -3.467  0.00  0.00    -0.002 A 
HETATM   14  C   UNK N   1      25.589  27.378  -4.701  0.00  0.00     0.119 A 
HETATM   15  C   UNK N   1      25.490  26.389  -5.829  0.00  0.00    -0.002 A 
HETATM   16  C   UNK N   1      25.906  25.121  -5.726  0.00  0.00    -0.020 A 
BRANCH  14  17
HETATM   17  N   UNK N   1      26.327  28.541  -5.155  0.00  0.00    -0.420 N 
HETATM   18  H   UNK N   1      26.658  29.380  -4.677  0.00  0.00     0.150 HD
HETATM   19  H   UNK N   1      26.562  28.516  -6.147  0.00  0.00     0.150 HD
ENDBRANCH  14  17
ENDBRANCH   1  11
TORSDOF 7
ENDMDL
MODEL 8
REMARK VINA RESULT:      -4.9      6.272      8.253
REMARK  7 active torsions:
REMARK  status: ('A' for Active; 'I' for Inactive)
REMARK    1  A    between atoms: C_6  and  C_3 
REMARK    2  A    between atoms: C_7  and  C_3 
REMARK    3  A    between atoms: C_9  and  C_6 
REMARK    4  A    between atoms: N_11  and  C_8 
REMARK    5  A    between atoms: C_10  and  C_9 
REMARK    6  A    between atoms: C_9  and  N_12 
REMARK    7  A    between atoms: O_14  and  C_10 
ROOT
HETATM    1  C   UNK N   1      35.010  12.896  12.160  0.00  0.00     0.015 C 
ENDROOT
BRANCH   1   2
HETATM    2  C   UNK N   1      35.678  14.253  12.397  0.00  0.00     0.036 C 
BRANCH   2   3
HETATM    3  C   UNK N   1      34.974  15.440  11.738  0.00  0.00     0.173 C 
BRANCH   3   4
HETATM    4  C   UNK N   1      35.887  16.284  10.886  0.00  0.00     0.163 C 
HETATM    5  O   UNK N   1      35.453  17.291  10.351  0.00  0.00    -0.648 OA
BRANCH   4   6
HETATM    6  O   UNK N   1      37.183  15.953  10.720  0.00  0.00    -0.775 OA
HETATM    7  H   UNK N   1      37.454  15.057  10.764  0.00  0.00     0.167 HD
ENDBRANCH   4   6
ENDBRANCH   3   4
BRANCH   3   8
HETATM    8  N   UNK N   1      33.846  14.974  10.948  0.00  0.00    -0.418 N 
HETATM    9  H   UNK N   1      33.777  14.437  10.084  0.00  0.00     0.150 HD
HETATM   10  H   UNK N   1      32.940  15.239  11.336  0.00  0.00     0.150 HD
ENDBRANCH   3   8
ENDBRANCH   2   3
ENDBRANCH   1   2
BRANCH   1  11
HETATM   11  C   UNK N   1      35.497  11.890  13.201  0.00  0.00     0.030 A 
HETATM   12  C   UNK N   1      36.573  12.513  14.052  0.00  0.00    -0.020 A 
HETATM   13  C   UNK N   1      36.522  12.544  15.391  0.00  0.00    -0.002 A 
HETATM   14  C   UNK N   1      35.378  11.972  16.186  0.00  0.00     0.119 A 
HETATM   15  C   UNK N   1      34.274  11.406  15.338  0.00  0.00    -0.002 A 
HETATM   16  C   UNK N   1      34.328  11.365  14.001  0.00  0.00    -0.020 A 
BRANCH  14  17
HETATM   17  N   UNK N   1      34.834  13.010  17.041  0.00  0.00    -0.420 N 
HETATM   18  H   UNK N   1      34.571  13.027  18.027  0.00  0.00     0.150 HD
HETATM   19  H   UNK N   1      34.686  13.899  16.563  0.00  0.00     0.150 HD
ENDBRANCH  14  17
ENDBRANCH   1  11
TORSDOF 7
ENDMDL
MODEL 9
REMARK VINA RESULT:      -4.8     10.624     11.351
REMARK  7 active torsions:
REMARK  status: ('A' for Active; 'I' for Inactive)
REMARK    1  A    between atoms: C_6  and  C_3 
REMARK    2  A    between atoms: C_7  and  C_3 
REMARK    3  A    between atoms: C_9  and  C_6 
REMARK    4  A    between atoms: N_11  and  C_8 
REMARK    5  A    between atoms: C_10  and  C_9 
REMARK    6  A    between atoms: C_9  and  N_12 
REMARK    7  A    between atoms: O_14  and  C_10 
ROOT
HETATM    1  C   UNK N   1      21.482  13.469   9.174  0.00  0.00     0.015 C 
ENDROOT
BRANCH   1   2
HETATM    2  C   UNK N   1      22.701  13.171  10.051  0.00  0.00     0.036 C 
BRANCH   2   3
HETATM    3  C   UNK N   1      22.529  11.991  11.009  0.00  0.00     0.173 C 
BRANCH   3   4
HETATM    4  C   UNK N   1      23.523  11.986  12.142  0.00  0.00     0.163 C 
HETATM    5  O   UNK N   1      23.138  11.785  13.282  0.00  0.00    -0.648 OA
BRANCH   4   6
HETATM    6  O   UNK N   1      24.837  12.180  11.913  0.00  0.00    -0.775 OA
HETATM    7  H   UNK N   1      25.378  12.586  12.562  0.00  0.00     0.167 HD
ENDBRANCH   4   6
ENDBRANCH   3   4
BRANCH   3   8
HETATM    8  N   UNK N   1      21.175  11.970  11.536  0.00  0.00    -0.418 N 
HETATM    9  H   UNK N   1      20.796  11.869  12.478  0.00  0.00     0.150 HD
HETATM   10  H   UNK N   1      20.457  12.077  10.819  0.00  0.00     0.150 HD
ENDBRANCH   3   8
ENDBRANCH   2   3
ENDBRANCH   1   2
BRANCH   1  11
HETATM   11  C   UNK N   1      21.503  14.934   8.740  0.00  0.00     0.030 A 
HETATM   12  C   UNK N   1      22.006  15.042   7.323  0.00  0.00    -0.020 A 
HETATM   13  C   UNK N   1      21.333  15.677   6.353  0.00  0.00    -0.002 A 
HETATM   14  C   UNK N   1      19.998  16.338   6.572  0.00  0.00     0.119 A 
HETATM   15  C   UNK N   1      19.464  16.178   7.968  0.00  0.00    -0.002 A 
HETATM   16  C   UNK N   1      20.139  15.553   8.941  0.00  0.00    -0.020 A 
BRANCH  14  17
HETATM   17  N   UNK N   1      19.040  15.786   5.633  0.00  0.00    -0.420 N 
HETATM   18  H   UNK N   1      18.411  16.216   4.954  0.00  0.00     0.150 HD
HETATM   19  H   UNK N   1      18.984  14.768   5.655  0.00  0.00     0.150 HD
ENDBRANCH  14  17
ENDBRANCH   1  11
TORSDOF 7
ENDMDL
