REMARK  15 active torsions:
REMARK  status: ('A' for Active; 'I' for Inactive)
REMARK    1  A    between atoms: C_7  and  C_3 
REMARK    2  A    between atoms: O_32  and  C_3 
REMARK    3  A    between atoms: C_16  and  C_4 
REMARK    4  A    between atoms: O_25  and  C_4 
REMARK    5  A    between atoms: C_9  and  O_26 
REMARK    6  A    between atoms: C_10  and  O_27 
REMARK    7  A    between atoms: C_15  and  C_11 
REMARK    8  A    between atoms: C_16  and  C_11 
REMARK    9  A    between atoms: C_11  and  O_28 
REMARK   10  A    between atoms: N_17  and  C_12 
REMARK   11  A    between atoms: C_14  and  N_24 
REMARK   12  A    between atoms: O_34  and  C_15 
REMARK   13  A    between atoms: P_35  and  O_30 
REMARK   14  A    between atoms: P_35  and  O_32 
REMARK   15  A    between atoms: P_35  and  O_34 
ROOT
HETATM    1  C   UNK N   1       0.872  -2.186   0.072  0.00  0.00     0.180 C 
HETATM    2  C   UNK N   1       2.378  -2.422  -0.018  0.00  0.00     0.182 C 
HETATM    3  C   UNK N   1       2.860  -1.041  -0.368  0.00  0.00     0.198 C 
HETATM    4  C   UNK N   1       1.981  -0.271   0.615  0.00  0.00     0.262 C 
HETATM    5  O   UNK N   1       0.701  -0.872   0.583  0.00  0.00    -0.353 OA
ENDROOT
BRANCH   1   6
HETATM    6  C   UNK N   1       0.144  -2.318  -1.282  0.00  0.00     0.215 C 
BRANCH   6   7
HETATM    7  O   UNK N   1      -1.018  -1.525  -1.378  0.00  0.00    -0.294 OA
BRANCH   7   8
HETATM    8  P   UNK N   1      -2.236  -2.081  -0.243  0.00  0.00     0.400 P 
HETATM    9  O   UNK N   1      -2.426  -3.613  -0.407  0.00  0.00    -0.631 OA
BRANCH   8  10
HETATM   10  O   UNK N   1      -1.728  -1.738   1.379  0.00  0.00    -0.307 OA
HETATM   11  H   UNK N   1      -1.420  -1.888   2.287  0.00  0.00     0.222 HD
ENDBRANCH   8  10
BRANCH   8  12
HETATM   12  O   UNK N   1      -3.682  -1.177  -0.533  0.00  0.00    -0.218 OA
BRANCH  12  13
HETATM   13  C   UNK N   1      -4.974  -1.489  -0.833  0.00  0.00     0.297 C 
HETATM   14  O   UNK N   1      -5.630  -0.619  -1.380  0.00  0.00    -0.262 OA
BRANCH  13  15
HETATM   15  C   UNK N   1      -5.679  -2.815  -0.532  0.00  0.00     0.228 C 
BRANCH  15  16
HETATM   16  C   UNK N   1      -7.009  -2.624   0.261  0.00  0.00     0.009 C 
HETATM   17  C   UNK N   1      -6.725  -2.023   1.633  0.00  0.00     0.020 C 
HETATM   18  C   UNK N   1      -7.682  -3.977   0.461  0.00  0.00     0.020 C 
BRANCH  16  19
HETATM   19  C   UNK N   1      -7.988  -1.723  -0.505  0.00  0.00     0.175 C 
BRANCH  19  20
HETATM   20  O   UNK N   1      -9.165  -1.500   0.215  0.00  0.00    -0.400 OA
HETATM   21  H   UNK N   1      -9.439  -0.715   0.716  0.00  0.00     0.209 HD
ENDBRANCH  19  20
ENDBRANCH  16  19
ENDBRANCH  15  16
BRANCH  15  22
HETATM   22  O   UNK N   1      -4.861  -3.697   0.171  0.00  0.00    -0.385 OA
HETATM   23  H   UNK N   1      -5.109  -4.497   0.661  0.00  0.00     0.210 HD
ENDBRANCH  15  22
ENDBRANCH  13  15
ENDBRANCH  12  13
ENDBRANCH   8  12
ENDBRANCH   7   8
ENDBRANCH   6   7
ENDBRANCH   1   6
BRANCH   2  24
HETATM   24  O   UNK N   1       2.752  -3.411  -0.932  0.00  0.00    -0.390 OA
HETATM   25  H   UNK N   1       2.287  -3.979  -1.566  0.00  0.00     0.210 HD
ENDBRANCH   2  24
BRANCH   3  26
HETATM   26  O   UNK N   1       2.522  -0.717  -1.688  0.00  0.00    -0.388 OA
HETATM   27  H   UNK N   1       2.599  -0.402  -2.602  0.00  0.00     0.210 HD
ENDBRANCH   3  26
BRANCH   4  28
HETATM   28  N   UNK N   1       1.897   1.162   0.327  0.00  0.00    -0.297 N 
HETATM   29  C   UNK N   1       0.775   1.882   0.066  0.00  0.00     0.188 A 
HETATM   30  N   UNK N   1       1.060   3.206  -0.096  0.00  0.00    -0.346 N 
HETATM   31  C   UNK N   1       2.392   3.280   0.074  0.00  0.00     0.122 A 
ATOM     32  HN  UNK N   1       0.411   3.966  -0.301  1.00  0.00     0.167 HD
HETATM   33  C   UNK N   1       3.234   4.380   0.044  0.00  0.00     0.131 A 
HETATM   34  C   UNK N   1       2.894   2.055   0.323  0.00  0.00     0.142 A 
HETATM   35  N   UNK N   1       4.567   4.172   0.262  0.00  0.00    -0.337 N 
HETATM   36  C   UNK N   1       5.055   2.910   0.507  0.00  0.00     0.183 A 
ATOM     37  HN  UNK N   1       5.209   4.964   0.242  1.00  0.00     0.168 HD
HETATM   38  N   UNK N   1       4.210   1.834   0.545  0.00  0.00    -0.336 N 
ATOM     39  HN  UNK N   1       4.561   0.895   0.736  1.00  0.00     0.168 HD
BRANCH  33  40
HETATM   40  N   UNK N   1       2.737   5.678  -0.191  0.00  0.00    -0.383 N 
HETATM   41  H   UNK N   1       3.348   6.432  -0.355  0.00  0.00     0.157 HD
HETATM   42  H   UNK N   1       1.765   5.832  -0.191  0.00  0.00     0.157 HD
ENDBRANCH  33  40
ENDBRANCH   4  28
TORSDOF 15
