REMARK  5 active torsions:
REMARK  status: ('A' for Active; 'I' for Inactive)
REMARK    1  A    between atoms: C_14  and  C_4 
REMARK    2  A    between atoms: C_11  and  C_9 
REMARK    3  A    between atoms: N_19  and  C_9 
REMARK    4  A    between atoms: C_14  and  C_13 
REMARK    5  A    between atoms: C_13  and  O_21 
ROOT
HETATM    1  C   UNK N   1       0.322   3.987  -1.264  0.00  0.00     0.124 C 
HETATM    2  N   UNK N   1       1.533   4.443  -1.170  0.00  0.00    -0.365 N 
ATOM      3  HN  UNK N   1       2.029   4.604  -2.046  1.00  0.00     0.162 HD
ENDROOT
BRANCH   1   4
HETATM    4  C   UNK N   1      -0.545   3.640  -0.055  0.00  0.00     0.066 A 
HETATM    5  C   UNK N   1      -0.009   2.418   0.726  0.00  0.00     0.041 A 
HETATM    6  C   UNK N   1       1.006   1.486   0.070  0.00  0.00     0.014 C 
HETATM    7  C   UNK N   1      -1.358   2.336   0.010  0.00  0.00     0.133 A 
HETATM    8 Cl   UNK N   1      -1.527   1.445  -1.540  0.00  0.00    -0.100 Cl
HETATM    9 Cl   UNK N   1      -2.816   2.414   1.048  0.00  0.00    -0.100 Cl
BRANCH   4  10
HETATM   10  C   UNK N   1      -0.888   4.762   0.924  0.00  0.00     0.017 C 
HETATM   11  C   UNK N   1      -1.812   5.779   0.283  0.00  0.00     0.006 C 
ENDBRANCH   4  10
ENDBRANCH   1   4
BRANCH   1  12
HETATM   12  O   UNK N   1      -0.215   3.868  -2.492  0.00  0.00    -0.349 OA
HETATM   13  H   UNK N   1      -0.474   4.151  -3.347  0.00  0.00     0.219 HD
ENDBRANCH   1  12
BRANCH   2  14
HETATM   14  C   UNK N   1       2.256   4.749   0.051  0.00  0.00     0.112 C 
HETATM   15  C   UNK N   1       3.721   4.391  -0.134  0.00  0.00     0.037 C 
BRANCH  14  16
HETATM   16  C   UNK N   1       2.104   6.222   0.309  0.00  0.00    -0.036 A 
HETATM   17  C   UNK N   1       2.474   7.152  -0.676  0.00  0.00     0.011 A 
HETATM   18  C   UNK N   1       2.227   8.513  -0.487  0.00  0.00     0.024 A 
HETATM   19  C   UNK N   1       1.607   8.954   0.684  0.00  0.00     0.034 A 
HETATM   20  C   UNK N   1       1.255   8.037   1.678  0.00  0.00     0.024 A 
HETATM   21 Cl   UNK N   1       1.249  10.653   0.894  0.00  0.00    -0.084 Cl
HETATM   22  C   UNK N   1       1.503   6.675   1.492  0.00  0.00     0.011 A 
ENDBRANCH  14  16
ENDBRANCH   2  14
TORSDOF 5
