MODEL 1
REMARK VINA RESULT:      -6.8      0.000      0.000
REMARK  10 active torsions:
REMARK  status: ('A' for Active; 'I' for Inactive)
REMARK    1  A    between atoms: P_1  and  O_5 
REMARK    2  A    between atoms: P_1  and  O_8 
REMARK    3  A    between atoms: P_1  and  O_9 
REMARK    4  A    between atoms: C_15  and  O_3 
REMARK    5  A    between atoms: C_16  and  O_4 
REMARK    6  A    between atoms: O_5  and  C_19 
REMARK    7  A    between atoms: O_7  and  C_24 
REMARK    8  A    between atoms: C_17  and  N_13 
REMARK    9  A    between atoms: C_18  and  C_19 
REMARK   10  A    between atoms: C_20  and  C_24 
ROOT
HETATM    1  O   UNK N   1      21.446  17.237   5.209  0.00  0.00    -0.353 OA
HETATM    2  C   UNK N   1      19.492  16.134   4.584  0.00  0.00     0.198 C 
HETATM    3  C   UNK N   1      19.873  17.179   3.537  0.00  0.00     0.182 C 
HETATM    4  C   UNK N   1      20.340  16.626   5.792  0.00  0.00     0.265 C 
HETATM    5  C   UNK N   1      20.756  18.083   4.353  0.00  0.00     0.180 C 
ENDROOT
BRANCH   4   6
HETATM    6  N   UNK N   1      20.729  15.759   6.948  0.00  0.00    -0.263 N 
HETATM    7  C   UNK N   1      20.087  15.926   8.175  0.00  0.00     0.120 A 
HETATM    8  C   UNK N   1      20.501  15.185   9.286  0.00  0.00     0.111 A 
HETATM    9  C   UNK N   1      21.515  14.262   9.163  0.00  0.00     0.251 A 
HETATM   10  O   UNK N   1      21.879  13.622  10.132  0.00  0.00    -0.268 OA
HETATM   11  N   UNK N   1      22.092  14.055   7.950  0.00  0.00    -0.275 N 
HETATM   12  C   UNK N   1      21.718  14.777   6.848  0.00  0.00     0.332 A 
HETATM   13  H   UNK N   1      22.795  13.372   7.862  0.00  0.00     0.173 HD
HETATM   14  O   UNK N   1      22.249  14.519   5.788  0.00  0.00    -0.246 OA
BRANCH   7  15
HETATM   15  C   UNK N   1      18.928  16.849   8.417  0.00  0.00     0.194 C 
HETATM   16  O   UNK N   1      17.773  16.474   8.310  0.00  0.00    -0.645 OA
BRANCH  15  17
HETATM   17  O   UNK N   1      19.160  18.104   8.853  0.00  0.00    -0.772 OA
HETATM   18  H   UNK N   1      18.484  18.753   8.828  0.00  0.00     0.167 HD
ENDBRANCH  15  17
ENDBRANCH   7  15
ENDBRANCH   4   6
BRANCH   2  19
HETATM   19  O   UNK N   1      19.961  14.923   4.075  0.00  0.00    -0.388 OA
HETATM   20  H   UNK N   1      19.701  14.178   3.509  0.00  0.00     0.210 HD
ENDBRANCH   2  19
BRANCH   5  21
HETATM   21  C   UNK N   1      21.667  19.066   3.658  0.00  0.00     0.215 C 
BRANCH  21  22
HETATM   22  O   UNK N   1      21.408  18.921   2.287  0.00  0.00    -0.294 OA
BRANCH  22  23
HETATM   23  P   UNK N   1      20.800  20.436   1.690  0.00  0.00     0.390 P 
HETATM   24  O   UNK N   1      22.320  20.721   1.532  0.00  0.00    -0.632 OA
BRANCH  23  25
HETATM   25  O   UNK N   1      20.898  20.861   0.009  0.00  0.00    -0.307 OA
HETATM   26  H   UNK N   1      20.765  20.326  -0.788  0.00  0.00     0.222 HD
ENDBRANCH  23  25
BRANCH  23  27
HETATM   27  O   UNK N   1      20.412  19.109   0.637  0.00  0.00    -0.307 OA
HETATM   28  H   UNK N   1      20.751  19.060  -0.270  0.00  0.00     0.222 HD
ENDBRANCH  23  27
ENDBRANCH  22  23
ENDBRANCH  21  22
ENDBRANCH   5  21
BRANCH   3  29
HETATM   29  O   UNK N   1      18.759  17.869   3.061  0.00  0.00    -0.390 OA
HETATM   30  H   UNK N   1      18.270  17.917   2.225  0.00  0.00     0.210 HD
ENDBRANCH   3  29
TORSDOF 10
ENDMDL
MODEL 2
REMARK VINA RESULT:      -6.5     11.968     14.208
REMARK  10 active torsions:
REMARK  status: ('A' for Active; 'I' for Inactive)
REMARK    1  A    between atoms: P_1  and  O_5 
REMARK    2  A    between atoms: P_1  and  O_8 
REMARK    3  A    between atoms: P_1  and  O_9 
REMARK    4  A    between atoms: C_15  and  O_3 
REMARK    5  A    between atoms: C_16  and  O_4 
REMARK    6  A    between atoms: O_5  and  C_19 
REMARK    7  A    between atoms: O_7  and  C_24 
REMARK    8  A    between atoms: C_17  and  N_13 
REMARK    9  A    between atoms: C_18  and  C_19 
REMARK   10  A    between atoms: C_20  and  C_24 
ROOT
HETATM    1  O   UNK N   1      33.146  15.733   8.226  0.00  0.00    -0.353 OA
HETATM    2  C   UNK N   1      33.903  17.930   8.384  0.00  0.00     0.198 C 
HETATM    3  C   UNK N   1      34.901  16.974   9.035  0.00  0.00     0.182 C 
HETATM    4  C   UNK N   1      32.639  17.024   8.334  0.00  0.00     0.265 C 
HETATM    5  C   UNK N   1      34.015  15.788   9.305  0.00  0.00     0.180 C 
ENDROOT
BRANCH   4   6
HETATM    6  N   UNK N   1      31.487  17.250   7.406  0.00  0.00    -0.263 N 
HETATM    7  C   UNK N   1      30.247  17.612   7.931  0.00  0.00     0.120 A 
HETATM    8  C   UNK N   1      29.141  17.739   7.085  0.00  0.00     0.111 A 
HETATM    9  C   UNK N   1      29.282  17.544   5.729  0.00  0.00     0.251 A 
HETATM   10  O   UNK N   1      28.317  17.647   4.994  0.00  0.00    -0.268 OA
HETATM   11  N   UNK N   1      30.506  17.255   5.215  0.00  0.00    -0.275 N 
HETATM   12  C   UNK N   1      31.603  17.110   6.021  0.00  0.00     0.332 A 
HETATM   13  H   UNK N   1      30.606  17.148   4.242  0.00  0.00     0.173 HD
HETATM   14  O   UNK N   1      32.674  16.887   5.495  0.00  0.00    -0.246 OA
BRANCH   7  15
HETATM   15  C   UNK N   1      29.983  17.916   9.377  0.00  0.00     0.194 C 
HETATM   16  O   UNK N   1      29.950  19.060   9.799  0.00  0.00    -0.645 OA
BRANCH  15  17
HETATM   17  O   UNK N   1      29.686  16.909  10.223  0.00  0.00    -0.772 OA
HETATM   18  H   UNK N   1      28.800  16.628  10.341  0.00  0.00     0.167 HD
ENDBRANCH  15  17
ENDBRANCH   7  15
ENDBRANCH   4   6
BRANCH   2  19
HETATM   19  O   UNK N   1      34.417  18.181   7.112  0.00  0.00    -0.388 OA
HETATM   20  H   UNK N   1      35.073  18.722   6.645  0.00  0.00     0.210 HD
ENDBRANCH   2  19
BRANCH   5  21
HETATM   21  C   UNK N   1      34.636  14.447   9.614  0.00  0.00     0.215 C 
BRANCH  21  22
HETATM   22  O   UNK N   1      35.802  14.725  10.341  0.00  0.00    -0.294 OA
BRANCH  22  23
HETATM   23  P   UNK N   1      35.622  14.044  11.931  0.00  0.00     0.390 P 
HETATM   24  O   UNK N   1      36.515  12.935  11.307  0.00  0.00    -0.632 OA
BRANCH  23  25
HETATM   25  O   UNK N   1      36.942  13.991  13.057  0.00  0.00    -0.307 OA
HETATM   26  H   UNK N   1      36.978  14.206  14.002  0.00  0.00     0.222 HD
ENDBRANCH  23  25
BRANCH  23  27
HETATM   27  O   UNK N   1      36.554  15.511  11.943  0.00  0.00    -0.307 OA
HETATM   28  H   UNK N   1      37.504  15.511  12.138  0.00  0.00     0.222 HD
ENDBRANCH  23  27
ENDBRANCH  22  23
ENDBRANCH  21  22
ENDBRANCH   5  21
BRANCH   3  29
HETATM   29  O   UNK N   1      35.418  17.490  10.223  0.00  0.00    -0.390 OA
HETATM   30  H   UNK N   1      36.293  17.556  10.635  0.00  0.00     0.210 HD
ENDBRANCH   3  29
TORSDOF 10
ENDMDL
MODEL 3
REMARK VINA RESULT:      -6.3     11.471     13.105
REMARK  10 active torsions:
REMARK  status: ('A' for Active; 'I' for Inactive)
REMARK    1  A    between atoms: P_1  and  O_5 
REMARK    2  A    between atoms: P_1  and  O_8 
REMARK    3  A    between atoms: P_1  and  O_9 
REMARK    4  A    between atoms: C_15  and  O_3 
REMARK    5  A    between atoms: C_16  and  O_4 
REMARK    6  A    between atoms: O_5  and  C_19 
REMARK    7  A    between atoms: O_7  and  C_24 
REMARK    8  A    between atoms: C_17  and  N_13 
REMARK    9  A    between atoms: C_18  and  C_19 
REMARK   10  A    between atoms: C_20  and  C_24 
ROOT
HETATM    1  O   UNK N   1      32.080  16.947   7.942  0.00  0.00    -0.353 OA
HETATM    2  C   UNK N   1      33.702  16.481   6.337  0.00  0.00     0.198 C 
HETATM    3  C   UNK N   1      32.427  16.997   5.672  0.00  0.00     0.182 C 
HETATM    4  C   UNK N   1      33.147  16.079   7.734  0.00  0.00     0.265 C 
HETATM    5  C   UNK N   1      31.415  16.708   6.748  0.00  0.00     0.180 C 
ENDROOT
BRANCH   4   6
HETATM    6  N   UNK N   1      33.994  15.934   8.959  0.00  0.00    -0.263 N 
HETATM    7  C   UNK N   1      34.155  14.675   9.535  0.00  0.00     0.120 A 
HETATM    8  C   UNK N   1      34.869  14.539  10.728  0.00  0.00     0.111 A 
HETATM    9  C   UNK N   1      35.448  15.641  11.317  0.00  0.00     0.251 A 
HETATM   10  O   UNK N   1      36.064  15.523  12.360  0.00  0.00    -0.268 OA
HETATM   11  N   UNK N   1      35.345  16.856  10.717  0.00  0.00    -0.275 N 
HETATM   12  C   UNK N   1      34.638  17.021   9.556  0.00  0.00     0.332 A 
HETATM   13  H   UNK N   1      35.787  17.634  11.126  0.00  0.00     0.173 HD
HETATM   14  O   UNK N   1      34.614  18.125   9.053  0.00  0.00    -0.246 OA
BRANCH   7  15
HETATM   15  C   UNK N   1      33.630  13.393   8.954  0.00  0.00     0.194 C 
HETATM   16  O   UNK N   1      34.337  12.647   8.298  0.00  0.00    -0.645 OA
BRANCH  15  17
HETATM   17  O   UNK N   1      32.370  13.005   9.234  0.00  0.00    -0.772 OA
HETATM   18  H   UNK N   1      31.642  13.564   9.044  0.00  0.00     0.167 HD
ENDBRANCH  15  17
ENDBRANCH   7  15
ENDBRANCH   4   6
BRANCH   2  19
HETATM   19  O   UNK N   1      34.547  17.589   6.409  0.00  0.00    -0.388 OA
HETATM   20  H   UNK N   1      35.373  17.897   6.815  0.00  0.00     0.210 HD
ENDBRANCH   2  19
BRANCH   5  21
HETATM   21  C   UNK N   1      30.061  17.374   6.699  0.00  0.00     0.215 C 
BRANCH  21  22
HETATM   22  O   UNK N   1      29.989  18.175   7.847  0.00  0.00    -0.294 OA
BRANCH  22  23
HETATM   23  P   UNK N   1      28.326  18.620   8.090  0.00  0.00     0.390 P 
HETATM   24  O   UNK N   1      28.109  17.135   7.683  0.00  0.00    -0.632 OA
BRANCH  23  25
HETATM   25  O   UNK N   1      27.409  18.023   9.439  0.00  0.00    -0.307 OA
HETATM   26  H   UNK N   1      26.451  17.931   9.562  0.00  0.00     0.222 HD
ENDBRANCH  23  25
BRANCH  23  27
HETATM   27  O   UNK N   1      29.233  18.620   9.573  0.00  0.00    -0.307 OA
HETATM   28  H   UNK N   1      30.141  18.283   9.617  0.00  0.00     0.222 HD
ENDBRANCH  23  27
ENDBRANCH  22  23
ENDBRANCH  21  22
ENDBRANCH   5  21
BRANCH   3  29
HETATM   29  O   UNK N   1      32.127  16.295   4.505  0.00  0.00    -0.390 OA
HETATM   30  H   UNK N   1      32.098  16.493   3.557  0.00  0.00     0.210 HD
ENDBRANCH   3  29
TORSDOF 10
ENDMDL
MODEL 4
REMARK VINA RESULT:      -6.2     14.720     16.223
REMARK  10 active torsions:
REMARK  status: ('A' for Active; 'I' for Inactive)
REMARK    1  A    between atoms: P_1  and  O_5 
REMARK    2  A    between atoms: P_1  and  O_8 
REMARK    3  A    between atoms: P_1  and  O_9 
REMARK    4  A    between atoms: C_15  and  O_3 
REMARK    5  A    between atoms: C_16  and  O_4 
REMARK    6  A    between atoms: O_5  and  C_19 
REMARK    7  A    between atoms: O_7  and  C_24 
REMARK    8  A    between atoms: C_17  and  N_13 
REMARK    9  A    between atoms: C_18  and  C_19 
REMARK   10  A    between atoms: C_20  and  C_24 
ROOT
HETATM    1  O   UNK N   1      35.049  14.647  11.824  0.00  0.00    -0.353 OA
HETATM    2  C   UNK N   1      36.696  13.339  10.822  0.00  0.00     0.198 C 
HETATM    3  C   UNK N   1      36.586  14.691  10.118  0.00  0.00     0.182 C 
HETATM    4  C   UNK N   1      35.338  13.308  11.581  0.00  0.00     0.265 C 
HETATM    5  C   UNK N   1      35.198  15.104  10.523  0.00  0.00     0.180 C 
ENDROOT
BRANCH   4   6
HETATM    6  N   UNK N   1      35.072  12.454  12.781  0.00  0.00    -0.263 N 
HETATM    7  C   UNK N   1      34.504  11.192  12.611  0.00  0.00     0.120 A 
HETATM    8  C   UNK N   1      34.168  10.421  13.727  0.00  0.00     0.111 A 
HETATM    9  C   UNK N   1      34.432  10.889  14.995  0.00  0.00     0.251 A 
HETATM   10  O   UNK N   1      34.133  10.220  15.967  0.00  0.00    -0.268 OA
HETATM   11  N   UNK N   1      35.045  12.091  15.154  0.00  0.00    -0.275 N 
HETATM   12  C   UNK N   1      35.372  12.874  14.079  0.00  0.00     0.332 A 
HETATM   13  H   UNK N   1      35.259  12.405  16.062  0.00  0.00     0.173 HD
HETATM   14  O   UNK N   1      35.950  13.920  14.288  0.00  0.00    -0.246 OA
BRANCH   7  15
HETATM   15  C   UNK N   1      34.232  10.547  11.282  0.00  0.00     0.194 C 
HETATM   16  O   UNK N   1      35.078   9.889  10.700  0.00  0.00    -0.645 OA
BRANCH  15  17
HETATM   17  O   UNK N   1      32.993  10.616  10.753  0.00  0.00    -0.772 OA
HETATM   18  H   UNK N   1      32.869  10.639   9.824  0.00  0.00     0.167 HD
ENDBRANCH  15  17
ENDBRANCH   7  15
ENDBRANCH   4   6
BRANCH   2  19
HETATM   19  O   UNK N   1      37.778  13.470  11.692  0.00  0.00    -0.388 OA
HETATM   20  H   UNK N   1      38.748  13.464  11.714  0.00  0.00     0.210 HD
ENDBRANCH   2  19
BRANCH   5  21
HETATM   21  C   UNK N   1      34.771  16.544  10.366  0.00  0.00     0.215 C 
BRANCH  21  22
HETATM   22  O   UNK N   1      35.330  16.977   9.156  0.00  0.00    -0.294 OA
BRANCH  22  23
HETATM   23  P   UNK N   1      34.069  17.710   8.211  0.00  0.00     0.390 P 
HETATM   24  O   UNK N   1      35.010  18.941   8.329  0.00  0.00    -0.632 OA
BRANCH  23  25
HETATM   25  O   UNK N   1      34.303  18.127   6.541  0.00  0.00    -0.307 OA
HETATM   26  H   UNK N   1      34.150  18.960   6.069  0.00  0.00     0.222 HD
ENDBRANCH  23  25
BRANCH  23  27
HETATM   27  O   UNK N   1      34.929  16.486   7.326  0.00  0.00    -0.307 OA
HETATM   28  H   UNK N   1      35.295  16.655   6.444  0.00  0.00     0.222 HD
ENDBRANCH  23  27
ENDBRANCH  22  23
ENDBRANCH  21  22
ENDBRANCH   5  21
BRANCH   3  29
HETATM   29  O   UNK N   1      36.684  14.566   8.733  0.00  0.00    -0.390 OA
HETATM   30  H   UNK N   1      37.327  14.816   8.051  0.00  0.00     0.210 HD
ENDBRANCH   3  29
TORSDOF 10
ENDMDL
MODEL 5
REMARK VINA RESULT:      -6.1     11.817     14.104
REMARK  10 active torsions:
REMARK  status: ('A' for Active; 'I' for Inactive)
REMARK    1  A    between atoms: P_1  and  O_5 
REMARK    2  A    between atoms: P_1  and  O_8 
REMARK    3  A    between atoms: P_1  and  O_9 
REMARK    4  A    between atoms: C_15  and  O_3 
REMARK    5  A    between atoms: C_16  and  O_4 
REMARK    6  A    between atoms: O_5  and  C_19 
REMARK    7  A    between atoms: O_7  and  C_24 
REMARK    8  A    between atoms: C_17  and  N_13 
REMARK    9  A    between atoms: C_18  and  C_19 
REMARK   10  A    between atoms: C_20  and  C_24 
ROOT
HETATM    1  O   UNK N   1      32.578  15.885   8.562  0.00  0.00    -0.353 OA
HETATM    2  C   UNK N   1      33.495  18.011   8.305  0.00  0.00     0.198 C 
HETATM    3  C   UNK N   1      34.553  17.032   8.810  0.00  0.00     0.182 C 
HETATM    4  C   UNK N   1      32.198  17.221   8.643  0.00  0.00     0.265 C 
HETATM    5  C   UNK N   1      33.680  15.959   9.402  0.00  0.00     0.180 C 
ENDROOT
BRANCH   4   6
HETATM    6  N   UNK N   1      30.876  17.465   7.985  0.00  0.00    -0.263 N 
HETATM    7  C   UNK N   1      30.575  16.809   6.792  0.00  0.00     0.120 A 
HETATM    8  C   UNK N   1      29.383  17.094   6.120  0.00  0.00     0.111 A 
HETATM    9  C   UNK N   1      28.487  17.993   6.654  0.00  0.00     0.251 A 
HETATM   10  O   UNK N   1      27.452  18.246   6.065  0.00  0.00    -0.268 OA
HETATM   11  N   UNK N   1      28.754  18.580   7.850  0.00  0.00    -0.275 N 
HETATM   12  C   UNK N   1      29.921  18.331   8.522  0.00  0.00     0.332 A 
HETATM   13  H   UNK N   1      28.096  19.198   8.241  0.00  0.00     0.173 HD
HETATM   14  O   UNK N   1      30.083  18.861   9.602  0.00  0.00    -0.246 OA
BRANCH   7  15
HETATM   15  C   UNK N   1      31.438  15.763   6.147  0.00  0.00     0.194 C 
HETATM   16  O   UNK N   1      32.293  16.049   5.327  0.00  0.00    -0.645 OA
BRANCH  15  17
HETATM   17  O   UNK N   1      31.332  14.479   6.545  0.00  0.00    -0.772 OA
HETATM   18  H   UNK N   1      31.993  13.852   6.326  0.00  0.00     0.167 HD
ENDBRANCH  15  17
ENDBRANCH   7  15
ENDBRANCH   4   6
BRANCH   2  19
HETATM   19  O   UNK N   1      33.710  18.100   6.930  0.00  0.00    -0.388 OA
HETATM   20  H   UNK N   1      33.367  17.782   6.079  0.00  0.00     0.210 HD
ENDBRANCH   2  19
BRANCH   5  21
HETATM   21  C   UNK N   1      34.266  14.601   9.704  0.00  0.00     0.215 C 
BRANCH  21  22
HETATM   22  O   UNK N   1      35.658  14.765   9.651  0.00  0.00    -0.294 OA
BRANCH  22  23
HETATM   23  P   UNK N   1      36.339  14.058  11.085  0.00  0.00     0.390 P 
HETATM   24  O   UNK N   1      36.456  12.826  10.145  0.00  0.00    -0.632 OA
BRANCH  23  25
HETATM   25  O   UNK N   1      38.032  13.691  11.207  0.00  0.00    -0.307 OA
HETATM   26  H   UNK N   1      38.495  12.840  11.229  0.00  0.00     0.222 HD
ENDBRANCH  23  25
BRANCH  23  27
HETATM   27  O   UNK N   1      37.347  15.309  10.423  0.00  0.00    -0.307 OA
HETATM   28  H   UNK N   1      37.062  16.236  10.400  0.00  0.00     0.222 HD
ENDBRANCH  23  27
ENDBRANCH  22  23
ENDBRANCH  21  22
ENDBRANCH   5  21
BRANCH   3  29
HETATM   29  O   UNK N   1      35.369  17.604   9.785  0.00  0.00    -0.390 OA
HETATM   30  H   UNK N   1      35.271  18.283  10.470  0.00  0.00     0.210 HD
ENDBRANCH   3  29
TORSDOF 10
ENDMDL
MODEL 6
REMARK VINA RESULT:      -6.1     13.998     16.374
REMARK  10 active torsions:
REMARK  status: ('A' for Active; 'I' for Inactive)
REMARK    1  A    between atoms: P_1  and  O_5 
REMARK    2  A    between atoms: P_1  and  O_8 
REMARK    3  A    between atoms: P_1  and  O_9 
REMARK    4  A    between atoms: C_15  and  O_3 
REMARK    5  A    between atoms: C_16  and  O_4 
REMARK    6  A    between atoms: O_5  and  C_19 
REMARK    7  A    between atoms: O_7  and  C_24 
REMARK    8  A    between atoms: C_17  and  N_13 
REMARK    9  A    between atoms: C_18  and  C_19 
REMARK   10  A    between atoms: C_20  and  C_24 
ROOT
HETATM    1  O   UNK N   1      28.017  24.961  -5.752  0.00  0.00    -0.353 OA
HETATM    2  C   UNK N   1      26.019  24.797  -4.567  0.00  0.00     0.198 C 
HETATM    3  C   UNK N   1      27.205  24.867  -3.606  0.00  0.00     0.182 C 
HETATM    4  C   UNK N   1      26.748  24.406  -5.884  0.00  0.00     0.265 C 
HETATM    5  C   UNK N   1      28.322  24.423  -4.510  0.00  0.00     0.180 C 
ENDROOT
BRANCH   4   6
HETATM    6  N   UNK N   1      26.181  24.630  -7.251  0.00  0.00    -0.263 N 
HETATM    7  C   UNK N   1      25.676  23.548  -7.969  0.00  0.00     0.120 A 
HETATM    8  C   UNK N   1      25.226  23.728  -9.280  0.00  0.00     0.111 A 
HETATM    9  C   UNK N   1      25.244  24.980  -9.851  0.00  0.00     0.251 A 
HETATM   10  O   UNK N   1      24.859  25.136 -10.995  0.00  0.00    -0.268 OA
HETATM   11  N   UNK N   1      25.676  26.045  -9.124  0.00  0.00    -0.275 N 
HETATM   12  C   UNK N   1      26.137  25.895  -7.843  0.00  0.00     0.332 A 
HETATM   13  H   UNK N   1      25.657  26.942  -9.528  0.00  0.00     0.173 HD
HETATM   14  O   UNK N   1      26.475  26.890  -7.237  0.00  0.00    -0.246 OA
BRANCH   7  15
HETATM   15  C   UNK N   1      25.542  22.151  -7.433  0.00  0.00     0.194 C 
HETATM   16  O   UNK N   1      24.565  21.797  -6.795  0.00  0.00    -0.645 OA
BRANCH  15  17
HETATM   17  O   UNK N   1      26.480  21.232  -7.736  0.00  0.00    -0.772 OA
HETATM   18  H   UNK N   1      27.295  21.207  -7.274  0.00  0.00     0.167 HD
ENDBRANCH  15  17
ENDBRANCH   7  15
ENDBRANCH   4   6
BRANCH   2  19
HETATM   19  O   UNK N   1      25.514  26.096  -4.615  0.00  0.00    -0.388 OA
HETATM   20  H   UNK N   1      24.910  26.701  -4.155  0.00  0.00     0.210 HD
ENDBRANCH   2  19
BRANCH   5  21
HETATM   21  C   UNK N   1      29.755  24.679  -4.108  0.00  0.00     0.215 C 
BRANCH  21  22
HETATM   22  O   UNK N   1      29.900  24.114  -2.833  0.00  0.00    -0.294 OA
BRANCH  22  23
HETATM   23  P   UNK N   1      30.517  22.501  -3.025  0.00  0.00     0.390 P 
HETATM   24  O   UNK N   1      31.663  23.271  -3.740  0.00  0.00    -0.632 OA
BRANCH  23  25
HETATM   25  O   UNK N   1      31.907  21.944  -2.146  0.00  0.00    -0.307 OA
HETATM   26  H   UNK N   1      32.848  21.943  -2.382  0.00  0.00     0.222 HD
ENDBRANCH  23  25
BRANCH  23  27
HETATM   27  O   UNK N   1      30.511  23.011  -1.364  0.00  0.00    -0.307 OA
HETATM   28  H   UNK N   1      30.853  22.446  -0.654  0.00  0.00     0.222 HD
ENDBRANCH  23  27
ENDBRANCH  22  23
ENDBRANCH  21  22
ENDBRANCH   5  21
BRANCH   3  29
HETATM   29  O   UNK N   1      27.057  23.991  -2.531  0.00  0.00    -0.390 OA
HETATM   30  H   UNK N   1      26.867  23.046  -2.419  0.00  0.00     0.210 HD
ENDBRANCH   3  29
TORSDOF 10
ENDMDL
MODEL 7
REMARK VINA RESULT:      -5.9     13.276     15.968
REMARK  10 active torsions:
REMARK  status: ('A' for Active; 'I' for Inactive)
REMARK    1  A    between atoms: P_1  and  O_5 
REMARK    2  A    between atoms: P_1  and  O_8 
REMARK    3  A    between atoms: P_1  and  O_9 
REMARK    4  A    between atoms: C_15  and  O_3 
REMARK    5  A    between atoms: C_16  and  O_4 
REMARK    6  A    between atoms: O_5  and  C_19 
REMARK    7  A    between atoms: O_7  and  C_24 
REMARK    8  A    between atoms: C_17  and  N_13 
REMARK    9  A    between atoms: C_18  and  C_19 
REMARK   10  A    between atoms: C_20  and  C_24 
ROOT
HETATM    1  O   UNK N   1      33.946  14.348   9.949  0.00  0.00    -0.353 OA
HETATM    2  C   UNK N   1      35.781  14.874   8.616  0.00  0.00     0.198 C 
HETATM    3  C   UNK N   1      36.235  14.510  10.028  0.00  0.00     0.182 C 
HETATM    4  C   UNK N   1      34.274  15.164   8.871  0.00  0.00     0.265 C 
HETATM    5  C   UNK N   1      34.966  14.750  10.799  0.00  0.00     0.180 C 
ENDROOT
BRANCH   4   6
HETATM    6  N   UNK N   1      33.225  15.129   7.806  0.00  0.00    -0.263 N 
HETATM    7  C   UNK N   1      32.815  16.321   7.209  0.00  0.00     0.120 A 
HETATM    8  C   UNK N   1      31.773  16.313   6.277  0.00  0.00     0.111 A 
HETATM    9  C   UNK N   1      31.177  15.126   5.917  0.00  0.00     0.251 A 
HETATM   10  O   UNK N   1      30.265  15.120   5.111  0.00  0.00    -0.268 OA
HETATM   11  N   UNK N   1      31.623  13.959   6.452  0.00  0.00    -0.275 N 
HETATM   12  C   UNK N   1      32.632  13.938   7.379  0.00  0.00     0.332 A 
HETATM   13  H   UNK N   1      31.214  13.111   6.168  0.00  0.00     0.173 HD
HETATM   14  O   UNK N   1      33.007  12.861   7.791  0.00  0.00    -0.246 OA
BRANCH   7  15
HETATM   15  C   UNK N   1      33.432  17.665   7.468  0.00  0.00     0.194 C 
HETATM   16  O   UNK N   1      33.000  18.418   8.324  0.00  0.00    -0.645 OA
BRANCH  15  17
HETATM   17  O   UNK N   1      34.548  18.022   6.801  0.00  0.00    -0.772 OA
HETATM   18  H   UNK N   1      35.396  17.809   7.137  0.00  0.00     0.167 HD
ENDBRANCH  15  17
ENDBRANCH   7  15
ENDBRANCH   4   6
BRANCH   2  19
HETATM   19  O   UNK N   1      35.970  13.715   7.864  0.00  0.00    -0.388 OA
HETATM   20  H   UNK N   1      35.552  12.867   7.647  0.00  0.00     0.210 HD
ENDBRANCH   2  19
BRANCH   5  21
HETATM   21  C   UNK N   1      34.816  14.178  12.189  0.00  0.00     0.215 C 
BRANCH  21  22
HETATM   22  O   UNK N   1      36.079  13.675  12.532  0.00  0.00    -0.294 OA
BRANCH  22  23
HETATM   23  P   UNK N   1      36.151  13.536  14.264  0.00  0.00     0.390 P 
HETATM   24  O   UNK N   1      37.145  12.397  13.901  0.00  0.00    -0.632 OA
BRANCH  23  25
HETATM   25  O   UNK N   1      37.560  14.010  15.161  0.00  0.00    -0.307 OA
HETATM   26  H   UNK N   1      37.945  14.886  15.320  0.00  0.00     0.222 HD
ENDBRANCH  23  25
BRANCH  23  27
HETATM   27  O   UNK N   1      36.842  15.025  13.692  0.00  0.00    -0.307 OA
HETATM   28  H   UNK N   1      36.328  15.846  13.655  0.00  0.00     0.222 HD
ENDBRANCH  23  27
ENDBRANCH  22  23
ENDBRANCH  21  22
ENDBRANCH   5  21
BRANCH   3  29
HETATM   29  O   UNK N   1      37.256  15.346  10.479  0.00  0.00    -0.390 OA
HETATM   30  H   UNK N   1      37.540  16.258  10.311  0.00  0.00     0.210 HD
ENDBRANCH   3  29
TORSDOF 10
ENDMDL
MODEL 8
REMARK VINA RESULT:      -5.9     14.454     16.280
REMARK  10 active torsions:
REMARK  status: ('A' for Active; 'I' for Inactive)
REMARK    1  A    between atoms: P_1  and  O_5 
REMARK    2  A    between atoms: P_1  and  O_8 
REMARK    3  A    between atoms: P_1  and  O_9 
REMARK    4  A    between atoms: C_15  and  O_3 
REMARK    5  A    between atoms: C_16  and  O_4 
REMARK    6  A    between atoms: O_5  and  C_19 
REMARK    7  A    between atoms: O_7  and  C_24 
REMARK    8  A    between atoms: C_17  and  N_13 
REMARK    9  A    between atoms: C_18  and  C_19 
REMARK   10  A    between atoms: C_20  and  C_24 
ROOT
HETATM    1  O   UNK N   1      28.260  24.351  -4.646  0.00  0.00    -0.353 OA
HETATM    2  C   UNK N   1      26.606  24.250  -6.283  0.00  0.00     0.198 C 
HETATM    3  C   UNK N   1      27.403  22.947  -6.250  0.00  0.00     0.182 C 
HETATM    4  C   UNK N   1      27.578  25.194  -5.519  0.00  0.00     0.265 C 
HETATM    5  C   UNK N   1      28.669  23.413  -5.583  0.00  0.00     0.180 C 
ENDROOT
BRANCH   4   6
HETATM    6  N   UNK N   1      27.156  26.464  -4.850  0.00  0.00    -0.263 N 
HETATM    7  C   UNK N   1      27.340  27.679  -5.509  0.00  0.00     0.120 A 
HETATM    8  C   UNK N   1      27.033  28.878  -4.861  0.00  0.00     0.111 A 
HETATM    9  C   UNK N   1      26.513  28.862  -3.586  0.00  0.00     0.251 A 
HETATM   10  O   UNK N   1      26.252  29.907  -3.019  0.00  0.00    -0.268 OA
HETATM   11  N   UNK N   1      26.273  27.673  -2.973  0.00  0.00    -0.275 N 
HETATM   12  C   UNK N   1      26.578  26.483  -3.578  0.00  0.00     0.332 A 
HETATM   13  H   UNK N   1      25.872  27.668  -2.074  0.00  0.00     0.173 HD
HETATM   14  O   UNK N   1      26.307  25.457  -2.990  0.00  0.00    -0.246 OA
BRANCH   7  15
HETATM   15  C   UNK N   1      27.835  27.822  -6.919  0.00  0.00     0.194 C 
HETATM   16  O   UNK N   1      28.907  28.344  -7.176  0.00  0.00    -0.645 OA
BRANCH  15  17
HETATM   17  O   UNK N   1      27.123  27.284  -7.930  0.00  0.00    -0.772 OA
HETATM   18  H   UNK N   1      27.071  26.354  -8.038  0.00  0.00     0.167 HD
ENDBRANCH  15  17
ENDBRANCH   7  15
ENDBRANCH   4   6
BRANCH   2  19
HETATM   19  O   UNK N   1      25.450  23.986  -5.549  0.00  0.00    -0.388 OA
HETATM   20  H   UNK N   1      24.658  24.415  -5.186  0.00  0.00     0.210 HD
ENDBRANCH   2  19
BRANCH   5  21
HETATM   21  C   UNK N   1      29.624  22.398  -5.002  0.00  0.00     0.215 C 
BRANCH  21  22
HETATM   22  O   UNK N   1      29.656  22.651  -3.623  0.00  0.00    -0.294 OA
BRANCH  22  23
HETATM   23  P   UNK N   1      31.320  22.711  -3.124  0.00  0.00     0.390 P 
HETATM   24  O   UNK N   1      30.658  22.986  -1.745  0.00  0.00    -0.632 OA
BRANCH  23  25
HETATM   25  O   UNK N   1      32.027  21.461  -2.147  0.00  0.00    -0.307 OA
HETATM   26  H   UNK N   1      32.953  21.278  -1.927  0.00  0.00     0.222 HD
ENDBRANCH  23  25
BRANCH  23  27
HETATM   27  O   UNK N   1      30.837  21.116  -3.619  0.00  0.00    -0.307 OA
HETATM   28  H   UNK N   1      31.478  20.396  -3.717  0.00  0.00     0.222 HD
ENDBRANCH  23  27
ENDBRANCH  22  23
ENDBRANCH  21  22
ENDBRANCH   5  21
BRANCH   3  29
HETATM   29  O   UNK N   1      27.665  22.464  -7.531  0.00  0.00    -0.390 OA
HETATM   30  H   UNK N   1      28.320  22.639  -8.225  0.00  0.00     0.210 HD
ENDBRANCH   3  29
TORSDOF 10
ENDMDL
MODEL 9
REMARK VINA RESULT:      -5.9     13.904     16.519
REMARK  10 active torsions:
REMARK  status: ('A' for Active; 'I' for Inactive)
REMARK    1  A    between atoms: P_1  and  O_5 
REMARK    2  A    between atoms: P_1  and  O_8 
REMARK    3  A    between atoms: P_1  and  O_9 
REMARK    4  A    between atoms: C_15  and  O_3 
REMARK    5  A    between atoms: C_16  and  O_4 
REMARK    6  A    between atoms: O_5  and  C_19 
REMARK    7  A    between atoms: O_7  and  C_24 
REMARK    8  A    between atoms: C_17  and  N_13 
REMARK    9  A    between atoms: C_18  and  C_19 
REMARK   10  A    between atoms: C_20  and  C_24 
ROOT
HETATM    1  O   UNK N   1      28.067  24.930  -5.631  0.00  0.00    -0.353 OA
HETATM    2  C   UNK N   1      26.079  24.594  -4.465  0.00  0.00     0.198 C 
HETATM    3  C   UNK N   1      27.243  24.775  -3.493  0.00  0.00     0.182 C 
HETATM    4  C   UNK N   1      26.854  24.263  -5.773  0.00  0.00     0.265 C 
HETATM    5  C   UNK N   1      28.406  24.428  -4.382  0.00  0.00     0.180 C 
ENDROOT
BRANCH   4   6
HETATM    6  N   UNK N   1      26.285  24.429  -7.146  0.00  0.00    -0.263 N 
HETATM    7  C   UNK N   1      26.356  25.674  -7.771  0.00  0.00     0.120 A 
HETATM    8  C   UNK N   1      25.750  25.866  -9.015  0.00  0.00     0.111 A 
HETATM    9  C   UNK N   1      25.116  24.818  -9.645  0.00  0.00     0.251 A 
HETATM   10  O   UNK N   1      24.582  24.987 -10.726  0.00  0.00    -0.268 OA
HETATM   11  N   UNK N   1      25.106  23.590  -9.063  0.00  0.00    -0.275 N 
HETATM   12  C   UNK N   1      25.679  23.377  -7.837  0.00  0.00     0.332 A 
HETATM   13  H   UNK N   1      24.679  22.839  -9.532  0.00  0.00     0.173 HD
HETATM   14  O   UNK N   1      25.666  22.249  -7.389  0.00  0.00    -0.246 OA
BRANCH   7  15
HETATM   15  C   UNK N   1      27.075  26.871  -7.218  0.00  0.00     0.194 C 
HETATM   16  O   UNK N   1      26.522  27.670  -6.481  0.00  0.00    -0.645 OA
BRANCH  15  17
HETATM   17  O   UNK N   1      28.391  27.026  -7.465  0.00  0.00    -0.772 OA
HETATM   18  H   UNK N   1      28.887  27.689  -7.026  0.00  0.00     0.167 HD
ENDBRANCH  15  17
ENDBRANCH   7  15
ENDBRANCH   4   6
BRANCH   2  19
HETATM   19  O   UNK N   1      25.461  25.843  -4.526  0.00  0.00    -0.388 OA
HETATM   20  H   UNK N   1      25.618  26.785  -4.353  0.00  0.00     0.210 HD
ENDBRANCH   2  19
BRANCH   5  21
HETATM   21  C   UNK N   1      29.805  24.814  -3.967  0.00  0.00     0.215 C 
BRANCH  21  22
HETATM   22  O   UNK N   1      30.024  24.184  -2.734  0.00  0.00    -0.294 OA
BRANCH  22  23
HETATM   23  P   UNK N   1      30.556  22.558  -3.045  0.00  0.00     0.390 P 
HETATM   24  O   UNK N   1      31.756  23.318  -3.677  0.00  0.00    -0.632 OA
BRANCH  23  25
HETATM   25  O   UNK N   1      31.896  21.857  -2.191  0.00  0.00    -0.307 OA
HETATM   26  H   UNK N   1      32.058  20.944  -1.907  0.00  0.00     0.222 HD
ENDBRANCH  23  25
BRANCH  23  27
HETATM   27  O   UNK N   1      30.544  22.935  -1.348  0.00  0.00    -0.307 OA
HETATM   28  H   UNK N   1      30.448  23.846  -1.028  0.00  0.00     0.222 HD
ENDBRANCH  23  27
ENDBRANCH  22  23
ENDBRANCH  21  22
ENDBRANCH   5  21
BRANCH   3  29
HETATM   29  O   UNK N   1      27.163  23.894  -2.414  0.00  0.00    -0.390 OA
HETATM   30  H   UNK N   1      27.666  23.129  -2.096  0.00  0.00     0.210 HD
ENDBRANCH   3  29
TORSDOF 10
ENDMDL
