MODEL 1
REMARK VINA RESULT:      -6.8      0.000      0.000
REMARK  10 active torsions:
REMARK  status: ('A' for Active; 'I' for Inactive)
REMARK    1  A    between atoms: C_10  and  C_4 
REMARK    2  A    between atoms: C_13  and  C_5 
REMARK    3  A    between atoms: C_11  and  C_8 
REMARK    4  A    between atoms: C_10  and  C_9 
REMARK    5  A    between atoms: S_27  and  C_9 
REMARK    6  A    between atoms: O_22  and  C_13 
REMARK    7  A    between atoms: C_16  and  C_14 
REMARK    8  A    between atoms: N_19  and  C_14 
REMARK    9  A    between atoms: N_19  and  C_15 
REMARK   10  A    between atoms: O_24  and  C_16 
ROOT
HETATM    1  C   UNK N   1      20.655  17.364   3.864  0.00  0.00    -0.010 C 
HETATM    2  C   UNK N   1      20.852  17.180   5.210  0.00  0.00     0.115 C 
ENDROOT
BRANCH   2   3
HETATM    3  C   UNK N   1      21.668  18.138   6.035  0.00  0.00     0.194 C 
HETATM    4  O   UNK N   1      21.116  18.835   6.867  0.00  0.00    -0.645 OA
BRANCH   3   5
HETATM    5  O   UNK N   1      23.006  18.219   5.925  0.00  0.00    -0.772 OA
HETATM    6  H   UNK N   1      23.532  18.409   6.678  0.00  0.00     0.167 HD
ENDBRANCH   3   5
ENDBRANCH   2   3
BRANCH   2   7
HETATM    7  N   UNK N   1      20.396  15.939   5.770  0.00  0.00    -0.335 N 
HETATM    8  H   UNK N   1      19.976  15.345   5.108  0.00  0.00     0.168 HD
BRANCH   7   9
HETATM    9  C   UNK N   1      20.427  15.385   7.092  0.00  0.00     0.126 A 
HETATM   10  C   UNK N   1      19.782  15.778   8.287  0.00  0.00     0.048 A 
HETATM   11  C   UNK N   1      20.174  14.877   9.277  0.00  0.00     0.048 A 
HETATM   12  C   UNK N   1      20.993  13.967   8.643  0.00  0.00     0.041 A 
HETATM   13  C   UNK N   1      21.605  12.844   9.193  0.00  0.00     0.030 A 
HETATM   14  N   UNK N   1      21.130  14.269   7.344  0.00  0.00    -0.308 N 
HETATM   15  C   UNK N   1      22.366  12.032   8.337  0.00  0.00     0.004 A 
HETATM   16  C   UNK N   1      22.495  12.364   6.975  0.00  0.00     0.018 A 
HETATM   17  C   UNK N   1      21.861  13.513   6.483  0.00  0.00     0.099 A 
BRANCH  10  18
HETATM   18  C   UNK N   1      18.781  16.819   8.583  0.00  0.00     0.273 C 
HETATM   19  O   UNK N   1      17.644  16.544   8.923  0.00  0.00    -0.301 OA
ENDBRANCH  10  18
ENDBRANCH   7   9
ENDBRANCH   2   7
BRANCH   1  20
HETATM   20  C   UNK N   1      21.119  18.586   3.133  0.00  0.00     0.015 C 
HETATM   21  C   UNK N   1      20.281  19.563   2.743  0.00  0.00     0.056 C 
BRANCH  21  22
HETATM   22  C   UNK N   1      20.745  20.743   1.979  0.00  0.00     0.133 C 
HETATM   23  N   UNK N   1      20.407  20.914   0.753  0.00  0.00    -0.380 N 
HETATM   24  H   UNK N   1      20.967  21.400   0.105  0.00  0.00     0.158 HD
ATOM     25  HN  UNK N   1      19.518  20.529   0.435  1.00  0.00     0.158 HD
BRANCH  22  26
HETATM   26  O   UNK N   1      21.518  21.662   2.587  0.00  0.00    -0.346 OA
HETATM   27  H   UNK N   1      21.774  22.492   2.236  0.00  0.00     0.219 HD
ENDBRANCH  22  26
ENDBRANCH  21  22
ENDBRANCH   1  20
BRANCH   1  28
HETATM   28  C   UNK N   1      19.977  16.268   3.064  0.00  0.00     0.198 C 
BRANCH  28  29
HETATM   29  S   UNK N   1      21.149  15.296   2.060  0.00  0.00     0.255 S 
HETATM   30  O   UNK N   1      20.015  14.501   1.393  0.00  0.00    -0.212 OA
HETATM   31  O   UNK N   1      21.321  14.236   3.157  0.00  0.00    -0.212 OA
ENDBRANCH  28  29
ENDBRANCH   1  28
TORSDOF 10
ENDMDL
MODEL 2
REMARK VINA RESULT:      -6.6      7.562      8.501
REMARK  10 active torsions:
REMARK  status: ('A' for Active; 'I' for Inactive)
REMARK    1  A    between atoms: C_10  and  C_4 
REMARK    2  A    between atoms: C_13  and  C_5 
REMARK    3  A    between atoms: C_11  and  C_8 
REMARK    4  A    between atoms: C_10  and  C_9 
REMARK    5  A    between atoms: S_27  and  C_9 
REMARK    6  A    between atoms: O_22  and  C_13 
REMARK    7  A    between atoms: C_16  and  C_14 
REMARK    8  A    between atoms: N_19  and  C_14 
REMARK    9  A    between atoms: N_19  and  C_15 
REMARK   10  A    between atoms: O_24  and  C_16 
ROOT
HETATM    1  C   UNK N   1      26.506  17.645   5.136  0.00  0.00    -0.010 C 
HETATM    2  C   UNK N   1      27.475  18.158   5.962  0.00  0.00     0.115 C 
ENDROOT
BRANCH   2   3
HETATM    3  C   UNK N   1      27.493  19.607   6.366  0.00  0.00     0.194 C 
HETATM    4  O   UNK N   1      27.888  20.446   5.576  0.00  0.00    -0.645 OA
BRANCH   3   5
HETATM    5  O   UNK N   1      27.038  20.025   7.561  0.00  0.00    -0.772 OA
HETATM    6  H   UNK N   1      26.392  20.703   7.611  0.00  0.00     0.167 HD
ENDBRANCH   3   5
ENDBRANCH   2   3
BRANCH   2   7
HETATM    7  N   UNK N   1      28.576  17.296   6.286  0.00  0.00    -0.335 N 
HETATM    8  H   UNK N   1      28.506  16.405   5.875  0.00  0.00     0.168 HD
BRANCH   7   9
HETATM    9  C   UNK N   1      29.756  17.463   7.081  0.00  0.00     0.126 A 
HETATM   10  C   UNK N   1      29.929  17.654   8.472  0.00  0.00     0.048 A 
HETATM   11  C   UNK N   1      31.301  17.759   8.701  0.00  0.00     0.048 A 
HETATM   12  C   UNK N   1      31.895  17.590   7.468  0.00  0.00     0.041 A 
HETATM   13  C   UNK N   1      33.255  17.566   7.173  0.00  0.00     0.030 A 
HETATM   14  N   UNK N   1      30.972  17.403   6.514  0.00  0.00    -0.308 N 
HETATM   15  C   UNK N   1      33.630  17.334   5.841  0.00  0.00     0.004 A 
HETATM   16  C   UNK N   1      32.646  17.136   4.852  0.00  0.00     0.018 A 
HETATM   17  C   UNK N   1      31.291  17.180   5.211  0.00  0.00     0.099 A 
BRANCH  10  18
HETATM   18  C   UNK N   1      28.985  17.649   9.603  0.00  0.00     0.273 C 
HETATM   19  O   UNK N   1      27.778  17.627   9.438  0.00  0.00    -0.301 OA
ENDBRANCH  10  18
ENDBRANCH   7   9
ENDBRANCH   2   7
BRANCH   1  20
HETATM   20  C   UNK N   1      25.325  18.441   4.674  0.00  0.00     0.015 C 
HETATM   21  C   UNK N   1      25.315  19.127   3.517  0.00  0.00     0.056 C 
BRANCH  21  22
HETATM   22  C   UNK N   1      24.158  19.948   3.094  0.00  0.00     0.133 C 
HETATM   23  N   UNK N   1      22.970  19.672   3.489  0.00  0.00    -0.380 N 
HETATM   24  H   UNK N   1      22.166  19.886   2.962  0.00  0.00     0.158 HD
ATOM     25  HN  UNK N   1      22.851  19.210   4.390  1.00  0.00     0.158 HD
BRANCH  22  26
HETATM   26  O   UNK N   1      24.361  21.014   2.298  0.00  0.00    -0.346 OA
HETATM   27  H   UNK N   1      24.367  21.912   2.565  0.00  0.00     0.219 HD
ENDBRANCH  22  26
ENDBRANCH  21  22
ENDBRANCH   1  20
BRANCH   1  28
HETATM   28  C   UNK N   1      26.651  16.223   4.627  0.00  0.00     0.198 C 
BRANCH  28  29
HETATM   29  S   UNK N   1      27.630  16.119   3.090  0.00  0.00     0.255 S 
HETATM   30  O   UNK N   1      26.939  14.812   2.667  0.00  0.00    -0.212 OA
HETATM   31  O   UNK N   1      28.769  15.356   3.784  0.00  0.00    -0.212 OA
ENDBRANCH  28  29
ENDBRANCH   1  28
TORSDOF 10
ENDMDL
MODEL 3
REMARK VINA RESULT:      -6.4     14.626     15.813
REMARK  10 active torsions:
REMARK  status: ('A' for Active; 'I' for Inactive)
REMARK    1  A    between atoms: C_10  and  C_4 
REMARK    2  A    between atoms: C_13  and  C_5 
REMARK    3  A    between atoms: C_11  and  C_8 
REMARK    4  A    between atoms: C_10  and  C_9 
REMARK    5  A    between atoms: S_27  and  C_9 
REMARK    6  A    between atoms: O_22  and  C_13 
REMARK    7  A    between atoms: C_16  and  C_14 
REMARK    8  A    between atoms: N_19  and  C_14 
REMARK    9  A    between atoms: N_19  and  C_15 
REMARK   10  A    between atoms: O_24  and  C_16 
ROOT
HETATM    1  C   UNK N   1      27.793  26.080  -4.030  0.00  0.00    -0.010 C 
HETATM    2  C   UNK N   1      28.886  25.252  -4.093  0.00  0.00     0.115 C 
ENDROOT
BRANCH   2   3
HETATM    3  C   UNK N   1      30.292  25.788  -4.110  0.00  0.00     0.194 C 
HETATM    4  O   UNK N   1      30.795  26.123  -5.167  0.00  0.00    -0.645 OA
BRANCH   3   5
HETATM    5  O   UNK N   1      31.006  25.964  -2.983  0.00  0.00    -0.772 OA
HETATM    6  H   UNK N   1      31.096  25.264  -2.366  0.00  0.00     0.167 HD
ENDBRANCH   3   5
ENDBRANCH   2   3
BRANCH   2   7
HETATM    7  N   UNK N   1      28.634  23.858  -4.323  0.00  0.00    -0.335 N 
HETATM    8  H   UNK N   1      27.683  23.617  -4.245  0.00  0.00     0.168 HD
BRANCH   7   9
HETATM    9  C   UNK N   1      29.478  22.745  -4.642  0.00  0.00     0.126 A 
HETATM   10  C   UNK N   1      30.554  22.154  -3.941  0.00  0.00     0.048 A 
HETATM   11  C   UNK N   1      31.017  21.094  -4.721  0.00  0.00     0.048 A 
HETATM   12  C   UNK N   1      30.190  21.060  -5.824  0.00  0.00     0.041 A 
HETATM   13  C   UNK N   1      30.213  20.153  -6.880  0.00  0.00     0.030 A 
HETATM   14  N   UNK N   1      29.272  22.036  -5.764  0.00  0.00    -0.308 N 
HETATM   15  C   UNK N   1      29.237  20.290  -7.879  0.00  0.00     0.004 A 
HETATM   16  C   UNK N   1      28.279  21.319  -7.797  0.00  0.00     0.018 A 
HETATM   17  C   UNK N   1      28.313  22.207  -6.713  0.00  0.00     0.099 A 
BRANCH  10  18
HETATM   18  C   UNK N   1      31.126  22.398  -2.604  0.00  0.00     0.273 C 
HETATM   19  O   UNK N   1      30.571  23.104  -1.783  0.00  0.00    -0.301 OA
ENDBRANCH  10  18
ENDBRANCH   7   9
ENDBRANCH   2   7
BRANCH   1  20
HETATM   20  C   UNK N   1      27.902  27.561  -3.843  0.00  0.00     0.015 C 
HETATM   21  C   UNK N   1      26.922  28.301  -3.295  0.00  0.00     0.056 C 
BRANCH  21  22
HETATM   22  C   UNK N   1      27.023  29.772  -3.159  0.00  0.00     0.133 C 
HETATM   23  N   UNK N   1      26.104  30.544  -3.611  0.00  0.00    -0.380 N 
HETATM   24  H   UNK N   1      26.278  31.463  -3.917  0.00  0.00     0.158 HD
ATOM     25  HN  UNK N   1      25.148  30.189  -3.657  1.00  0.00     0.158 HD
BRANCH  22  26
HETATM   26  O   UNK N   1      28.087  30.305  -2.532  0.00  0.00    -0.346 OA
HETATM   27  H   UNK N   1      28.961  30.355  -2.868  0.00  0.00     0.219 HD
ENDBRANCH  22  26
ENDBRANCH  21  22
ENDBRANCH   1  20
BRANCH   1  28
HETATM   28  C   UNK N   1      26.408  25.482  -4.199  0.00  0.00     0.198 C 
BRANCH  28  29
HETATM   29  S   UNK N   1      25.843  25.486  -5.934  0.00  0.00     0.255 S 
HETATM   30  O   UNK N   1      24.574  26.279  -5.582  0.00  0.00    -0.212 OA
HETATM   31  O   UNK N   1      25.115  24.144  -5.774  0.00  0.00    -0.212 OA
ENDBRANCH  28  29
ENDBRANCH   1  28
TORSDOF 10
ENDMDL
MODEL 4
REMARK VINA RESULT:      -6.3     11.957     14.185
REMARK  10 active torsions:
REMARK  status: ('A' for Active; 'I' for Inactive)
REMARK    1  A    between atoms: C_10  and  C_4 
REMARK    2  A    between atoms: C_13  and  C_5 
REMARK    3  A    between atoms: C_11  and  C_8 
REMARK    4  A    between atoms: C_10  and  C_9 
REMARK    5  A    between atoms: S_27  and  C_9 
REMARK    6  A    between atoms: O_22  and  C_13 
REMARK    7  A    between atoms: C_16  and  C_14 
REMARK    8  A    between atoms: N_19  and  C_14 
REMARK    9  A    between atoms: N_19  and  C_15 
REMARK   10  A    between atoms: O_24  and  C_16 
ROOT
HETATM    1  C   UNK N   1      34.438  15.056   9.219  0.00  0.00    -0.010 C 
HETATM    2  C   UNK N   1      34.040  16.370   9.213  0.00  0.00     0.115 C 
ENDROOT
BRANCH   2   3
HETATM    3  C   UNK N   1      34.998  17.495   9.494  0.00  0.00     0.194 C 
HETATM    4  O   UNK N   1      35.060  18.437   8.725  0.00  0.00    -0.645 OA
BRANCH   3   5
HETATM    5  O   UNK N   1      35.763  17.528  10.600  0.00  0.00    -0.772 OA
HETATM    6  H   UNK N   1      36.366  16.832  10.780  0.00  0.00     0.167 HD
ENDBRANCH   3   5
ENDBRANCH   2   3
BRANCH   2   7
HETATM    7  N   UNK N   1      32.631  16.621   9.104  0.00  0.00    -0.335 N 
HETATM    8  H   UNK N   1      32.156  16.554   9.963  0.00  0.00     0.168 HD
BRANCH   7   9
HETATM    9  C   UNK N   1      31.772  16.952   8.005  0.00  0.00     0.126 A 
HETATM   10  C   UNK N   1      32.021  17.039   6.616  0.00  0.00     0.048 A 
HETATM   11  C   UNK N   1      30.819  17.404   6.009  0.00  0.00     0.048 A 
HETATM   12  C   UNK N   1      29.898  17.481   7.032  0.00  0.00     0.041 A 
HETATM   13  C   UNK N   1      28.539  17.769   6.936  0.00  0.00     0.030 A 
HETATM   14  N   UNK N   1      30.469  17.201   8.213  0.00  0.00    -0.308 N 
HETATM   15  C   UNK N   1      27.783  17.750   8.119  0.00  0.00     0.004 A 
HETATM   16  C   UNK N   1      28.400  17.449   9.349  0.00  0.00     0.018 A 
HETATM   17  C   UNK N   1      29.775  17.176   9.382  0.00  0.00     0.099 A 
BRANCH  10  18
HETATM   18  C   UNK N   1      33.204  16.728   5.794  0.00  0.00     0.273 C 
HETATM   19  O   UNK N   1      34.150  17.490   5.709  0.00  0.00    -0.301 OA
ENDBRANCH  10  18
ENDBRANCH   7   9
ENDBRANCH   2   7
BRANCH   1  20
HETATM   20  C   UNK N   1      35.868  14.640   9.375  0.00  0.00     0.015 C 
HETATM   21  C   UNK N   1      36.355  14.117  10.515  0.00  0.00     0.056 C 
BRANCH  21  22
HETATM   22  C   UNK N   1      37.781  13.753  10.672  0.00  0.00     0.133 C 
HETATM   23  N   UNK N   1      38.149  12.866  11.523  0.00  0.00    -0.380 N 
HETATM   24  H   UNK N   1      39.034  12.871  11.954  0.00  0.00     0.158 HD
ATOM     25  HN  UNK N   1      37.495  12.122  11.764  1.00  0.00     0.158 HD
BRANCH  22  26
HETATM   26  O   UNK N   1      38.704  14.348   9.894  0.00  0.00    -0.346 OA
HETATM   27  H   UNK N   1      39.149  13.961   9.166  0.00  0.00     0.219 HD
ENDBRANCH  22  26
ENDBRANCH  21  22
ENDBRANCH   1  20
BRANCH   1  28
HETATM   28  C   UNK N   1      33.386  13.969   9.108  0.00  0.00     0.198 C 
BRANCH  28  29
HETATM   29  S   UNK N   1      33.481  13.051   7.535  0.00  0.00     0.255 S 
HETATM   30  O   UNK N   1      32.098  13.552   7.088  0.00  0.00    -0.212 OA
HETATM   31  O   UNK N   1      32.880  11.782   8.157  0.00  0.00    -0.212 OA
ENDBRANCH  28  29
ENDBRANCH   1  28
TORSDOF 10
ENDMDL
MODEL 5
REMARK VINA RESULT:      -6.3      9.041     11.151
REMARK  10 active torsions:
REMARK  status: ('A' for Active; 'I' for Inactive)
REMARK    1  A    between atoms: C_10  and  C_4 
REMARK    2  A    between atoms: C_13  and  C_5 
REMARK    3  A    between atoms: C_11  and  C_8 
REMARK    4  A    between atoms: C_10  and  C_9 
REMARK    5  A    between atoms: S_27  and  C_9 
REMARK    6  A    between atoms: O_22  and  C_13 
REMARK    7  A    between atoms: C_16  and  C_14 
REMARK    8  A    between atoms: N_19  and  C_14 
REMARK    9  A    between atoms: N_19  and  C_15 
REMARK   10  A    between atoms: O_24  and  C_16 
ROOT
HETATM    1  C   UNK N   1      31.222  16.874   7.390  0.00  0.00    -0.010 C 
HETATM    2  C   UNK N   1      29.985  17.217   7.876  0.00  0.00     0.115 C 
ENDROOT
BRANCH   2   3
HETATM    3  C   UNK N   1      29.786  17.677   9.295  0.00  0.00     0.194 C 
HETATM    4  O   UNK N   1      29.322  16.908  10.117  0.00  0.00    -0.645 OA
BRANCH   3   5
HETATM    5  O   UNK N   1      30.153  18.904   9.710  0.00  0.00    -0.772 OA
HETATM    6  H   UNK N   1      29.649  19.656   9.467  0.00  0.00     0.167 HD
ENDBRANCH   3   5
ENDBRANCH   2   3
BRANCH   2   7
HETATM    7  N   UNK N   1      28.856  16.950   7.031  0.00  0.00    -0.335 N 
HETATM    8  H   UNK N   1      28.346  16.154   7.304  0.00  0.00     0.168 HD
BRANCH   7   9
HETATM    9  C   UNK N   1      28.317  17.601   5.874  0.00  0.00     0.126 A 
HETATM   10  C   UNK N   1      28.143  17.154   4.544  0.00  0.00     0.048 A 
HETATM   11  C   UNK N   1      27.569  18.208   3.832  0.00  0.00     0.048 A 
HETATM   12  C   UNK N   1      27.384  19.217   4.752  0.00  0.00     0.041 A 
HETATM   13  C   UNK N   1      26.802  20.465   4.544  0.00  0.00     0.030 A 
HETATM   14  N   UNK N   1      27.820  18.846   5.965  0.00  0.00    -0.308 N 
HETATM   15  C   UNK N   1      26.681  21.320   5.651  0.00  0.00     0.004 A 
HETATM   16  C   UNK N   1      27.141  20.910   6.917  0.00  0.00     0.018 A 
HETATM   17  C   UNK N   1      27.726  19.645   7.061  0.00  0.00     0.099 A 
BRANCH  10  18
HETATM   18  C   UNK N   1      28.353  15.847   3.896  0.00  0.00     0.273 C 
HETATM   19  O   UNK N   1      28.219  15.692   2.695  0.00  0.00    -0.301 OA
ENDBRANCH  10  18
ENDBRANCH   7   9
ENDBRANCH   2   7
BRANCH   1  20
HETATM   20  C   UNK N   1      32.484  17.049   8.176  0.00  0.00     0.015 C 
HETATM   21  C   UNK N   1      33.324  18.082   7.985  0.00  0.00     0.056 C 
BRANCH  21  22
HETATM   22  C   UNK N   1      34.592  18.218   8.736  0.00  0.00     0.133 C 
HETATM   23  N   UNK N   1      34.945  17.345   9.607  0.00  0.00    -0.380 N 
HETATM   24  H   UNK N   1      35.508  17.560  10.386  0.00  0.00     0.158 HD
ATOM     25  HN  UNK N   1      34.627  16.383   9.488  1.00  0.00     0.158 HD
BRANCH  22  26
HETATM   26  O   UNK N   1      35.398  19.266   8.486  0.00  0.00    -0.346 OA
HETATM   27  H   UNK N   1      35.482  20.039   9.010  0.00  0.00     0.219 HD
ENDBRANCH  22  26
ENDBRANCH  21  22
ENDBRANCH   1  20
BRANCH   1  28
HETATM   28  C   UNK N   1      31.321  16.249   6.011  0.00  0.00     0.198 C 
BRANCH  28  29
HETATM   29  S   UNK N   1      32.056  14.579   6.042  0.00  0.00     0.255 S 
HETATM   30  O   UNK N   1      32.397  14.635   4.544  0.00  0.00    -0.212 OA
HETATM   31  O   UNK N   1      30.706  13.902   5.766  0.00  0.00    -0.212 OA
ENDBRANCH  28  29
ENDBRANCH   1  28
TORSDOF 10
ENDMDL
MODEL 6
REMARK VINA RESULT:      -6.2      1.705      2.497
REMARK  10 active torsions:
REMARK  status: ('A' for Active; 'I' for Inactive)
REMARK    1  A    between atoms: C_10  and  C_4 
REMARK    2  A    between atoms: C_13  and  C_5 
REMARK    3  A    between atoms: C_11  and  C_8 
REMARK    4  A    between atoms: C_10  and  C_9 
REMARK    5  A    between atoms: S_27  and  C_9 
REMARK    6  A    between atoms: O_22  and  C_13 
REMARK    7  A    between atoms: C_16  and  C_14 
REMARK    8  A    between atoms: N_19  and  C_14 
REMARK    9  A    between atoms: N_19  and  C_15 
REMARK   10  A    between atoms: O_24  and  C_16 
ROOT
HETATM    1  C   UNK N   1      21.587  17.735   4.825  0.00  0.00    -0.010 C 
HETATM    2  C   UNK N   1      20.953  16.520   4.896  0.00  0.00     0.115 C 
ENDROOT
BRANCH   2   3
HETATM    3  C   UNK N   1      19.599  16.290   4.282  0.00  0.00     0.194 C 
HETATM    4  O   UNK N   1      18.608  16.308   4.989  0.00  0.00    -0.645 OA
BRANCH   3   5
HETATM    5  O   UNK N   1      19.432  16.114   2.958  0.00  0.00    -0.772 OA
HETATM    6  H   UNK N   1      19.333  15.252   2.604  0.00  0.00     0.167 HD
ENDBRANCH   3   5
ENDBRANCH   2   3
BRANCH   2   7
HETATM    7  N   UNK N   1      21.553  15.521   5.735  0.00  0.00    -0.335 N 
HETATM    8  H   UNK N   1      22.206  14.958   5.262  0.00  0.00     0.168 HD
BRANCH   7   9
HETATM    9  C   UNK N   1      21.400  15.175   7.117  0.00  0.00     0.126 A 
HETATM   10  C   UNK N   1      20.724  15.825   8.176  0.00  0.00     0.048 A 
HETATM   11  C   UNK N   1      20.904  15.041   9.315  0.00  0.00     0.048 A 
HETATM   12  C   UNK N   1      21.634  13.948   8.900  0.00  0.00     0.041 A 
HETATM   13  C   UNK N   1      22.035  12.852   9.659  0.00  0.00     0.030 A 
HETATM   14  N   UNK N   1      21.915  14.029   7.592  0.00  0.00    -0.308 N 
HETATM   15  C   UNK N   1      22.739  11.829   9.005  0.00  0.00     0.004 A 
HETATM   16  C   UNK N   1      23.022  11.930   7.629  0.00  0.00     0.018 A 
HETATM   17  C   UNK N   1      22.598  13.064   6.921  0.00  0.00     0.099 A 
BRANCH  10  18
HETATM   18  C   UNK N   1      19.860  17.018   8.223  0.00  0.00     0.273 C 
HETATM   19  O   UNK N   1      20.309  18.146   8.128  0.00  0.00    -0.301 OA
ENDBRANCH  10  18
ENDBRANCH   7   9
ENDBRANCH   2   7
BRANCH   1  20
HETATM   20  C   UNK N   1      21.054  18.887   4.030  0.00  0.00     0.015 C 
HETATM   21  C   UNK N   1      21.638  19.324   2.900  0.00  0.00     0.056 C 
BRANCH  21  22
HETATM   22  C   UNK N   1      21.129  20.493   2.148  0.00  0.00     0.133 C 
HETATM   23  N   UNK N   1      20.418  20.343   1.092  0.00  0.00    -0.380 N 
HETATM   24  H   UNK N   1      20.400  21.000   0.358  0.00  0.00     0.158 HD
ATOM     25  HN  UNK N   1      19.843  19.505   1.007  1.00  0.00     0.158 HD
BRANCH  22  26
HETATM   26  O   UNK N   1      21.402  21.733   2.592  0.00  0.00    -0.346 OA
HETATM   27  H   UNK N   1      21.064  22.535   2.243  0.00  0.00     0.219 HD
ENDBRANCH  22  26
ENDBRANCH  21  22
ENDBRANCH   1  20
BRANCH   1  28
HETATM   28  C   UNK N   1      22.863  17.946   5.620  0.00  0.00     0.198 C 
BRANCH  28  29
HETATM   29  S   UNK N   1      24.360  17.471   4.692  0.00  0.00     0.255 S 
HETATM   30  O   UNK N   1      23.557  16.575   3.735  0.00  0.00    -0.212 OA
HETATM   31  O   UNK N   1      24.657  16.294   5.633  0.00  0.00    -0.212 OA
ENDBRANCH  28  29
ENDBRANCH   1  28
TORSDOF 10
ENDMDL
MODEL 7
REMARK VINA RESULT:      -6.1     10.844     12.877
REMARK  10 active torsions:
REMARK  status: ('A' for Active; 'I' for Inactive)
REMARK    1  A    between atoms: C_10  and  C_4 
REMARK    2  A    between atoms: C_13  and  C_5 
REMARK    3  A    between atoms: C_11  and  C_8 
REMARK    4  A    between atoms: C_10  and  C_9 
REMARK    5  A    between atoms: S_27  and  C_9 
REMARK    6  A    between atoms: O_22  and  C_13 
REMARK    7  A    between atoms: C_16  and  C_14 
REMARK    8  A    between atoms: N_19  and  C_14 
REMARK    9  A    between atoms: N_19  and  C_15 
REMARK   10  A    between atoms: O_24  and  C_16 
ROOT
HETATM    1  C   UNK N   1      33.515  15.246   8.090  0.00  0.00    -0.010 C 
HETATM    2  C   UNK N   1      32.893  16.257   7.401  0.00  0.00     0.115 C 
ENDROOT
BRANCH   2   3
HETATM    3  C   UNK N   1      33.499  17.630   7.281  0.00  0.00     0.194 C 
HETATM    4  O   UNK N   1      33.283  18.460   8.145  0.00  0.00    -0.645 OA
BRANCH   3   5
HETATM    5  O   UNK N   1      34.321  17.964   6.270  0.00  0.00    -0.772 OA
HETATM    6  H   UNK N   1      34.147  17.663   5.399  0.00  0.00     0.167 HD
ENDBRANCH   3   5
ENDBRANCH   2   3
BRANCH   2   7
HETATM    7  N   UNK N   1      31.554  16.008   6.949  0.00  0.00    -0.335 N 
HETATM    8  H   UNK N   1      31.437  15.116   6.551  0.00  0.00     0.168 HD
BRANCH   7   9
HETATM    9  C   UNK N   1      30.351  16.788   6.956  0.00  0.00     0.126 A 
HETATM   10  C   UNK N   1      29.710  17.511   7.989  0.00  0.00     0.048 A 
HETATM   11  C   UNK N   1      28.565  18.083   7.436  0.00  0.00     0.048 A 
HETATM   12  C   UNK N   1      28.581  17.726   6.105  0.00  0.00     0.041 A 
HETATM   13  C   UNK N   1      27.672  18.088   5.114  0.00  0.00     0.030 A 
HETATM   14  N   UNK N   1      29.650  16.966   5.825  0.00  0.00    -0.308 N 
HETATM   15  C   UNK N   1      27.917  17.635   3.807  0.00  0.00     0.004 A 
HETATM   16  C   UNK N   1      29.048  16.841   3.533  0.00  0.00     0.018 A 
HETATM   17  C   UNK N   1      29.921  16.503   4.576  0.00  0.00     0.099 A 
BRANCH  10  18
HETATM   18  C   UNK N   1      30.090  17.806   9.383  0.00  0.00     0.273 C 
HETATM   19  O   UNK N   1      29.744  18.830   9.943  0.00  0.00    -0.301 OA
ENDBRANCH  10  18
ENDBRANCH   7   9
ENDBRANCH   2   7
BRANCH   1  20
HETATM   20  C   UNK N   1      34.892  15.377   8.663  0.00  0.00     0.015 C 
HETATM   21  C   UNK N   1      35.219  14.918   9.884  0.00  0.00     0.056 C 
BRANCH  21  22
HETATM   22  C   UNK N   1      36.572  15.096  10.460  0.00  0.00     0.133 C 
HETATM   23  N   UNK N   1      37.395  14.116  10.534  0.00  0.00    -0.380 N 
HETATM   24  H   UNK N   1      38.091  14.050  11.227  0.00  0.00     0.158 HD
ATOM     25  HN  UNK N   1      37.326  13.369   9.842  1.00  0.00     0.158 HD
BRANCH  22  26
HETATM   26  O   UNK N   1      36.949  16.312  10.894  0.00  0.00    -0.346 OA
HETATM   27  H   UNK N   1      37.520  16.908  10.449  0.00  0.00     0.219 HD
ENDBRANCH  22  26
ENDBRANCH  21  22
ENDBRANCH   1  20
BRANCH   1  28
HETATM   28  C   UNK N   1      32.765  13.947   8.323  0.00  0.00     0.198 C 
BRANCH  28  29
HETATM   29  S   UNK N   1      33.533  12.525   7.477  0.00  0.00     0.255 S 
HETATM   30  O   UNK N   1      32.440  12.500   6.397  0.00  0.00    -0.212 OA
HETATM   31  O   UNK N   1      32.776  11.509   8.345  0.00  0.00    -0.212 OA
ENDBRANCH  28  29
ENDBRANCH   1  28
TORSDOF 10
ENDMDL
MODEL 8
REMARK VINA RESULT:      -6.0      8.448     10.342
REMARK  10 active torsions:
REMARK  status: ('A' for Active; 'I' for Inactive)
REMARK    1  A    between atoms: C_10  and  C_4 
REMARK    2  A    between atoms: C_13  and  C_5 
REMARK    3  A    between atoms: C_11  and  C_8 
REMARK    4  A    between atoms: C_10  and  C_9 
REMARK    5  A    between atoms: S_27  and  C_9 
REMARK    6  A    between atoms: O_22  and  C_13 
REMARK    7  A    between atoms: C_16  and  C_14 
REMARK    8  A    between atoms: N_19  and  C_14 
REMARK    9  A    between atoms: N_19  and  C_15 
REMARK   10  A    between atoms: O_24  and  C_16 
ROOT
HETATM    1  C   UNK N   1      31.076  16.985   6.764  0.00  0.00    -0.010 C 
HETATM    2  C   UNK N   1      29.724  17.195   6.866  0.00  0.00     0.115 C 
ENDROOT
BRANCH   2   3
HETATM    3  C   UNK N   1      29.107  17.844   8.076  0.00  0.00     0.194 C 
HETATM    4  O   UNK N   1      29.023  17.218   9.117  0.00  0.00    -0.645 OA
BRANCH   3   5
HETATM    5  O   UNK N   1      28.686  19.122   8.068  0.00  0.00    -0.772 OA
HETATM    6  H   UNK N   1      27.998  19.397   8.643  0.00  0.00     0.167 HD
ENDBRANCH   3   5
ENDBRANCH   2   3
BRANCH   2   7
HETATM    7  N   UNK N   1      28.896  16.610   5.850  0.00  0.00    -0.335 N 
HETATM    8  H   UNK N   1      29.375  15.965   5.283  0.00  0.00     0.168 HD
BRANCH   7   9
HETATM    9  C   UNK N   1      27.518  16.769   5.491  0.00  0.00     0.126 A 
HETATM   10  C   UNK N   1      26.387  15.957   5.737  0.00  0.00     0.048 A 
HETATM   11  C   UNK N   1      25.292  16.597   5.155  0.00  0.00     0.048 A 
HETATM   12  C   UNK N   1      25.788  17.770   4.627  0.00  0.00     0.041 A 
HETATM   13  C   UNK N   1      25.082  18.779   3.978  0.00  0.00     0.030 A 
HETATM   14  N   UNK N   1      27.108  17.870   4.840  0.00  0.00    -0.308 N 
HETATM   15  C   UNK N   1      25.799  19.911   3.560  0.00  0.00     0.004 A 
HETATM   16  C   UNK N   1      27.184  20.000   3.796  0.00  0.00     0.018 A 
HETATM   17  C   UNK N   1      27.841  18.946   4.447  0.00  0.00     0.099 A 
BRANCH  10  18
HETATM   18  C   UNK N   1      26.196  14.726   6.524  0.00  0.00     0.273 C 
HETATM   19  O   UNK N   1      25.609  14.726   7.591  0.00  0.00    -0.301 OA
ENDBRANCH  10  18
ENDBRANCH   7   9
ENDBRANCH   2   7
BRANCH   1  20
HETATM   20  C   UNK N   1      32.058  17.493   7.774  0.00  0.00     0.015 C 
HETATM   21  C   UNK N   1      33.384  17.523   7.551  0.00  0.00     0.056 C 
BRANCH  21  22
HETATM   22  C   UNK N   1      34.349  17.983   8.575  0.00  0.00     0.133 C 
HETATM   23  N   UNK N   1      34.547  17.310   9.649  0.00  0.00    -0.380 N 
HETATM   24  H   UNK N   1      34.825  17.723  10.498  0.00  0.00     0.158 HD
ATOM     25  HN  UNK N   1      34.411  16.299   9.622  1.00  0.00     0.158 HD
BRANCH  22  26
HETATM   26  O   UNK N   1      35.043  19.116   8.366  0.00  0.00    -0.346 OA
HETATM   27  H   UNK N   1      34.726  19.990   8.483  0.00  0.00     0.219 HD
ENDBRANCH  22  26
ENDBRANCH  21  22
ENDBRANCH   1  20
BRANCH   1  28
HETATM   28  C   UNK N   1      31.607  16.166   5.602  0.00  0.00     0.198 C 
BRANCH  28  29
HETATM   29  S   UNK N   1      31.884  14.416   6.039  0.00  0.00     0.255 S 
HETATM   30  O   UNK N   1      32.394  14.082   4.628  0.00  0.00    -0.212 OA
HETATM   31  O   UNK N   1      30.446  14.023   5.671  0.00  0.00    -0.212 OA
ENDBRANCH  28  29
ENDBRANCH   1  28
TORSDOF 10
ENDMDL
MODEL 9
REMARK VINA RESULT:      -5.9      8.815     10.631
REMARK  10 active torsions:
REMARK  status: ('A' for Active; 'I' for Inactive)
REMARK    1  A    between atoms: C_10  and  C_4 
REMARK    2  A    between atoms: C_13  and  C_5 
REMARK    3  A    between atoms: C_11  and  C_8 
REMARK    4  A    between atoms: C_10  and  C_9 
REMARK    5  A    between atoms: S_27  and  C_9 
REMARK    6  A    between atoms: O_22  and  C_13 
REMARK    7  A    between atoms: C_16  and  C_14 
REMARK    8  A    between atoms: N_19  and  C_14 
REMARK    9  A    between atoms: N_19  and  C_15 
REMARK   10  A    between atoms: O_24  and  C_16 
ROOT
HETATM    1  C   UNK N   1      31.123  17.134   7.298  0.00  0.00    -0.010 C 
HETATM    2  C   UNK N   1      29.806  17.192   7.678  0.00  0.00     0.115 C 
ENDROOT
BRANCH   2   3
HETATM    3  C   UNK N   1      29.385  17.730   9.019  0.00  0.00     0.194 C 
HETATM    4  O   UNK N   1      28.733  18.757   9.077  0.00  0.00    -0.645 OA
BRANCH   3   5
HETATM    5  O   UNK N   1      29.659  17.087  10.168  0.00  0.00    -0.772 OA
HETATM    6  H   UNK N   1      28.963  16.791  10.723  0.00  0.00     0.167 HD
ENDBRANCH   3   5
ENDBRANCH   2   3
BRANCH   2   7
HETATM    7  N   UNK N   1      28.851  16.554   6.816  0.00  0.00    -0.335 N 
HETATM    8  H   UNK N   1      28.720  15.601   7.021  0.00  0.00     0.168 HD
BRANCH   7   9
HETATM    9  C   UNK N   1      28.050  17.016   5.721  0.00  0.00     0.126 A 
HETATM   10  C   UNK N   1      27.540  18.298   5.410  0.00  0.00     0.048 A 
HETATM   11  C   UNK N   1      26.822  18.172   4.221  0.00  0.00     0.048 A 
HETATM   12  C   UNK N   1      26.958  16.853   3.845  0.00  0.00     0.041 A 
HETATM   13  C   UNK N   1      26.460  16.236   2.701  0.00  0.00     0.030 A 
HETATM   14  N   UNK N   1      27.698  16.175   4.735  0.00  0.00    -0.308 N 
HETATM   15  C   UNK N   1      26.765  14.880   2.506  0.00  0.00     0.004 A 
HETATM   16  C   UNK N   1      27.547  14.186   3.450  0.00  0.00     0.018 A 
HETATM   17  C   UNK N   1      28.012  14.861   4.587  0.00  0.00     0.099 A 
BRANCH  10  18
HETATM   18  C   UNK N   1      27.726  19.622   6.029  0.00  0.00     0.273 C 
HETATM   19  O   UNK N   1      27.849  20.635   5.365  0.00  0.00    -0.301 OA
ENDBRANCH  10  18
ENDBRANCH   7   9
ENDBRANCH   2   7
BRANCH   1  20
HETATM   20  C   UNK N   1      32.234  17.713   8.119  0.00  0.00     0.015 C 
HETATM   21  C   UNK N   1      33.531  17.465   7.867  0.00  0.00     0.056 C 
BRANCH  21  22
HETATM   22  C   UNK N   1      34.619  18.004   8.715  0.00  0.00     0.133 C 
HETATM   23  N   UNK N   1      35.008  17.384   9.768  0.00  0.00    -0.380 N 
HETATM   24  H   UNK N   1      35.393  17.843  10.550  0.00  0.00     0.158 HD
ATOM     25  HN  UNK N   1      34.915  16.369   9.797  1.00  0.00     0.158 HD
BRANCH  22  26
HETATM   26  O   UNK N   1      35.221  19.155   8.363  0.00  0.00    -0.346 OA
HETATM   27  H   UNK N   1      35.976  19.240   7.815  0.00  0.00     0.219 HD
ENDBRANCH  22  26
ENDBRANCH  21  22
ENDBRANCH   1  20
BRANCH   1  28
HETATM   28  C   UNK N   1      31.486  16.416   6.012  0.00  0.00     0.198 C 
BRANCH  28  29
HETATM   29  S   UNK N   1      31.600  17.542   4.581  0.00  0.00     0.255 S 
HETATM   30  O   UNK N   1      30.991  16.497   3.632  0.00  0.00    -0.212 OA
HETATM   31  O   UNK N   1      33.030  17.091   4.250  0.00  0.00    -0.212 OA
ENDBRANCH  28  29
ENDBRANCH   1  28
TORSDOF 10
ENDMDL
