MODEL 1
REMARK VINA RESULT:      -6.4      0.000      0.000
REMARK  8 active torsions:
REMARK  status: ('A' for Active; 'I' for Inactive)
REMARK    1  A    between atoms: C_4  and  C_1 
REMARK    2  A    between atoms: O_24  and  C_1 
REMARK    3  A    between atoms: C_6  and  O_20 
REMARK    4  A    between atoms: C_7  and  O_21 
REMARK    5  A    between atoms: N_11  and  C_8 
REMARK    6  A    between atoms: C_10  and  N_19 
REMARK    7  A    between atoms: S_26  and  N_12 
REMARK    8  A    between atoms: S_26  and  O_24 
ROOT
HETATM    1  C   UNK N   1      35.150  12.683  12.438  0.00  0.00     0.180 C 
HETATM    2  C   UNK N   1      36.658  12.428  12.494  0.00  0.00     0.182 C 
HETATM    3  C   UNK N   1      36.806  11.577  13.756  0.00  0.00     0.198 C 
HETATM    4  C   UNK N   1      35.363  11.485  14.253  0.00  0.00     0.262 C 
HETATM    5  O   UNK N   1      34.709  12.652  13.782  0.00  0.00    -0.353 OA
ENDROOT
BRANCH   4   6
HETATM    6  N   UNK N   1      35.244  11.297  15.705  0.00  0.00    -0.297 N 
HETATM    7  C   UNK N   1      35.103  10.126  16.381  0.00  0.00     0.188 A 
HETATM    8  N   UNK N   1      35.095  10.331  17.731  0.00  0.00    -0.346 N 
HETATM    9  C   UNK N   1      35.225  11.663  17.868  0.00  0.00     0.122 A 
ATOM     10  HN  UNK N   1      35.010   9.631  18.468  1.00  0.00     0.167 HD
HETATM   11  C   UNK N   1      35.282  12.443  19.013  0.00  0.00     0.131 A 
HETATM   12  C   UNK N   1      35.313  12.241  16.655  0.00  0.00     0.142 A 
HETATM   13  N   UNK N   1      35.402  13.797  18.862  0.00  0.00    -0.337 N 
HETATM   14  C   UNK N   1      35.475  14.364  17.612  0.00  0.00     0.183 A 
ATOM     15  HN  UNK N   1      35.438  14.394  19.688  1.00  0.00     0.168 HD
HETATM   16  N   UNK N   1      35.440  13.579  16.491  0.00  0.00    -0.336 N 
ATOM     17  HN  UNK N   1      35.507  13.990  15.560  1.00  0.00     0.168 HD
BRANCH  11  18
HETATM   18  N   UNK N   1      35.222  11.867  20.299  0.00  0.00    -0.383 N 
HETATM   19  H   UNK N   1      34.486  11.277  20.578  0.00  0.00     0.157 HD
HETATM   20  H   UNK N   1      35.943  12.062  20.940  0.00  0.00     0.157 HD
ENDBRANCH  11  18
ENDBRANCH   4   6
BRANCH   3  21
HETATM   21  O   UNK N   1      37.610  12.231  14.699  0.00  0.00    -0.388 OA
HETATM   22  H   UNK N   1      37.861  12.853  15.399  0.00  0.00     0.210 HD
ENDBRANCH   3  21
BRANCH   2  23
HETATM   23  O   UNK N   1      37.342  13.642  12.662  0.00  0.00    -0.390 OA
HETATM   24  H   UNK N   1      37.779  14.485  12.464  0.00  0.00     0.210 HD
ENDBRANCH   2  23
BRANCH   1  25
HETATM   25  C   UNK N   1      34.832  13.961  11.654  0.00  0.00     0.226 C 
BRANCH  25  26
HETATM   26  O   UNK N   1      35.530  14.075  10.442  0.00  0.00    -0.257 OA
BRANCH  26  27
HETATM   27  S   UNK N   1      35.191  15.665   9.855  0.00  0.00     0.355 S 
HETATM   28  O   UNK N   1      34.169  15.336  10.955  0.00  0.00    -0.176 OA
HETATM   29  O   UNK N   1      36.548  15.775  10.574  0.00  0.00    -0.176 OA
BRANCH  27  30
HETATM   30  N   UNK N   1      35.120  17.051  10.943  0.00  0.00    -0.306 N 
HETATM   31  H   UNK N   1      35.331  17.022  11.941  0.00  0.00     0.171 HD
HETATM   32  H   UNK N   1      34.847  17.950  10.546  0.00  0.00     0.171 HD
ENDBRANCH  27  30
ENDBRANCH  26  27
ENDBRANCH  25  26
ENDBRANCH   1  25
TORSDOF 8
ENDMDL
MODEL 2
REMARK VINA RESULT:      -6.1      0.874      1.917
REMARK  8 active torsions:
REMARK  status: ('A' for Active; 'I' for Inactive)
REMARK    1  A    between atoms: C_4  and  C_1 
REMARK    2  A    between atoms: O_24  and  C_1 
REMARK    3  A    between atoms: C_6  and  O_20 
REMARK    4  A    between atoms: C_7  and  O_21 
REMARK    5  A    between atoms: N_11  and  C_8 
REMARK    6  A    between atoms: C_10  and  N_19 
REMARK    7  A    between atoms: S_26  and  N_12 
REMARK    8  A    between atoms: S_26  and  O_24 
ROOT
HETATM    1  C   UNK N   1      35.018  13.071  12.528  0.00  0.00     0.180 C 
HETATM    2  C   UNK N   1      36.489  12.650  12.520  0.00  0.00     0.182 C 
HETATM    3  C   UNK N   1      36.663  12.024  13.905  0.00  0.00     0.198 C 
HETATM    4  C   UNK N   1      35.272  12.197  14.515  0.00  0.00     0.262 C 
HETATM    5  O   UNK N   1      34.704  13.333  13.882  0.00  0.00    -0.353 OA
ENDROOT
BRANCH   4   6
HETATM    6  N   UNK N   1      35.271  12.285  15.980  0.00  0.00    -0.297 N 
HETATM    7  C   UNK N   1      35.040  13.385  16.745  0.00  0.00     0.188 A 
HETATM    8  N   UNK N   1      35.050  13.076  18.075  0.00  0.00    -0.346 N 
HETATM    9  C   UNK N   1      35.304  11.755  18.109  0.00  0.00     0.122 A 
ATOM     10  HN  UNK N   1      34.899  13.704  18.863  1.00  0.00     0.167 HD
HETATM   11  C   UNK N   1      35.427  10.895  19.191  0.00  0.00     0.131 A 
HETATM   12  C   UNK N   1      35.437  11.282  16.856  0.00  0.00     0.142 A 
HETATM   13  N   UNK N   1      35.707   9.581  18.937  0.00  0.00    -0.337 N 
HETATM   14  C   UNK N   1      35.854   9.126  17.648  0.00  0.00     0.183 A 
ATOM     15  HN  UNK N   1      35.810   8.930  19.714  1.00  0.00     0.168 HD
HETATM   16  N   UNK N   1      35.708   9.982  16.590  0.00  0.00    -0.336 N 
ATOM     17  HN  UNK N   1      35.801   9.650  15.630  1.00  0.00     0.168 HD
BRANCH  11  18
HETATM   18  N   UNK N   1      35.264  11.351  20.515  0.00  0.00    -0.383 N 
HETATM   19  H   UNK N   1      35.965  11.249  21.197  0.00  0.00     0.157 HD
HETATM   20  H   UNK N   1      34.418  11.787  20.765  0.00  0.00     0.157 HD
ENDBRANCH  11  18
ENDBRANCH   4   6
BRANCH   3  21
HETATM   21  O   UNK N   1      37.617  12.732  14.648  0.00  0.00    -0.388 OA
HETATM   22  H   UNK N   1      38.041  13.151  15.413  0.00  0.00     0.210 HD
ENDBRANCH   3  21
BRANCH   2  23
HETATM   23  O   UNK N   1      37.310  13.782  12.408  0.00  0.00    -0.390 OA
HETATM   24  H   UNK N   1      37.738  14.630  12.607  0.00  0.00     0.210 HD
ENDBRANCH   2  23
BRANCH   1  25
HETATM   25  C   UNK N   1      34.764  14.218  11.544  0.00  0.00     0.226 C 
BRANCH  25  26
HETATM   26  O   UNK N   1      35.475  14.104  10.340  0.00  0.00    -0.257 OA
BRANCH  26  27
HETATM   27  S   UNK N   1      35.272  15.618   9.531  0.00  0.00     0.355 S 
HETATM   28  O   UNK N   1      34.019  15.363  10.384  0.00  0.00    -0.176 OA
HETATM   29  O   UNK N   1      36.416  15.841  10.538  0.00  0.00    -0.176 OA
BRANCH  27  30
HETATM   30  N   UNK N   1      34.930  17.100  10.427  0.00  0.00    -0.306 N 
HETATM   31  H   UNK N   1      35.240  17.290  11.380  0.00  0.00     0.171 HD
HETATM   32  H   UNK N   1      34.381  17.819   9.957  0.00  0.00     0.171 HD
ENDBRANCH  27  30
ENDBRANCH  26  27
ENDBRANCH  25  26
ENDBRANCH   1  25
TORSDOF 8
ENDMDL
MODEL 3
REMARK VINA RESULT:      -6.0      5.277      9.426
REMARK  8 active torsions:
REMARK  status: ('A' for Active; 'I' for Inactive)
REMARK    1  A    between atoms: C_4  and  C_1 
REMARK    2  A    between atoms: O_24  and  C_1 
REMARK    3  A    between atoms: C_6  and  O_20 
REMARK    4  A    between atoms: C_7  and  O_21 
REMARK    5  A    between atoms: N_11  and  C_8 
REMARK    6  A    between atoms: C_10  and  N_19 
REMARK    7  A    between atoms: S_26  and  N_12 
REMARK    8  A    between atoms: S_26  and  O_24 
ROOT
HETATM    1  C   UNK N   1      34.337  15.867   9.277  0.00  0.00     0.180 C 
HETATM    2  C   UNK N   1      34.077  14.526   8.587  0.00  0.00     0.182 C 
HETATM    3  C   UNK N   1      33.090  14.907   7.482  0.00  0.00     0.198 C 
HETATM    4  C   UNK N   1      32.910  16.408   7.713  0.00  0.00     0.262 C 
HETATM    5  O   UNK N   1      33.157  16.626   9.093  0.00  0.00    -0.353 OA
ENDROOT
BRANCH   4   6
HETATM    6  N   UNK N   1      31.612  16.928   7.264  0.00  0.00    -0.297 N 
HETATM    7  C   UNK N   1      31.101  16.911   6.005  0.00  0.00     0.188 A 
HETATM    8  N   UNK N   1      29.835  17.420   5.976  0.00  0.00    -0.346 N 
HETATM    9  C   UNK N   1      29.582  17.762   7.252  0.00  0.00     0.122 A 
ATOM     10  HN  UNK N   1      29.220  17.519   5.168  1.00  0.00     0.167 HD
HETATM   11  C   UNK N   1      28.450  18.326   7.821  0.00  0.00     0.131 A 
HETATM   12  C   UNK N   1      30.646  17.468   8.023  0.00  0.00     0.142 A 
HETATM   13  N   UNK N   1      28.468  18.588   9.162  0.00  0.00    -0.337 N 
HETATM   14  C   UNK N   1      29.573  18.293   9.925  0.00  0.00     0.183 A 
ATOM     15  HN  UNK N   1      27.651  19.010   9.603  1.00  0.00     0.168 HD
HETATM   16  N   UNK N   1      30.675  17.716   9.354  0.00  0.00    -0.336 N 
ATOM     17  HN  UNK N   1      31.494  17.480   9.915  1.00  0.00     0.168 HD
BRANCH  11  18
HETATM   18  N   UNK N   1      27.307  18.618   7.047  0.00  0.00    -0.383 N 
HETATM   19  H   UNK N   1      27.324  19.269   6.309  0.00  0.00     0.157 HD
HETATM   20  H   UNK N   1      26.464  18.155   7.253  0.00  0.00     0.157 HD
ENDBRANCH  11  18
ENDBRANCH   4   6
BRANCH   3  21
HETATM   21  O   UNK N   1      31.873  14.233   7.657  0.00  0.00    -0.388 OA
HETATM   22  H   UNK N   1      31.252  13.543   7.937  0.00  0.00     0.210 HD
ENDBRANCH   3  21
BRANCH   2  23
HETATM   23  O   UNK N   1      33.462  13.639   9.483  0.00  0.00    -0.390 OA
HETATM   24  H   UNK N   1      33.094  13.266  10.300  0.00  0.00     0.210 HD
ENDBRANCH   2  23
BRANCH   1  25
HETATM   25  C   UNK N   1      34.788  15.667  10.728  0.00  0.00     0.226 C 
BRANCH  25  26
HETATM   26  O   UNK N   1      36.013  14.993  10.855  0.00  0.00    -0.257 OA
BRANCH  26  27
HETATM   27  S   UNK N   1      35.835  13.954  12.225  0.00  0.00     0.355 S 
HETATM   28  O   UNK N   1      34.498  14.677  11.999  0.00  0.00    -0.176 OA
HETATM   29  O   UNK N   1      36.003  13.014  11.016  0.00  0.00    -0.176 OA
BRANCH  27  30
HETATM   30  N   UNK N   1      34.557  12.739  12.296  0.00  0.00    -0.306 N 
HETATM   31  H   UNK N   1      33.946  12.488  11.519  0.00  0.00     0.171 HD
HETATM   32  H   UNK N   1      34.418  12.252  13.182  0.00  0.00     0.171 HD
ENDBRANCH  27  30
ENDBRANCH  26  27
ENDBRANCH  25  26
ENDBRANCH   1  25
TORSDOF 8
ENDMDL
MODEL 4
REMARK VINA RESULT:      -5.9      3.590      5.505
REMARK  8 active torsions:
REMARK  status: ('A' for Active; 'I' for Inactive)
REMARK    1  A    between atoms: C_4  and  C_1 
REMARK    2  A    between atoms: O_24  and  C_1 
REMARK    3  A    between atoms: C_6  and  O_20 
REMARK    4  A    between atoms: C_7  and  O_21 
REMARK    5  A    between atoms: N_11  and  C_8 
REMARK    6  A    between atoms: C_10  and  N_19 
REMARK    7  A    between atoms: S_26  and  N_12 
REMARK    8  A    between atoms: S_26  and  O_24 
ROOT
HETATM    1  C   UNK N   1      34.202  12.583   8.849  0.00  0.00     0.180 C 
HETATM    2  C   UNK N   1      33.376  13.871   8.880  0.00  0.00     0.182 C 
HETATM    3  C   UNK N   1      34.054  14.674   9.991  0.00  0.00     0.198 C 
HETATM    4  C   UNK N   1      35.157  13.721  10.451  0.00  0.00     0.262 C 
HETATM    5  O   UNK N   1      34.690  12.412  10.165  0.00  0.00    -0.353 OA
ENDROOT
BRANCH   4   6
HETATM    6  N   UNK N   1      35.556  13.904  11.853  0.00  0.00    -0.297 N 
HETATM    7  C   UNK N   1      36.324  14.896  12.374  0.00  0.00     0.188 A 
HETATM    8  N   UNK N   1      36.428  14.783  13.731  0.00  0.00    -0.346 N 
HETATM    9  C   UNK N   1      35.709  13.686  14.030  0.00  0.00     0.122 A 
ATOM     10  HN  UNK N   1      36.935  15.393  14.371  1.00  0.00     0.167 HD
HETATM   11  C   UNK N   1      35.457  13.089  15.257  0.00  0.00     0.131 A 
HETATM   12  C   UNK N   1      35.188  13.159  12.906  0.00  0.00     0.142 A 
HETATM   13  N   UNK N   1      34.695  11.954  15.273  0.00  0.00    -0.337 N 
HETATM   14  C   UNK N   1      34.187  11.427  14.110  0.00  0.00     0.183 A 
ATOM     15  HN  UNK N   1      34.501  11.491  16.161  1.00  0.00     0.168 HD
HETATM   16  N   UNK N   1      34.427  12.040  12.909  0.00  0.00    -0.336 N 
ATOM     17  HN  UNK N   1      34.042  11.664  12.042  1.00  0.00     0.168 HD
BRANCH  11  18
HETATM   18  N   UNK N   1      35.962  13.632  16.456  0.00  0.00    -0.383 N 
HETATM   19  H   UNK N   1      36.409  14.508  16.491  0.00  0.00     0.157 HD
HETATM   20  H   UNK N   1      35.864  13.116  17.288  0.00  0.00     0.157 HD
ENDBRANCH  11  18
ENDBRANCH   4   6
BRANCH   3  21
HETATM   21  O   UNK N   1      33.154  14.926  11.035  0.00  0.00    -0.388 OA
HETATM   22  H   UNK N   1      32.795  15.316  11.847  0.00  0.00     0.210 HD
ENDBRANCH   3  21
BRANCH   2  23
HETATM   23  O   UNK N   1      32.053  13.582   9.247  0.00  0.00    -0.390 OA
HETATM   24  H   UNK N   1      31.089  13.482   9.206  0.00  0.00     0.210 HD
ENDBRANCH   2  23
BRANCH   1  25
HETATM   25  C   UNK N   1      33.389  11.417   8.276  0.00  0.00     0.226 C 
BRANCH  25  26
HETATM   26  O   UNK N   1      32.438  10.893   9.165  0.00  0.00    -0.257 OA
BRANCH  26  27
HETATM   27  S   UNK N   1      32.625   9.177   9.093  0.00  0.00     0.355 S 
HETATM   28  O   UNK N   1      32.781   9.611  10.559  0.00  0.00    -0.176 OA
HETATM   29  O   UNK N   1      31.150   9.444   8.739  0.00  0.00    -0.176 OA
BRANCH  27  30
HETATM   30  N   UNK N   1      31.626   8.101  10.073  0.00  0.00    -0.306 N 
HETATM   31  H   UNK N   1      30.861   7.528   9.715  0.00  0.00     0.171 HD
HETATM   32  H   UNK N   1      31.828   8.049  11.071  0.00  0.00     0.171 HD
ENDBRANCH  27  30
ENDBRANCH  26  27
ENDBRANCH  25  26
ENDBRANCH   1  25
TORSDOF 8
ENDMDL
MODEL 5
REMARK VINA RESULT:      -5.9     15.310     18.619
REMARK  8 active torsions:
REMARK  status: ('A' for Active; 'I' for Inactive)
REMARK    1  A    between atoms: C_4  and  C_1 
REMARK    2  A    between atoms: O_24  and  C_1 
REMARK    3  A    between atoms: C_6  and  O_20 
REMARK    4  A    between atoms: C_7  and  O_21 
REMARK    5  A    between atoms: N_11  and  C_8 
REMARK    6  A    between atoms: C_10  and  N_19 
REMARK    7  A    between atoms: S_26  and  N_12 
REMARK    8  A    between atoms: S_26  and  O_24 
ROOT
HETATM    1  C   UNK N   1      22.111  14.078   6.819  0.00  0.00     0.180 C 
HETATM    2  C   UNK N   1      20.613  13.763   6.802  0.00  0.00     0.182 C 
HETATM    3  C   UNK N   1      20.101  14.645   5.662  0.00  0.00     0.198 C 
HETATM    4  C   UNK N   1      21.376  15.354   5.204  0.00  0.00     0.262 C 
HETATM    5  O   UNK N   1      22.227  15.404   6.339  0.00  0.00    -0.353 OA
ENDROOT
BRANCH   4   6
HETATM    6  N   UNK N   1      21.140  16.669   4.596  0.00  0.00    -0.297 N 
HETATM    7  C   UNK N   1      21.320  17.891   5.164  0.00  0.00     0.188 A 
HETATM    8  N   UNK N   1      21.067  18.895   4.273  0.00  0.00    -0.346 N 
HETATM    9  C   UNK N   1      20.715  18.257   3.142  0.00  0.00     0.122 A 
ATOM     10  HN  UNK N   1      21.130  19.900   4.431  1.00  0.00     0.167 HD
HETATM   11  C   UNK N   1      20.351  18.766   1.904  0.00  0.00     0.131 A 
HETATM   12  C   UNK N   1      20.757  16.926   3.336  0.00  0.00     0.142 A 
HETATM   13  N   UNK N   1      20.021  17.879   0.917  0.00  0.00    -0.337 N 
HETATM   14  C   UNK N   1      20.058  16.524   1.145  0.00  0.00     0.183 A 
ATOM     15  HN  UNK N   1      19.743  18.227   0.001  1.00  0.00     0.168 HD
HETATM   16  N   UNK N   1      20.440  16.036   2.365  0.00  0.00    -0.336 N 
ATOM     17  HN  UNK N   1      20.484  15.031   2.538  1.00  0.00     0.168 HD
BRANCH  11  18
HETATM   18  N   UNK N   1      20.325  20.155   1.659  0.00  0.00    -0.383 N 
HETATM   19  H   UNK N   1      20.710  20.553   0.846  0.00  0.00     0.157 HD
HETATM   20  H   UNK N   1      19.907  20.746   2.326  0.00  0.00     0.157 HD
ENDBRANCH  11  18
ENDBRANCH   4   6
BRANCH   3  21
HETATM   21  O   UNK N   1      19.166  15.573   6.140  0.00  0.00    -0.388 OA
HETATM   22  H   UNK N   1      18.477  16.255   6.123  0.00  0.00     0.210 HD
ENDBRANCH   3  21
BRANCH   2  23
HETATM   23  O   UNK N   1      20.026  14.168   8.011  0.00  0.00    -0.390 OA
HETATM   24  H   UNK N   1      19.389  14.530   8.647  0.00  0.00     0.210 HD
ENDBRANCH   2  23
BRANCH   1  25
HETATM   25  C   UNK N   1      22.719  13.807   8.199  0.00  0.00     0.226 C 
BRANCH  25  26
HETATM   26  O   UNK N   1      22.267  12.621   8.798  0.00  0.00    -0.257 OA
BRANCH  26  27
HETATM   27  S   UNK N   1      22.660  12.765  10.476  0.00  0.00     0.355 S 
HETATM   28  O   UNK N   1      21.153  13.021  10.316  0.00  0.00    -0.176 OA
HETATM   29  O   UNK N   1      22.864  11.278  10.133  0.00  0.00    -0.176 OA
BRANCH  27  30
HETATM   30  N   UNK N   1      21.828  11.805  11.700  0.00  0.00    -0.306 N 
HETATM   31  H   UNK N   1      21.743  12.062  12.684  0.00  0.00     0.171 HD
HETATM   32  H   UNK N   1      21.401  10.928  11.403  0.00  0.00     0.171 HD
ENDBRANCH  27  30
ENDBRANCH  26  27
ENDBRANCH  25  26
ENDBRANCH   1  25
TORSDOF 8
ENDMDL
MODEL 6
REMARK VINA RESULT:      -5.9      2.304      3.326
REMARK  8 active torsions:
REMARK  status: ('A' for Active; 'I' for Inactive)
REMARK    1  A    between atoms: C_4  and  C_1 
REMARK    2  A    between atoms: O_24  and  C_1 
REMARK    3  A    between atoms: C_6  and  O_20 
REMARK    4  A    between atoms: C_7  and  O_21 
REMARK    5  A    between atoms: N_11  and  C_8 
REMARK    6  A    between atoms: C_10  and  N_19 
REMARK    7  A    between atoms: S_26  and  N_12 
REMARK    8  A    between atoms: S_26  and  O_24 
ROOT
HETATM    1  C   UNK N   1      35.263  13.909   9.856  0.00  0.00     0.180 C 
HETATM    2  C   UNK N   1      36.776  14.114   9.741  0.00  0.00     0.182 C 
HETATM    3  C   UNK N   1      37.333  12.923  10.521  0.00  0.00     0.198 C 
HETATM    4  C   UNK N   1      36.059  12.218  10.989  0.00  0.00     0.262 C 
HETATM    5  O   UNK N   1      35.063  13.225  11.078  0.00  0.00    -0.353 OA
ENDROOT
BRANCH   4   6
HETATM    6  N   UNK N   1      36.224  11.452  12.231  0.00  0.00    -0.297 N 
HETATM    7  C   UNK N   1      36.555  10.140  12.357  0.00  0.00     0.188 A 
HETATM    8  N   UNK N   1      36.688   9.786  13.670  0.00  0.00    -0.346 N 
HETATM    9  C   UNK N   1      36.419  10.916  14.349  0.00  0.00     0.122 A 
ATOM     10  HN  UNK N   1      36.935   8.872  14.048  1.00  0.00     0.167 HD
HETATM   11  C   UNK N   1      36.403  11.156  15.715  0.00  0.00     0.131 A 
HETATM   12  C   UNK N   1      36.140  11.912  13.488  0.00  0.00     0.142 A 
HETATM   13  N   UNK N   1      36.075  12.413  16.142  0.00  0.00    -0.337 N 
HETATM   14  C   UNK N   1      35.780  13.409  15.242  0.00  0.00     0.183 A 
ATOM     15  HN  UNK N   1      36.049  12.614  17.141  1.00  0.00     0.168 HD
HETATM   16  N   UNK N   1      35.821  13.163  13.896  0.00  0.00    -0.336 N 
ATOM     17  HN  UNK N   1      35.617  13.900  13.221  1.00  0.00     0.168 HD
BRANCH  11  18
HETATM   18  N   UNK N   1      36.719  10.143  16.643  0.00  0.00    -0.383 N 
HETATM   19  H   UNK N   1      37.558   9.630  16.598  0.00  0.00     0.157 HD
HETATM   20  H   UNK N   1      36.078   9.941  17.362  0.00  0.00     0.157 HD
ENDBRANCH  11  18
ENDBRANCH   4   6
BRANCH   3  21
HETATM   21  O   UNK N   1      38.084  13.363  11.620  0.00  0.00    -0.388 OA
HETATM   22  H   UNK N   1      38.631  13.947  12.168  0.00  0.00     0.210 HD
ENDBRANCH   3  21
BRANCH   2  23
HETATM   23  O   UNK N   1      37.145  15.309  10.377  0.00  0.00    -0.390 OA
HETATM   24  H   UNK N   1      37.190  16.249  10.611  0.00  0.00     0.210 HD
ENDBRANCH   2  23
BRANCH   1  25
HETATM   25  C   UNK N   1      34.510  15.233   9.694  0.00  0.00     0.226 C 
BRANCH  25  26
HETATM   26  O   UNK N   1      34.882  15.966   8.556  0.00  0.00    -0.257 OA
BRANCH  26  27
HETATM   27  S   UNK N   1      34.069  17.485   8.692  0.00  0.00     0.355 S 
HETATM   28  O   UNK N   1      35.229  17.475   9.700  0.00  0.00    -0.176 OA
HETATM   29  O   UNK N   1      34.731  17.497   7.301  0.00  0.00    -0.176 OA
BRANCH  27  30
HETATM   30  N   UNK N   1      34.937  19.011   8.515  0.00  0.00    -0.306 N 
HETATM   31  H   UNK N   1      35.024  19.721   9.243  0.00  0.00     0.171 HD
HETATM   32  H   UNK N   1      35.384  19.198   7.618  0.00  0.00     0.171 HD
ENDBRANCH  27  30
ENDBRANCH  26  27
ENDBRANCH  25  26
ENDBRANCH   1  25
TORSDOF 8
ENDMDL
MODEL 7
REMARK VINA RESULT:      -5.9      5.135      7.318
REMARK  8 active torsions:
REMARK  status: ('A' for Active; 'I' for Inactive)
REMARK    1  A    between atoms: C_4  and  C_1 
REMARK    2  A    between atoms: O_24  and  C_1 
REMARK    3  A    between atoms: C_6  and  O_20 
REMARK    4  A    between atoms: C_7  and  O_21 
REMARK    5  A    between atoms: N_11  and  C_8 
REMARK    6  A    between atoms: C_10  and  N_19 
REMARK    7  A    between atoms: S_26  and  N_12 
REMARK    8  A    between atoms: S_26  and  O_24 
ROOT
HETATM    1  C   UNK N   1      32.497  16.329   7.375  0.00  0.00     0.180 C 
HETATM    2  C   UNK N   1      33.435  17.529   7.531  0.00  0.00     0.182 C 
HETATM    3  C   UNK N   1      34.575  16.952   8.372  0.00  0.00     0.198 C 
HETATM    4  C   UNK N   1      34.115  15.511   8.595  0.00  0.00     0.262 C 
HETATM    5  O   UNK N   1      32.698  15.536   8.528  0.00  0.00    -0.353 OA
ENDROOT
BRANCH   4   6
HETATM    6  N   UNK N   1      34.630  14.905   9.829  0.00  0.00    -0.297 N 
HETATM    7  C   UNK N   1      33.941  14.630  10.968  0.00  0.00     0.188 A 
HETATM    8  N   UNK N   1      34.731  14.001  11.887  0.00  0.00    -0.346 N 
HETATM    9  C   UNK N   1      35.931  13.905  11.285  0.00  0.00     0.122 A 
ATOM     10  HN  UNK N   1      34.470  13.677  12.817  1.00  0.00     0.167 HD
HETATM   11  C   UNK N   1      37.119  13.353  11.742  0.00  0.00     0.131 A 
HETATM   12  C   UNK N   1      35.870  14.447  10.054  0.00  0.00     0.142 A 
HETATM   13  N   UNK N   1      38.209  13.405  10.917  0.00  0.00    -0.337 N 
HETATM   14  C   UNK N   1      38.125  13.978   9.671  0.00  0.00     0.183 A 
ATOM     15  HN  UNK N   1      39.096  13.014  11.232  1.00  0.00     0.168 HD
HETATM   16  N   UNK N   1      36.940  14.499   9.225  0.00  0.00    -0.336 N 
ATOM     17  HN  UNK N   1      36.865  14.913   8.296  1.00  0.00     0.168 HD
BRANCH  11  18
HETATM   18  N   UNK N   1      37.209  12.751  13.013  0.00  0.00    -0.383 N 
HETATM   19  H   UNK N   1      38.071  12.580  13.455  0.00  0.00     0.157 HD
HETATM   20  H   UNK N   1      36.380  12.493  13.475  0.00  0.00     0.157 HD
ENDBRANCH  11  18
ENDBRANCH   4   6
BRANCH   3  21
HETATM   21  O   UNK N   1      34.676  17.630   9.594  0.00  0.00    -0.388 OA
HETATM   22  H   UNK N   1      34.434  18.217  10.327  0.00  0.00     0.210 HD
ENDBRANCH   3  21
BRANCH   2  23
HETATM   23  O   UNK N   1      32.791  18.549   8.248  0.00  0.00    -0.390 OA
HETATM   24  H   UNK N   1      32.372  19.397   8.462  0.00  0.00     0.210 HD
ENDBRANCH   2  23
BRANCH   1  25
HETATM   25  C   UNK N   1      31.057  16.782   7.112  0.00  0.00     0.226 C 
BRANCH  25  26
HETATM   26  O   UNK N   1      30.298  16.974   8.277  0.00  0.00    -0.257 OA
BRANCH  26  27
HETATM   27  S   UNK N   1      29.172  18.230   7.899  0.00  0.00     0.355 S 
HETATM   28  O   UNK N   1      28.375  16.952   8.208  0.00  0.00    -0.176 OA
HETATM   29  O   UNK N   1      29.817  18.645   9.235  0.00  0.00    -0.176 OA
BRANCH  27  30
HETATM   30  N   UNK N   1      27.878  18.670   9.015  0.00  0.00    -0.306 N 
HETATM   31  H   UNK N   1      27.108  18.058   9.286  0.00  0.00     0.171 HD
HETATM   32  H   UNK N   1      27.902  19.606   9.420  0.00  0.00     0.171 HD
ENDBRANCH  27  30
ENDBRANCH  26  27
ENDBRANCH  25  26
ENDBRANCH   1  25
TORSDOF 8
ENDMDL
MODEL 8
REMARK VINA RESULT:      -5.8      6.254      7.923
REMARK  8 active torsions:
REMARK  status: ('A' for Active; 'I' for Inactive)
REMARK    1  A    between atoms: C_4  and  C_1 
REMARK    2  A    between atoms: O_24  and  C_1 
REMARK    3  A    between atoms: C_6  and  O_20 
REMARK    4  A    between atoms: C_7  and  O_21 
REMARK    5  A    between atoms: N_11  and  C_8 
REMARK    6  A    between atoms: C_10  and  N_19 
REMARK    7  A    between atoms: S_26  and  N_12 
REMARK    8  A    between atoms: S_26  and  O_24 
ROOT
HETATM    1  C   UNK N   1      31.448  15.979   7.346  0.00  0.00     0.180 C 
HETATM    2  C   UNK N   1      32.377  16.538   6.265  0.00  0.00     0.182 C 
HETATM    3  C   UNK N   1      33.603  15.631   6.378  0.00  0.00     0.198 C 
HETATM    4  C   UNK N   1      33.209  14.697   7.523  0.00  0.00     0.262 C 
HETATM    5  O   UNK N   1      32.299  15.427   8.331  0.00  0.00    -0.353 OA
ENDROOT
BRANCH   4   6
HETATM    6  N   UNK N   1      34.351  14.158   8.273  0.00  0.00    -0.297 N 
HETATM    7  C   UNK N   1      34.981  12.969   8.083  0.00  0.00     0.188 A 
HETATM    8  N   UNK N   1      36.050  12.834   8.922  0.00  0.00    -0.346 N 
HETATM    9  C   UNK N   1      36.054  13.970   9.642  0.00  0.00     0.122 A 
ATOM     10  HN  UNK N   1      36.697  12.049   8.987  1.00  0.00     0.167 HD
HETATM   11  C   UNK N   1      36.915  14.390  10.646  0.00  0.00     0.131 A 
HETATM   12  C   UNK N   1      35.037  14.762   9.254  0.00  0.00     0.142 A 
HETATM   13  N   UNK N   1      36.676  15.603  11.230  0.00  0.00    -0.337 N 
HETATM   14  C   UNK N   1      35.622  16.386  10.826  0.00  0.00     0.183 A 
ATOM     15  HN  UNK N   1      37.289  15.931  11.975  1.00  0.00     0.168 HD
HETATM   16  N   UNK N   1      34.794  15.969   9.818  0.00  0.00    -0.336 N 
ATOM     17  HN  UNK N   1      34.017  16.550   9.503  1.00  0.00     0.168 HD
BRANCH  11  18
HETATM   18  N   UNK N   1      38.008  13.599  11.056  0.00  0.00    -0.383 N 
HETATM   19  H   UNK N   1      38.938  13.832  10.837  0.00  0.00     0.157 HD
HETATM   20  H   UNK N   1      37.833  12.784  11.580  0.00  0.00     0.157 HD
ENDBRANCH  11  18
ENDBRANCH   4   6
BRANCH   3  21
HETATM   21  O   UNK N   1      34.737  16.378   6.722  0.00  0.00    -0.388 OA
HETATM   22  H   UNK N   1      35.352  17.128   6.757  0.00  0.00     0.210 HD
ENDBRANCH   3  21
BRANCH   2  23
HETATM   23  O   UNK N   1      32.736  17.857   6.579  0.00  0.00    -0.390 OA
HETATM   24  H   UNK N   1      32.734  18.827   6.612  0.00  0.00     0.210 HD
ENDBRANCH   2  23
BRANCH   1  25
HETATM   25  C   UNK N   1      30.458  17.043   7.831  0.00  0.00     0.226 C 
BRANCH  25  26
HETATM   26  O   UNK N   1      30.932  17.816   8.903  0.00  0.00    -0.257 OA
BRANCH  26  27
HETATM   27  S   UNK N   1      29.543  18.607   9.560  0.00  0.00     0.355 S 
HETATM   28  O   UNK N   1      29.397  18.583   8.030  0.00  0.00    -0.176 OA
HETATM   29  O   UNK N   1      29.428  17.138  10.007  0.00  0.00    -0.176 OA
BRANCH  27  30
HETATM   30  N   UNK N   1      27.909  18.051   9.192  0.00  0.00    -0.306 N 
HETATM   31  H   UNK N   1      27.535  17.919   8.252  0.00  0.00     0.171 HD
HETATM   32  H   UNK N   1      27.292  17.847   9.978  0.00  0.00     0.171 HD
ENDBRANCH  27  30
ENDBRANCH  26  27
ENDBRANCH  25  26
ENDBRANCH   1  25
TORSDOF 8
ENDMDL
MODEL 9
REMARK VINA RESULT:      -5.8      9.189     12.585
REMARK  8 active torsions:
REMARK  status: ('A' for Active; 'I' for Inactive)
REMARK    1  A    between atoms: C_4  and  C_1 
REMARK    2  A    between atoms: O_24  and  C_1 
REMARK    3  A    between atoms: C_6  and  O_20 
REMARK    4  A    between atoms: C_7  and  O_21 
REMARK    5  A    between atoms: N_11  and  C_8 
REMARK    6  A    between atoms: C_10  and  N_19 
REMARK    7  A    between atoms: S_26  and  N_12 
REMARK    8  A    between atoms: S_26  and  O_24 
ROOT
HETATM    1  C   UNK N   1      30.505  17.201   8.428  0.00  0.00     0.180 C 
HETATM    2  C   UNK N   1      29.590  17.481   9.622  0.00  0.00     0.182 C 
HETATM    3  C   UNK N   1      28.195  17.307   9.021  0.00  0.00     0.198 C 
HETATM    4  C   UNK N   1      28.511  16.974   7.562  0.00  0.00     0.262 C 
HETATM    5  O   UNK N   1      29.764  17.579   7.284  0.00  0.00    -0.353 OA
ENDROOT
BRANCH   4   6
HETATM    6  N   UNK N   1      27.455  17.363   6.620  0.00  0.00    -0.297 N 
HETATM    7  C   UNK N   1      26.446  16.589   6.138  0.00  0.00     0.188 A 
HETATM    8  N   UNK N   1      25.608  17.308   5.335  0.00  0.00    -0.346 N 
HETATM    9  C   UNK N   1      26.135  18.546   5.326  0.00  0.00     0.122 A 
ATOM     10  HN  UNK N   1      24.773  16.980   4.852  1.00  0.00     0.167 HD
HETATM   11  C   UNK N   1      25.706  19.696   4.681  0.00  0.00     0.131 A 
HETATM   12  C   UNK N   1      27.240  18.578   6.094  0.00  0.00     0.142 A 
HETATM   13  N   UNK N   1      26.451  20.833   4.833  0.00  0.00    -0.337 N 
HETATM   14  C   UNK N   1      27.584  20.836   5.611  0.00  0.00     0.183 A 
ATOM     15  HN  UNK N   1      26.161  21.690   4.363  1.00  0.00     0.168 HD
HETATM   16  N   UNK N   1      27.983  19.698   6.259  0.00  0.00    -0.336 N 
ATOM     17  HN  UNK N   1      28.815  19.696   6.850  1.00  0.00     0.168 HD
BRANCH  11  18
HETATM   18  N   UNK N   1      24.536  19.704   3.893  0.00  0.00    -0.383 N 
HETATM   19  H   UNK N   1      24.148  18.881   3.520  0.00  0.00     0.157 HD
HETATM   20  H   UNK N   1      24.093  20.564   3.711  0.00  0.00     0.157 HD
ENDBRANCH  11  18
ENDBRANCH   4   6
BRANCH   3  21
HETATM   21  O   UNK N   1      27.471  18.504   9.105  0.00  0.00    -0.388 OA
HETATM   22  H   UNK N   1      27.015  19.260   9.506  0.00  0.00     0.210 HD
ENDBRANCH   3  21
BRANCH   2  23
HETATM   23  O   UNK N   1      29.757  18.807  10.051  0.00  0.00    -0.390 OA
HETATM   24  H   UNK N   1      30.162  19.612  10.409  0.00  0.00     0.210 HD
ENDBRANCH   2  23
BRANCH   1  25
HETATM   25  C   UNK N   1      31.868  17.879   8.601  0.00  0.00     0.226 C 
BRANCH  25  26
HETATM   26  O   UNK N   1      32.666  17.858   7.447  0.00  0.00    -0.257 OA
BRANCH  26  27
HETATM   27  S   UNK N   1      34.098  16.994   7.884  0.00  0.00     0.355 S 
HETATM   28  O   UNK N   1      33.076  15.980   7.346  0.00  0.00    -0.176 OA
HETATM   29  O   UNK N   1      34.495  17.860   6.674  0.00  0.00    -0.176 OA
BRANCH  27  30
HETATM   30  N   UNK N   1      34.938  15.961   6.727  0.00  0.00    -0.306 N 
HETATM   31  H   UNK N   1      35.171  16.226   5.770  0.00  0.00     0.171 HD
HETATM   32  H   UNK N   1      35.209  15.028   7.037  0.00  0.00     0.171 HD
ENDBRANCH  27  30
ENDBRANCH  26  27
ENDBRANCH  25  26
ENDBRANCH   1  25
TORSDOF 8
ENDMDL
