MODEL 1
REMARK VINA RESULT:      -4.6      0.000      0.000
REMARK  3 active torsions:
REMARK  status: ('A' for Active; 'I' for Inactive)
REMARK    1  A    between atoms: C_2  and  N_3 
REMARK    2  A    between atoms: N_3  and  C_4 
REMARK    3  A    between atoms: C_4  and  C_5 
ROOT
HETATM    1  C   UNK N   1      35.579  12.711  16.735  0.00  0.00    -0.041 A 
HETATM    2  C   UNK N   1      35.224  13.519  17.822  0.00  0.00     0.009 A 
HETATM    3  C   UNK N   1      35.113  12.965  19.101  0.00  0.00     0.001 A 
HETATM    4  C   UNK N   1      35.357  11.602  19.300  0.00  0.00     0.000 A 
HETATM    5  C   UNK N   1      35.713  10.792  18.218  0.00  0.00     0.001 A 
HETATM    6  C   UNK N   1      35.824  11.344  16.941  0.00  0.00     0.009 A 
ENDROOT
BRANCH   1   7
HETATM    7  C   UNK N   1      35.693  13.325  15.370  0.00  0.00     0.160 C 
BRANCH   7   8
HETATM    8  N   UNK N   1      36.999  13.900  15.166  0.00  0.00    -0.364 N 
HETATM    9  H   UNK N   1      37.750  13.321  14.902  0.00  0.00     0.162 HD
BRANCH   8  10
HETATM   10  C   UNK N   1      37.201  15.217  15.333  0.00  0.00     0.348 C 
HETATM   11  O   UNK N   1      37.762  15.621  16.344  0.00  0.00    -0.284 OA
ENDBRANCH   8  10
ENDBRANCH   7   8
ENDBRANCH   1   7
TORSDOF 3
ENDMDL
MODEL 2
REMARK VINA RESULT:      -4.5     26.844     27.991
REMARK  3 active torsions:
REMARK  status: ('A' for Active; 'I' for Inactive)
REMARK    1  A    between atoms: C_2  and  N_3 
REMARK    2  A    between atoms: N_3  and  C_4 
REMARK    3  A    between atoms: C_4  and  C_5 
ROOT
HETATM    1  C   UNK N   1      25.816  25.179  -5.178  0.00  0.00    -0.041 A 
HETATM    2  C   UNK N   1      26.412  25.391  -3.929  0.00  0.00     0.009 A 
HETATM    3  C   UNK N   1      26.335  26.647  -3.319  0.00  0.00     0.001 A 
HETATM    4  C   UNK N   1      25.663  27.696  -3.954  0.00  0.00     0.000 A 
HETATM    5  C   UNK N   1      25.067  27.490  -5.201  0.00  0.00     0.001 A 
HETATM    6  C   UNK N   1      25.143  26.236  -5.811  0.00  0.00     0.009 A 
ENDROOT
BRANCH   1   7
HETATM    7  C   UNK N   1      25.910  23.823  -5.817  0.00  0.00     0.160 C 
BRANCH   7   8
HETATM    8  N   UNK N   1      25.451  23.860  -7.182  0.00  0.00    -0.364 N 
HETATM    9  H   UNK N   1      25.244  24.725  -7.603  0.00  0.00     0.162 HD
BRANCH   8  10
HETATM   10  C   UNK N   1      25.302  22.726  -7.886  0.00  0.00     0.348 C 
HETATM   11  O   UNK N   1      24.182  22.364  -8.224  0.00  0.00    -0.284 OA
ENDBRANCH   8  10
ENDBRANCH   7   8
ENDBRANCH   1   7
TORSDOF 3
ENDMDL
MODEL 3
REMARK VINA RESULT:      -4.5     10.577     11.347
REMARK  3 active torsions:
REMARK  status: ('A' for Active; 'I' for Inactive)
REMARK    1  A    between atoms: C_2  and  N_3 
REMARK    2  A    between atoms: N_3  and  C_4 
REMARK    3  A    between atoms: C_4  and  C_5 
ROOT
HETATM    1  C   UNK N   1      30.954  17.531   8.026  0.00  0.00    -0.041 A 
HETATM    2  C   UNK N   1      30.659  18.329   9.137  0.00  0.00     0.009 A 
HETATM    3  C   UNK N   1      29.329  18.605   9.470  0.00  0.00     0.001 A 
HETATM    4  C   UNK N   1      28.289  18.085   8.694  0.00  0.00     0.000 A 
HETATM    5  C   UNK N   1      28.577  17.287   7.583  0.00  0.00     0.001 A 
HETATM    6  C   UNK N   1      29.905  17.011   7.250  0.00  0.00     0.009 A 
ENDROOT
BRANCH   1   7
HETATM    7  C   UNK N   1      32.388  17.246   7.685  0.00  0.00     0.160 C 
BRANCH   7   8
HETATM    8  N   UNK N   1      33.232  18.368   8.012  0.00  0.00    -0.364 N 
HETATM    9  H   UNK N   1      32.841  19.269   8.074  0.00  0.00     0.162 HD
BRANCH   8  10
HETATM   10  C   UNK N   1      34.545  18.196   8.235  0.00  0.00     0.348 C 
HETATM   11  O   UNK N   1      35.252  19.167   8.473  0.00  0.00    -0.284 OA
ENDBRANCH   8  10
ENDBRANCH   7   8
ENDBRANCH   1   7
TORSDOF 3
ENDMDL
MODEL 4
REMARK VINA RESULT:      -4.5     14.849     15.790
REMARK  3 active torsions:
REMARK  status: ('A' for Active; 'I' for Inactive)
REMARK    1  A    between atoms: C_2  and  N_3 
REMARK    2  A    between atoms: N_3  and  C_4 
REMARK    3  A    between atoms: C_4  and  C_5 
ROOT
HETATM    1  C   UNK N   1      22.231  12.695   9.925  0.00  0.00    -0.041 A 
HETATM    2  C   UNK N   1      22.717  13.128   8.685  0.00  0.00     0.009 A 
HETATM    3  C   UNK N   1      21.986  14.052   7.930  0.00  0.00     0.001 A 
HETATM    4  C   UNK N   1      20.769  14.545   8.409  0.00  0.00     0.000 A 
HETATM    5  C   UNK N   1      20.280  14.115   9.646  0.00  0.00     0.001 A 
HETATM    6  C   UNK N   1      21.008  13.194  10.401  0.00  0.00     0.009 A 
ENDROOT
BRANCH   1   7
HETATM    7  C   UNK N   1      23.030  11.704  10.720  0.00  0.00     0.160 C 
BRANCH   7   8
HETATM    8  N   UNK N   1      23.569  12.308  11.912  0.00  0.00    -0.364 N 
HETATM    9  H   UNK N   1      24.195  13.064  11.834  0.00  0.00     0.162 HD
BRANCH   8  10
HETATM   10  C   UNK N   1      23.226  11.852  13.128  0.00  0.00     0.348 C 
HETATM   11  O   UNK N   1      23.742  12.339  14.126  0.00  0.00    -0.284 OA
ENDBRANCH   8  10
ENDBRANCH   7   8
ENDBRANCH   1   7
TORSDOF 3
ENDMDL
MODEL 5
REMARK VINA RESULT:      -4.4      8.936     11.034
REMARK  3 active torsions:
REMARK  status: ('A' for Active; 'I' for Inactive)
REMARK    1  A    between atoms: C_2  and  N_3 
REMARK    2  A    between atoms: N_3  and  C_4 
REMARK    3  A    between atoms: C_4  and  C_5 
ROOT
HETATM    1  C   UNK N   1      33.472  17.538   7.533  0.00  0.00    -0.041 A 
HETATM    2  C   UNK N   1      33.806  17.513   6.174  0.00  0.00     0.009 A 
HETATM    3  C   UNK N   1      32.809  17.329   5.210  0.00  0.00     0.001 A 
HETATM    4  C   UNK N   1      31.476  17.169   5.601  0.00  0.00     0.000 A 
HETATM    5  C   UNK N   1      31.137  17.193   6.957  0.00  0.00     0.001 A 
HETATM    6  C   UNK N   1      32.132  17.377   7.919  0.00  0.00     0.009 A 
ENDROOT
BRANCH   1   7
HETATM    7  C   UNK N   1      34.556  17.738   8.552  0.00  0.00     0.160 C 
BRANCH   7   8
HETATM    8  N   UNK N   1      34.204  17.130   9.811  0.00  0.00    -0.364 N 
HETATM    9  H   UNK N   1      33.294  17.241  10.167  0.00  0.00     0.162 HD
BRANCH   8  10
HETATM   10  C   UNK N   1      35.105  16.412  10.501  0.00  0.00     0.348 C 
HETATM   11  O   UNK N   1      36.265  16.801  10.571  0.00  0.00    -0.284 OA
ENDBRANCH   8  10
ENDBRANCH   7   8
ENDBRANCH   1   7
TORSDOF 3
ENDMDL
MODEL 6
REMARK VINA RESULT:      -4.4      1.903      2.411
REMARK  3 active torsions:
REMARK  status: ('A' for Active; 'I' for Inactive)
REMARK    1  A    between atoms: C_2  and  N_3 
REMARK    2  A    between atoms: N_3  and  C_4 
REMARK    3  A    between atoms: C_4  and  C_5 
ROOT
HETATM    1  C   UNK N   1      35.363  12.347  16.709  0.00  0.00    -0.041 A 
HETATM    2  C   UNK N   1      35.545  11.135  17.384  0.00  0.00     0.009 A 
HETATM    3  C   UNK N   1      35.528  11.102  18.783  0.00  0.00     0.001 A 
HETATM    4  C   UNK N   1      35.329  12.279  19.511  0.00  0.00     0.000 A 
HETATM    5  C   UNK N   1      35.148  13.492  18.841  0.00  0.00     0.001 A 
HETATM    6  C   UNK N   1      35.164  13.526  17.445  0.00  0.00     0.009 A 
ENDROOT
BRANCH   1   7
HETATM    7  C   UNK N   1      35.385  12.361  15.208  0.00  0.00     0.160 C 
BRANCH   7   8
HETATM    8  N   UNK N   1      36.026  13.552  14.709  0.00  0.00    -0.364 N 
HETATM    9  H   UNK N   1      36.671  14.032  15.277  0.00  0.00     0.162 HD
BRANCH   8  10
HETATM   10  C   UNK N   1      35.752  14.014  13.478  0.00  0.00     0.348 C 
HETATM   11  O   UNK N   1      34.745  13.631  12.897  0.00  0.00    -0.284 OA
ENDBRANCH   8  10
ENDBRANCH   7   8
ENDBRANCH   1   7
TORSDOF 3
ENDMDL
MODEL 7
REMARK VINA RESULT:      -4.3     26.744     28.324
REMARK  3 active torsions:
REMARK  status: ('A' for Active; 'I' for Inactive)
REMARK    1  A    between atoms: C_2  and  N_3 
REMARK    2  A    between atoms: N_3  and  C_4 
REMARK    3  A    between atoms: C_4  and  C_5 
ROOT
HETATM    1  C   UNK N   1      26.133  27.331  -5.882  0.00  0.00    -0.041 A 
HETATM    2  C   UNK N   1      25.540  27.810  -4.708  0.00  0.00     0.009 A 
HETATM    3  C   UNK N   1      26.018  28.980  -4.108  0.00  0.00     0.001 A 
HETATM    4  C   UNK N   1      27.089  29.675  -4.679  0.00  0.00     0.000 A 
HETATM    5  C   UNK N   1      27.684  29.200  -5.852  0.00  0.00     0.001 A 
HETATM    6  C   UNK N   1      27.208  28.033  -6.451  0.00  0.00     0.009 A 
ENDROOT
BRANCH   1   7
HETATM    7  C   UNK N   1      25.605  26.073  -6.511  0.00  0.00     0.160 C 
BRANCH   7   8
HETATM    8  N   UNK N   1      25.112  25.160  -5.511  0.00  0.00    -0.364 N 
HETATM    9  H   UNK N   1      24.161  25.185  -5.256  0.00  0.00     0.162 HD
BRANCH   8  10
HETATM   10  C   UNK N   1      25.935  24.278  -4.922  0.00  0.00     0.348 C 
HETATM   11  O   UNK N   1      26.088  24.307  -3.708  0.00  0.00    -0.284 OA
ENDBRANCH   8  10
ENDBRANCH   7   8
ENDBRANCH   1   7
TORSDOF 3
ENDMDL
MODEL 8
REMARK VINA RESULT:      -4.2     24.293     26.182
REMARK  3 active torsions:
REMARK  status: ('A' for Active; 'I' for Inactive)
REMARK    1  A    between atoms: C_2  and  N_3 
REMARK    2  A    between atoms: N_3  and  C_4 
REMARK    3  A    between atoms: C_4  and  C_5 
ROOT
HETATM    1  C   UNK N   1      26.393  25.352  -3.902  0.00  0.00    -0.041 A 
HETATM    2  C   UNK N   1      26.366  26.613  -3.294  0.00  0.00     0.009 A 
HETATM    3  C   UNK N   1      25.723  27.683  -3.927  0.00  0.00     0.001 A 
HETATM    4  C   UNK N   1      25.106  27.497  -5.168  0.00  0.00     0.000 A 
HETATM    5  C   UNK N   1      25.131  26.240  -5.779  0.00  0.00     0.001 A 
HETATM    6  C   UNK N   1      25.772  25.172  -5.149  0.00  0.00     0.009 A 
ENDROOT
BRANCH   1   7
HETATM    7  C   UNK N   1      27.088  24.217  -3.208  0.00  0.00     0.160 C 
BRANCH   7   8
HETATM    8  N   UNK N   1      28.452  24.091  -3.655  0.00  0.00    -0.364 N 
HETATM    9  H   UNK N   1      28.709  24.442  -4.538  0.00  0.00     0.162 HD
BRANCH   8  10
HETATM   10  C   UNK N   1      29.376  23.500  -2.881  0.00  0.00     0.348 C 
HETATM   11  O   UNK N   1      29.036  22.961  -1.835  0.00  0.00    -0.284 OA
ENDBRANCH   8  10
ENDBRANCH   7   8
ENDBRANCH   1   7
TORSDOF 3
ENDMDL
MODEL 9
REMARK VINA RESULT:      -4.1      2.901      3.645
REMARK  3 active torsions:
REMARK  status: ('A' for Active; 'I' for Inactive)
REMARK    1  A    between atoms: C_2  and  N_3 
REMARK    2  A    between atoms: N_3  and  C_4 
REMARK    3  A    between atoms: C_4  and  C_5 
ROOT
HETATM    1  C   UNK N   1      35.832  13.182  13.764  0.00  0.00    -0.041 A 
HETATM    2  C   UNK N   1      36.360  13.775  14.917  0.00  0.00     0.009 A 
HETATM    3  C   UNK N   1      35.876  13.411  16.178  0.00  0.00     0.001 A 
HETATM    4  C   UNK N   1      34.864  12.454  16.292  0.00  0.00     0.000 A 
HETATM    5  C   UNK N   1      34.332  11.859  15.145  0.00  0.00     0.001 A 
HETATM    6  C   UNK N   1      34.815  12.221  13.886  0.00  0.00     0.009 A 
ENDROOT
BRANCH   1   7
HETATM    7  C   UNK N   1      36.364  13.586  12.420  0.00  0.00     0.160 C 
BRANCH   7   8
HETATM    8  N   UNK N   1      36.512  15.016  12.328  0.00  0.00    -0.364 N 
HETATM    9  H   UNK N   1      37.089  15.488  12.971  0.00  0.00     0.162 HD
BRANCH   8  10
HETATM   10  C   UNK N   1      35.871  15.712  11.376  0.00  0.00     0.348 C 
HETATM   11  O   UNK N   1      36.497  16.493  10.670  0.00  0.00    -0.284 OA
ENDBRANCH   8  10
ENDBRANCH   7   8
ENDBRANCH   1   7
TORSDOF 3
ENDMDL
