MODEL 1
REMARK VINA RESULT:      -8.3      0.000      0.000
REMARK  22 active torsions:
REMARK  status: ('A' for Active; 'I' for Inactive)
REMARK    1  A    between atoms: N_8  and  C_21 
REMARK    2  A    between atoms: O_59  and  C_16 
REMARK    3  A    between atoms: C_21  and  C_22 
REMARK    4  A    between atoms: C_22  and  C_23 
REMARK    5  A    between atoms: C_22  and  O_27 
REMARK    6  A    between atoms: C_23  and  C_24 
REMARK    7  A    between atoms: C_23  and  O_29 
REMARK    8  A    between atoms: C_24  and  C_25 
REMARK    9  A    between atoms: C_24  and  O_28 
REMARK   10  A    between atoms: C_25  and  O_26 
REMARK   11  A    between atoms: O_26  and  P_30 
REMARK   12  A    between atoms: P_30  and  O_31 
REMARK   13  A    between atoms: P_30  and  O_33 
REMARK   14  A    between atoms: O_31  and  P_34 
REMARK   15  A    between atoms: P_34  and  O_35 
REMARK   16  A    between atoms: P_34  and  O_37 
REMARK   17  A    between atoms: O_35  and  C_39 
REMARK   18  A    between atoms: C_38  and  C_39 
REMARK   19  A    between atoms: C_40  and  O_44 
REMARK   20  A    between atoms: C_41  and  O_45 
REMARK   21  A    between atoms: C_42  and  N_54 
REMARK   22  A    between atoms: C_53  and  N_58 
ROOT
HETATM    1  O   UNK N   1      25.653  19.561   5.612  0.00  0.00    -0.294 OA
ENDROOT
BRANCH   1   2
HETATM    2  C   UNK N   1      25.381  19.487   4.243  0.00  0.00     0.215 C 
BRANCH   2   3
HETATM    3  C   UNK N   1      24.309  18.445   3.889  0.00  0.00     0.173 C 
BRANCH   3   4
HETATM    4  C   UNK N   1      24.683  16.961   4.072  0.00  0.00     0.179 C 
BRANCH   4   5
HETATM    5  C   UNK N   1      24.404  16.327   5.443  0.00  0.00     0.167 C 
BRANCH   5   6
HETATM    6  C   UNK N   1      23.770  14.940   5.331  0.00  0.00     0.165 C 
BRANCH   6   7
HETATM    7  N   UNK N   1      22.458  14.874   5.995  0.00  0.00    -0.327 N 
HETATM    8  C   UNK N   1      21.348  15.398   5.374  0.00  0.00     0.145 A 
HETATM    9  N   UNK N   1      21.432  15.938   4.123  0.00  0.00    -0.292 N 
HETATM   10  C   UNK N   1      20.101  15.377   6.028  0.00  0.00     0.146 A 
HETATM   11  C   UNK N   1      20.322  16.447   3.498  0.00  0.00     0.328 A 
ATOM     12  HN  UNK N   1      22.334  15.964   3.647  1.00  0.00     0.172 HD
HETATM   13  N   UNK N   1      19.107  16.433   4.128  0.00  0.00    -0.273 N 
HETATM   14  O   UNK N   1      20.416  16.910   2.375  0.00  0.00    -0.247 OA
HETATM   15  C   UNK N   1      18.981  15.908   5.387  0.00  0.00     0.280 A 
HETATM   16  H   UNK N   1      18.317  16.803   3.674  0.00  0.00     0.173 HD
HETATM   17  O   UNK N   1      17.893  15.903   5.934  0.00  0.00    -0.265 OA
HETATM   18  N   UNK N   1      19.998  14.841   7.268  0.00  0.00    -0.345 N 
HETATM   19  C   UNK N   1      21.073  14.302   7.889  0.00  0.00     0.094 A 
ATOM     20  HN  UNK N   1      19.094  14.844   7.741  1.00  0.00     0.166 HD
HETATM   21  C   UNK N   1      22.333  14.313   7.248  0.00  0.00     0.066 A 
HETATM   22  C   UNK N   1      20.923  13.725   9.158  0.00  0.00     0.101 A 
HETATM   23  C   UNK N   1      23.427  13.724   7.906  0.00  0.00     0.039 A 
HETATM   24  C   UNK N   1      23.268  13.121   9.160  0.00  0.00    -0.051 A 
HETATM   25  C   UNK N   1      22.017  13.128   9.792  0.00  0.00    -0.021 A 
HETATM   26  C   UNK N   1      24.426  12.458   9.814  0.00  0.00     0.049 C 
HETATM   27  C   UNK N   1      21.842  12.489  11.134  0.00  0.00     0.052 C 
BRANCH  22  28
HETATM   28  O   UNK N   1      19.719  13.735   9.761  0.00  0.00    -0.358 OA
HETATM   29  H   UNK N   1      19.196  12.957   9.788  0.00  0.00     0.217 HD
ENDBRANCH  22  28
ENDBRANCH   6   7
ENDBRANCH   5   6
BRANCH   5  30
HETATM   30  O   UNK N   1      25.583  16.254   6.189  0.00  0.00    -0.391 OA
HETATM   31  H   UNK N   1      26.384  15.836   5.836  0.00  0.00     0.210 HD
ENDBRANCH   5  30
ENDBRANCH   4   5
BRANCH   4  32
HETATM   32  O   UNK N   1      25.982  16.702   3.641  0.00  0.00    -0.390 OA
HETATM   33  H   UNK N   1      26.290  15.798   3.471  0.00  0.00     0.210 HD
ENDBRANCH   4  32
ENDBRANCH   3   4
BRANCH   3  34
HETATM   34  O   UNK N   1      23.153  18.732   4.611  0.00  0.00    -0.391 OA
HETATM   35  H   UNK N   1      22.301  18.309   4.419  0.00  0.00     0.210 HD
ENDBRANCH   3  34
ENDBRANCH   2   3
ENDBRANCH   1   2
BRANCH   1  36
HETATM   36  P   UNK N   1      27.374  19.369   5.778  0.00  0.00     0.401 P 
HETATM   37  O   UNK N   1      28.012  20.495   4.919  0.00  0.00    -0.631 OA
BRANCH  36  38
HETATM   38  O   UNK N   1      27.773  19.637   7.457  0.00  0.00    -0.195 OA
BRANCH  38  39
HETATM   39  P   UNK N   1      28.499  18.193   8.105  0.00  0.00     0.401 P 
HETATM   40  O   UNK N   1      28.882  18.578   9.560  0.00  0.00    -0.631 OA
BRANCH  39  41
HETATM   41  O   UNK N   1      30.000  17.734   7.349  0.00  0.00    -0.294 OA
BRANCH  41  42
HETATM   42  C   UNK N   1      30.596  16.816   8.224  0.00  0.00     0.215 C 
BRANCH  42  43
HETATM   43  C   UNK N   1      32.053  16.544   7.876  0.00  0.00     0.180 C 
HETATM   44  C   UNK N   1      32.654  17.764   7.230  0.00  0.00     0.182 C 
HETATM   45  C   UNK N   1      33.387  17.229   6.033  0.00  0.00     0.198 C 
HETATM   46  C   UNK N   1      32.685  15.900   5.796  0.00  0.00     0.262 C 
HETATM   47  O   UNK N   1      32.187  15.426   7.026  0.00  0.00    -0.353 OA
BRANCH  44  48
HETATM   48  O   UNK N   1      33.499  18.424   8.130  0.00  0.00    -0.390 OA
HETATM   49  H   UNK N   1      34.465  18.379   8.059  0.00  0.00     0.210 HD
ENDBRANCH  44  48
BRANCH  45  50
HETATM   50  O   UNK N   1      34.720  16.968   6.356  0.00  0.00    -0.388 OA
HETATM   51  H   UNK N   1      35.276  16.422   5.778  0.00  0.00     0.210 HD
ENDBRANCH  45  50
BRANCH  46  52
HETATM   52  N   UNK N   1      31.624  15.963   4.784  0.00  0.00    -0.297 N 
HETATM   53  C   UNK N   1      30.635  15.090   4.531  0.00  0.00     0.142 A 
HETATM   54  N   UNK N   1      30.351  13.930   5.175  0.00  0.00    -0.336 N 
HETATM   55  C   UNK N   1      29.920  15.517   3.473  0.00  0.00     0.122 A 
HETATM   56  C   UNK N   1      29.287  13.190   4.735  0.00  0.00     0.183 A 
ATOM     57  HN  UNK N   1      30.916  13.618   5.965  1.00  0.00     0.168 HD
HETATM   58  N   UNK N   1      28.540  13.614   3.663  0.00  0.00    -0.337 N 
HETATM   59  C   UNK N   1      28.843  14.777   3.013  0.00  0.00     0.131 A 
ATOM     60  HN  UNK N   1      27.749  13.053   3.347  1.00  0.00     0.168 HD
HETATM   61  N   UNK N   1      30.435  16.672   3.012  0.00  0.00    -0.346 N 
HETATM   62  C   UNK N   1      31.493  16.925   3.833  0.00  0.00     0.188 A 
ATOM     63  HN  UNK N   1      30.105  17.234   2.226  1.00  0.00     0.167 HD
BRANCH  59  64
HETATM   64  N   UNK N   1      28.085  15.198   1.902  0.00  0.00    -0.383 N 
HETATM   65  H   UNK N   1      27.852  16.129   1.679  0.00  0.00     0.157 HD
HETATM   66  H   UNK N   1      27.756  14.498   1.294  0.00  0.00     0.157 HD
ENDBRANCH  59  64
ENDBRANCH  46  52
ENDBRANCH  42  43
ENDBRANCH  41  42
ENDBRANCH  39  41
BRANCH  39  67
HETATM   67  O   UNK N   1      27.376  16.881   8.278  0.00  0.00    -0.307 OA
HETATM   68  H   UNK N   1      27.607  15.940   8.247  0.00  0.00     0.222 HD
ENDBRANCH  39  67
ENDBRANCH  38  39
ENDBRANCH  36  38
BRANCH  36  69
HETATM   69  O   UNK N   1      27.917  17.845   5.145  0.00  0.00    -0.307 OA
HETATM   70  H   UNK N   1      28.203  17.140   5.748  0.00  0.00     0.222 HD
ENDBRANCH  36  69
ENDBRANCH   1  36
TORSDOF 22
ENDMDL
MODEL 2
REMARK VINA RESULT:      -8.2      3.287      5.866
REMARK  22 active torsions:
REMARK  status: ('A' for Active; 'I' for Inactive)
REMARK    1  A    between atoms: N_8  and  C_21 
REMARK    2  A    between atoms: O_59  and  C_16 
REMARK    3  A    between atoms: C_21  and  C_22 
REMARK    4  A    between atoms: C_22  and  C_23 
REMARK    5  A    between atoms: C_22  and  O_27 
REMARK    6  A    between atoms: C_23  and  C_24 
REMARK    7  A    between atoms: C_23  and  O_29 
REMARK    8  A    between atoms: C_24  and  C_25 
REMARK    9  A    between atoms: C_24  and  O_28 
REMARK   10  A    between atoms: C_25  and  O_26 
REMARK   11  A    between atoms: O_26  and  P_30 
REMARK   12  A    between atoms: P_30  and  O_31 
REMARK   13  A    between atoms: P_30  and  O_33 
REMARK   14  A    between atoms: O_31  and  P_34 
REMARK   15  A    between atoms: P_34  and  O_35 
REMARK   16  A    between atoms: P_34  and  O_37 
REMARK   17  A    between atoms: O_35  and  C_39 
REMARK   18  A    between atoms: C_38  and  C_39 
REMARK   19  A    between atoms: C_40  and  O_44 
REMARK   20  A    between atoms: C_41  and  O_45 
REMARK   21  A    between atoms: C_42  and  N_54 
REMARK   22  A    between atoms: C_53  and  N_58 
ROOT
HETATM    1  O   UNK N   1      21.819  12.637   2.059  0.00  0.00    -0.294 OA
ENDROOT
BRANCH   1   2
HETATM    2  C   UNK N   1      20.727  13.287   1.478  0.00  0.00     0.215 C 
BRANCH   2   3
HETATM    3  C   UNK N   1      19.618  13.635   2.483  0.00  0.00     0.173 C 
BRANCH   3   4
HETATM    4  C   UNK N   1      19.860  14.846   3.406  0.00  0.00     0.179 C 
BRANCH   4   5
HETATM    5  C   UNK N   1      19.406  14.720   4.868  0.00  0.00     0.167 C 
BRANCH   5   6
HETATM    6  C   UNK N   1      19.739  15.961   5.696  0.00  0.00     0.165 C 
BRANCH   6   7
HETATM    7  N   UNK N   1      21.185  16.231   5.736  0.00  0.00    -0.327 N 
HETATM    8  C   UNK N   1      21.699  17.316   5.066  0.00  0.00     0.145 A 
HETATM    9  N   UNK N   1      20.881  18.182   4.399  0.00  0.00    -0.292 N 
HETATM   10  C   UNK N   1      23.088  17.549   5.065  0.00  0.00     0.146 A 
HETATM   11  C   UNK N   1      21.392  19.273   3.743  0.00  0.00     0.328 A 
ATOM     12  HN  UNK N   1      19.875  18.015   4.388  1.00  0.00     0.172 HD
HETATM   13  N   UNK N   1      22.741  19.504   3.735  0.00  0.00    -0.273 N 
HETATM   14  O   UNK N   1      20.643  20.042   3.167  0.00  0.00    -0.247 OA
HETATM   15  C   UNK N   1      23.598  18.656   4.384  0.00  0.00     0.280 A 
HETATM   16  H   UNK N   1      23.100  20.287   3.259  0.00  0.00     0.173 HD
HETATM   17  O   UNK N   1      24.796  18.875   4.368  0.00  0.00    -0.265 OA
HETATM   18  N   UNK N   1      23.915  16.703   5.725  0.00  0.00    -0.345 N 
HETATM   19  C   UNK N   1      23.429  15.640   6.408  0.00  0.00     0.094 A 
ATOM     20  HN  UNK N   1      24.921  16.870   5.707  1.00  0.00     0.166 HD
HETATM   21  C   UNK N   1      22.037  15.391   6.421  0.00  0.00     0.066 A 
HETATM   22  C   UNK N   1      24.310  14.805   7.108  0.00  0.00     0.101 A 
HETATM   23  C   UNK N   1      21.557  14.294   7.159  0.00  0.00     0.039 A 
HETATM   24  C   UNK N   1      22.437  13.479   7.883  0.00  0.00    -0.051 A 
HETATM   25  C   UNK N   1      23.815  13.728   7.851  0.00  0.00    -0.021 A 
HETATM   26  C   UNK N   1      21.903  12.357   8.698  0.00  0.00     0.049 C 
HETATM   27  C   UNK N   1      24.760  12.858   8.619  0.00  0.00     0.052 C 
BRANCH  22  28
HETATM   28  O   UNK N   1      25.633  15.048   7.075  0.00  0.00    -0.358 OA
HETATM   29  H   UNK N   1      26.093  15.277   7.859  0.00  0.00     0.217 HD
ENDBRANCH  22  28
ENDBRANCH   6   7
ENDBRANCH   5   6
BRANCH   5  30
HETATM   30  O   UNK N   1      18.035  14.460   4.926  0.00  0.00    -0.391 OA
HETATM   31  H   UNK N   1      17.459  14.902   5.568  0.00  0.00     0.210 HD
ENDBRANCH   5  30
ENDBRANCH   4   5
BRANCH   4  32
HETATM   32  O   UNK N   1      19.408  16.030   2.828  0.00  0.00    -0.390 OA
HETATM   33  H   UNK N   1      18.746  16.588   3.265  0.00  0.00     0.210 HD
ENDBRANCH   4  32
ENDBRANCH   3   4
BRANCH   3  34
HETATM   34  O   UNK N   1      18.423  13.804   1.788  0.00  0.00    -0.391 OA
HETATM   35  H   UNK N   1      18.354  13.663   0.830  0.00  0.00     0.210 HD
ENDBRANCH   3  34
ENDBRANCH   2   3
ENDBRANCH   1   2
BRANCH   1  36
HETATM   36  P   UNK N   1      23.221  13.589   1.666  0.00  0.00     0.401 P 
HETATM   37  O   UNK N   1      22.703  14.767   0.796  0.00  0.00    -0.631 OA
BRANCH  36  38
HETATM   38  O   UNK N   1      23.863  14.222   3.161  0.00  0.00    -0.195 OA
BRANCH  38  39
HETATM   39  P   UNK N   1      25.525  14.679   2.916  0.00  0.00     0.401 P 
HETATM   40  O   UNK N   1      26.301  13.334   2.956  0.00  0.00    -0.631 OA
BRANCH  39  41
HETATM   41  O   UNK N   1      26.212  15.635   4.199  0.00  0.00    -0.294 OA
BRANCH  41  42
HETATM   42  C   UNK N   1      27.129  16.495   3.579  0.00  0.00     0.215 C 
BRANCH  42  43
HETATM   43  C   UNK N   1      28.567  16.194   3.976  0.00  0.00     0.180 C 
HETATM   44  C   UNK N   1      28.581  15.216   5.122  0.00  0.00     0.182 C 
HETATM   45  C   UNK N   1      29.566  15.798   6.095  0.00  0.00     0.198 C 
HETATM   46  C   UNK N   1      29.581  17.266   5.698  0.00  0.00     0.262 C 
HETATM   47  O   UNK N   1      29.268  17.366   4.327  0.00  0.00    -0.353 OA
BRANCH  44  48
HETATM   48  O   UNK N   1      28.952  13.945   4.671  0.00  0.00    -0.390 OA
HETATM   49  H   UNK N   1      29.881  13.690   4.555  0.00  0.00     0.210 HD
ENDBRANCH  44  48
BRANCH  45  50
HETATM   50  O   UNK N   1      30.839  15.272   5.871  0.00  0.00    -0.388 OA
HETATM   51  H   UNK N   1      30.974  14.537   5.253  0.00  0.00     0.210 HD
ENDBRANCH  45  50
BRANCH  46  52
HETATM   52  N   UNK N   1      28.691  18.107   6.507  0.00  0.00    -0.297 N 
HETATM   53  C   UNK N   1      27.974  19.185   6.144  0.00  0.00     0.142 A 
HETATM   54  N   UNK N   1      27.873  19.754   4.917  0.00  0.00    -0.336 N 
HETATM   55  C   UNK N   1      27.342  19.685   7.223  0.00  0.00     0.122 A 
HETATM   56  C   UNK N   1      27.081  20.862   4.782  0.00  0.00     0.183 A 
ATOM     57  HN  UNK N   1      28.374  19.367   4.118  1.00  0.00     0.168 HD
HETATM   58  N   UNK N   1      26.420  21.382   5.869  0.00  0.00    -0.337 N 
HETATM   59  C   UNK N   1      26.541  20.809   7.104  0.00  0.00     0.131 A 
ATOM     60  HN  UNK N   1      25.833  22.208   5.753  1.00  0.00     0.168 HD
HETATM   61  N   UNK N   1      27.640  18.948   8.309  0.00  0.00    -0.346 N 
HETATM   62  C   UNK N   1      28.483  17.983   7.844  0.00  0.00     0.188 A 
ATOM     63  HN  UNK N   1      27.308  19.082   9.265  1.00  0.00     0.167 HD
BRANCH  59  64
HETATM   64  N   UNK N   1      25.875  21.357   8.218  0.00  0.00    -0.383 N 
HETATM   65  H   UNK N   1      26.187  21.326   9.152  0.00  0.00     0.157 HD
HETATM   66  H   UNK N   1      25.019  21.812   8.048  0.00  0.00     0.157 HD
ENDBRANCH  59  64
ENDBRANCH  46  52
ENDBRANCH  42  43
ENDBRANCH  41  42
ENDBRANCH  39  41
BRANCH  39  67
HETATM   67  O   UNK N   1      25.833  15.315   1.330  0.00  0.00    -0.307 OA
HETATM   68  H   UNK N   1      25.151  15.556   0.683  0.00  0.00     0.222 HD
ENDBRANCH  39  67
ENDBRANCH  38  39
ENDBRANCH  36  38
BRANCH  36  69
HETATM   69  O   UNK N   1      24.365  12.689   0.716  0.00  0.00    -0.307 OA
HETATM   70  H   UNK N   1      24.588  11.776   0.957  0.00  0.00     0.222 HD
ENDBRANCH  36  69
ENDBRANCH   1  36
TORSDOF 22
ENDMDL
MODEL 3
REMARK VINA RESULT:      -8.0      1.974      3.483
REMARK  22 active torsions:
REMARK  status: ('A' for Active; 'I' for Inactive)
REMARK    1  A    between atoms: N_8  and  C_21 
REMARK    2  A    between atoms: O_59  and  C_16 
REMARK    3  A    between atoms: C_21  and  C_22 
REMARK    4  A    between atoms: C_22  and  C_23 
REMARK    5  A    between atoms: C_22  and  O_27 
REMARK    6  A    between atoms: C_23  and  C_24 
REMARK    7  A    between atoms: C_23  and  O_29 
REMARK    8  A    between atoms: C_24  and  C_25 
REMARK    9  A    between atoms: C_24  and  O_28 
REMARK   10  A    between atoms: C_25  and  O_26 
REMARK   11  A    between atoms: O_26  and  P_30 
REMARK   12  A    between atoms: P_30  and  O_31 
REMARK   13  A    between atoms: P_30  and  O_33 
REMARK   14  A    between atoms: O_31  and  P_34 
REMARK   15  A    between atoms: P_34  and  O_35 
REMARK   16  A    between atoms: P_34  and  O_37 
REMARK   17  A    between atoms: O_35  and  C_39 
REMARK   18  A    between atoms: C_38  and  C_39 
REMARK   19  A    between atoms: C_40  and  O_44 
REMARK   20  A    between atoms: C_41  and  O_45 
REMARK   21  A    between atoms: C_42  and  N_54 
REMARK   22  A    between atoms: C_53  and  N_58 
ROOT
HETATM    1  O   UNK N   1      25.778  19.504   5.674  0.00  0.00    -0.294 OA
ENDROOT
BRANCH   1   2
HETATM    2  C   UNK N   1      25.486  19.333   4.319  0.00  0.00     0.215 C 
BRANCH   2   3
HETATM    3  C   UNK N   1      24.609  18.105   4.032  0.00  0.00     0.173 C 
BRANCH   3   4
HETATM    4  C   UNK N   1      25.167  16.730   4.447  0.00  0.00     0.179 C 
BRANCH   4   5
HETATM    5  C   UNK N   1      24.562  16.069   5.695  0.00  0.00     0.167 C 
BRANCH   5   6
HETATM    6  C   UNK N   1      23.772  14.803   5.365  0.00  0.00     0.165 C 
BRANCH   6   7
HETATM    7  N   UNK N   1      22.451  14.786   6.013  0.00  0.00    -0.327 N 
HETATM    8  C   UNK N   1      21.369  15.352   5.380  0.00  0.00     0.145 A 
HETATM    9  N   UNK N   1      21.487  15.889   4.131  0.00  0.00    -0.292 N 
HETATM   10  C   UNK N   1      20.115  15.379   6.021  0.00  0.00     0.146 A 
HETATM   11  C   UNK N   1      20.405  16.440   3.494  0.00  0.00     0.328 A 
ATOM     12  HN  UNK N   1      22.395  15.881   3.665  1.00  0.00     0.172 HD
HETATM   13  N   UNK N   1      19.184  16.472   4.111  0.00  0.00    -0.273 N 
HETATM   14  O   UNK N   1      20.529  16.900   2.372  0.00  0.00    -0.247 OA
HETATM   15  C   UNK N   1      19.023  15.953   5.367  0.00  0.00     0.280 A 
HETATM   16  H   UNK N   1      18.413  16.872   3.648  0.00  0.00     0.173 HD
HETATM   17  O   UNK N   1      17.929  15.988   5.902  0.00  0.00    -0.265 OA
HETATM   18  N   UNK N   1      19.977  14.847   7.259  0.00  0.00    -0.345 N 
HETATM   19  C   UNK N   1      21.024  14.267   7.892  0.00  0.00     0.094 A 
ATOM     20  HN  UNK N   1      19.069  14.884   7.722  1.00  0.00     0.166 HD
HETATM   21  C   UNK N   1      22.291  14.230   7.265  0.00  0.00     0.066 A 
HETATM   22  C   UNK N   1      20.838  13.696   9.158  0.00  0.00     0.101 A 
HETATM   23  C   UNK N   1      23.355  13.600   7.935  0.00  0.00     0.039 A 
HETATM   24  C   UNK N   1      23.158  13.003   9.186  0.00  0.00    -0.051 A 
HETATM   25  C   UNK N   1      21.902  13.057   9.804  0.00  0.00    -0.021 A 
HETATM   26  C   UNK N   1      24.283  12.296   9.852  0.00  0.00     0.049 C 
HETATM   27  C   UNK N   1      21.687  12.425  11.143  0.00  0.00     0.052 C 
BRANCH  22  28
HETATM   28  O   UNK N   1      19.629  13.751   9.747  0.00  0.00    -0.358 OA
HETATM   29  H   UNK N   1      19.519  14.198  10.564  0.00  0.00     0.217 HD
ENDBRANCH  22  28
ENDBRANCH   6   7
ENDBRANCH   5   6
BRANCH   5  30
HETATM   30  O   UNK N   1      25.566  15.779   6.621  0.00  0.00    -0.391 OA
HETATM   31  H   UNK N   1      25.359  15.537   7.537  0.00  0.00     0.210 HD
ENDBRANCH   5  30
ENDBRANCH   4   5
BRANCH   4  32
HETATM   32  O   UNK N   1      26.560  16.734   4.492  0.00  0.00    -0.390 OA
HETATM   33  H   UNK N   1      27.088  17.228   3.845  0.00  0.00     0.210 HD
ENDBRANCH   4  32
ENDBRANCH   3   4
BRANCH   3  34
HETATM   34  O   UNK N   1      23.360  18.303   4.618  0.00  0.00    -0.391 OA
HETATM   35  H   UNK N   1      23.206  18.183   5.568  0.00  0.00     0.210 HD
ENDBRANCH   3  34
ENDBRANCH   2   3
ENDBRANCH   1   2
BRANCH   1  36
HETATM   36  P   UNK N   1      27.351  20.244   5.746  0.00  0.00     0.401 P 
HETATM   37  O   UNK N   1      27.103  21.775   5.672  0.00  0.00    -0.631 OA
BRANCH  36  38
HETATM   38  O   UNK N   1      28.046  19.853   7.300  0.00  0.00    -0.195 OA
BRANCH  38  39
HETATM   39  P   UNK N   1      28.515  18.176   7.305  0.00  0.00     0.401 P 
HETATM   40  O   UNK N   1      29.768  18.133   8.222  0.00  0.00    -0.631 OA
BRANCH  39  41
HETATM   41  O   UNK N   1      29.059  17.570   5.766  0.00  0.00    -0.294 OA
BRANCH  41  42
HETATM   42  C   UNK N   1      30.410  17.244   5.946  0.00  0.00     0.215 C 
BRANCH  42  43
HETATM   43  C   UNK N   1      31.117  16.948   4.630  0.00  0.00     0.180 C 
HETATM   44  C   UNK N   1      30.997  15.481   4.312  0.00  0.00     0.182 C 
HETATM   45  C   UNK N   1      32.386  15.073   3.912  0.00  0.00     0.198 C 
HETATM   46  C   UNK N   1      33.238  16.149   4.567  0.00  0.00     0.262 C 
HETATM   47  O   UNK N   1      32.474  17.329   4.670  0.00  0.00    -0.353 OA
BRANCH  44  48
HETATM   48  O   UNK N   1      30.060  15.281   3.292  0.00  0.00    -0.390 OA
HETATM   49  H   UNK N   1      29.132  15.547   3.385  0.00  0.00     0.210 HD
ENDBRANCH  44  48
BRANCH  45  50
HETATM   50  O   UNK N   1      32.543  15.174   2.528  0.00  0.00    -0.388 OA
HETATM   51  H   UNK N   1      32.046  14.599   1.926  0.00  0.00     0.210 HD
ENDBRANCH  45  50
BRANCH  46  52
HETATM   52  N   UNK N   1      33.787  15.758   5.870  0.00  0.00    -0.297 N 
HETATM   53  C   UNK N   1      34.072  16.521   6.939  0.00  0.00     0.142 A 
HETATM   54  N   UNK N   1      33.897  17.858   7.089  0.00  0.00    -0.336 N 
HETATM   55  C   UNK N   1      34.615  15.755   7.904  0.00  0.00     0.122 A 
HETATM   56  C   UNK N   1      34.270  18.430   8.275  0.00  0.00     0.183 A 
ATOM     57  HN  UNK N   1      33.498  18.421   6.338  1.00  0.00     0.168 HD
HETATM   58  N   UNK N   1      34.817  17.663   9.275  0.00  0.00    -0.337 N 
HETATM   59  C   UNK N   1      35.003  16.320   9.108  0.00  0.00     0.131 A 
ATOM     60  HN  UNK N   1      35.089  18.103  10.155  1.00  0.00     0.168 HD
HETATM   61  N   UNK N   1      34.700  14.480   7.480  0.00  0.00    -0.346 N 
HETATM   62  C   UNK N   1      34.189  14.507   6.217  0.00  0.00     0.188 A 
ATOM     63  HN  UNK N   1      35.063  13.675   7.992  1.00  0.00     0.167 HD
BRANCH  59  64
HETATM   64  N   UNK N   1      35.580  15.541  10.131  0.00  0.00    -0.383 N 
HETATM   65  H   UNK N   1      35.591  15.762  11.091  0.00  0.00     0.157 HD
HETATM   66  H   UNK N   1      36.013  14.699   9.861  0.00  0.00     0.157 HD
ENDBRANCH  59  64
ENDBRANCH  46  52
ENDBRANCH  42  43
ENDBRANCH  41  42
ENDBRANCH  39  41
BRANCH  39  67
HETATM   67  O   UNK N   1      27.360  17.145   8.092  0.00  0.00    -0.307 OA
HETATM   68  H   UNK N   1      26.704  17.437   8.744  0.00  0.00     0.222 HD
ENDBRANCH  39  67
ENDBRANCH  38  39
ENDBRANCH  36  38
BRANCH  36  69
HETATM   69  O   UNK N   1      28.336  19.797   4.386  0.00  0.00    -0.307 OA
HETATM   70  H   UNK N   1      29.152  19.290   4.520  0.00  0.00     0.222 HD
ENDBRANCH  36  69
ENDBRANCH   1  36
TORSDOF 22
ENDMDL
MODEL 4
REMARK VINA RESULT:      -7.9      3.021      5.557
REMARK  22 active torsions:
REMARK  status: ('A' for Active; 'I' for Inactive)
REMARK    1  A    between atoms: N_8  and  C_21 
REMARK    2  A    between atoms: O_59  and  C_16 
REMARK    3  A    between atoms: C_21  and  C_22 
REMARK    4  A    between atoms: C_22  and  C_23 
REMARK    5  A    between atoms: C_22  and  O_27 
REMARK    6  A    between atoms: C_23  and  C_24 
REMARK    7  A    between atoms: C_23  and  O_29 
REMARK    8  A    between atoms: C_24  and  C_25 
REMARK    9  A    between atoms: C_24  and  O_28 
REMARK   10  A    between atoms: C_25  and  O_26 
REMARK   11  A    between atoms: O_26  and  P_30 
REMARK   12  A    between atoms: P_30  and  O_31 
REMARK   13  A    between atoms: P_30  and  O_33 
REMARK   14  A    between atoms: O_31  and  P_34 
REMARK   15  A    between atoms: P_34  and  O_35 
REMARK   16  A    between atoms: P_34  and  O_37 
REMARK   17  A    between atoms: O_35  and  C_39 
REMARK   18  A    between atoms: C_38  and  C_39 
REMARK   19  A    between atoms: C_40  and  O_44 
REMARK   20  A    between atoms: C_41  and  O_45 
REMARK   21  A    between atoms: C_42  and  N_54 
REMARK   22  A    between atoms: C_53  and  N_58 
ROOT
HETATM    1  O   UNK N   1      22.955  13.619   2.450  0.00  0.00    -0.294 OA
ENDROOT
BRANCH   1   2
HETATM    2  C   UNK N   1      22.625  14.955   2.686  0.00  0.00     0.215 C 
BRANCH   2   3
HETATM    3  C   UNK N   1      21.219  15.333   2.195  0.00  0.00     0.173 C 
BRANCH   3   4
HETATM    4  C   UNK N   1      20.539  16.541   2.868  0.00  0.00     0.179 C 
BRANCH   4   5
HETATM    5  C   UNK N   1      20.172  16.407   4.354  0.00  0.00     0.167 C 
BRANCH   5   6
HETATM    6  C   UNK N   1      20.865  17.453   5.228  0.00  0.00     0.165 C 
BRANCH   6   7
HETATM    7  N   UNK N   1      22.322  17.254   5.282  0.00  0.00    -0.327 N 
HETATM    8  C   UNK N   1      23.157  18.116   4.609  0.00  0.00     0.145 A 
HETATM    9  N   UNK N   1      22.659  19.188   3.927  0.00  0.00    -0.292 N 
HETATM   10  C   UNK N   1      24.548  17.899   4.621  0.00  0.00     0.146 A 
HETATM   11  C   UNK N   1      23.492  20.055   3.268  0.00  0.00     0.328 A 
ATOM     12  HN  UNK N   1      21.651  19.345   3.906  1.00  0.00     0.172 HD
HETATM   13  N   UNK N   1      24.846  19.850   3.274  0.00  0.00    -0.273 N 
HETATM   14  O   UNK N   1      23.028  21.015   2.678  0.00  0.00    -0.247 OA
HETATM   15  C   UNK N   1      25.387  18.782   3.938  0.00  0.00     0.280 A 
HETATM   16  H   UNK N   1      25.437  20.475   2.796  0.00  0.00     0.173 HD
HETATM   17  O   UNK N   1      26.593  18.613   3.934  0.00  0.00    -0.265 OA
HETATM   18  N   UNK N   1      25.062  16.843   5.297  0.00  0.00    -0.345 N 
HETATM   19  C   UNK N   1      24.260  15.994   5.983  0.00  0.00     0.094 A 
ATOM     20  HN  UNK N   1      26.069  16.684   5.289  1.00  0.00     0.166 HD
HETATM   21  C   UNK N   1      22.861  16.196   5.982  0.00  0.00     0.066 A 
HETATM   22  C   UNK N   1      24.828  14.931   6.698  0.00  0.00     0.101 A 
HETATM   23  C   UNK N   1      22.054  15.313   6.723  0.00  0.00     0.039 A 
HETATM   24  C   UNK N   1      22.627  14.271   7.462  0.00  0.00    -0.051 A 
HETATM   25  C   UNK N   1      24.013  14.073   7.444  0.00  0.00    -0.021 A 
HETATM   26  C   UNK N   1      21.760  13.383   8.280  0.00  0.00     0.049 C 
HETATM   27  C   UNK N   1      24.630  12.958   8.229  0.00  0.00     0.052 C 
BRANCH  22  28
HETATM   28  O   UNK N   1      26.161  14.745   6.678  0.00  0.00    -0.358 OA
HETATM   29  H   UNK N   1      26.524  13.955   6.329  0.00  0.00     0.217 HD
ENDBRANCH  22  28
ENDBRANCH   6   7
ENDBRANCH   5   6
BRANCH   5  30
HETATM   30  O   UNK N   1      18.787  16.489   4.517  0.00  0.00    -0.391 OA
HETATM   31  H   UNK N   1      18.186  15.854   4.097  0.00  0.00     0.210 HD
ENDBRANCH   5  30
ENDBRANCH   4   5
BRANCH   4  32
HETATM   32  O   UNK N   1      19.466  17.013   2.114  0.00  0.00    -0.390 OA
HETATM   33  H   UNK N   1      18.893  17.726   2.437  0.00  0.00     0.210 HD
ENDBRANCH   4  32
ENDBRANCH   3   4
BRANCH   3  34
HETATM   34  O   UNK N   1      21.265  15.525   0.816  0.00  0.00    -0.391 OA
HETATM   35  H   UNK N   1      21.216  16.405   0.411  0.00  0.00     0.210 HD
ENDBRANCH   3  34
ENDBRANCH   2   3
ENDBRANCH   1   2
BRANCH   1  36
HETATM   36  P   UNK N   1      24.349  13.636   1.410  0.00  0.00     0.401 P 
HETATM   37  O   UNK N   1      23.820  14.008  -0.002  0.00  0.00    -0.631 OA
BRANCH  36  38
HETATM   38  O   UNK N   1      25.411  14.902   1.974  0.00  0.00    -0.195 OA
BRANCH  38  39
HETATM   39  P   UNK N   1      26.643  14.201   2.985  0.00  0.00     0.401 P 
HETATM   40  O   UNK N   1      25.863  13.254   3.937  0.00  0.00    -0.631 OA
BRANCH  39  41
HETATM   41  O   UNK N   1      27.452  15.332   4.035  0.00  0.00    -0.294 OA
BRANCH  41  42
HETATM   42  C   UNK N   1      28.717  14.781   4.278  0.00  0.00     0.215 C 
BRANCH  42  43
HETATM   43  C   UNK N   1      29.817  15.488   3.498  0.00  0.00     0.180 C 
HETATM   44  C   UNK N   1      31.136  14.808   3.757  0.00  0.00     0.182 C 
HETATM   45  C   UNK N   1      32.088  15.936   4.035  0.00  0.00     0.198 C 
HETATM   46  C   UNK N   1      31.147  17.053   4.460  0.00  0.00     0.262 C 
HETATM   47  O   UNK N   1      29.899  16.855   3.835  0.00  0.00    -0.353 OA
BRANCH  44  48
HETATM   48  O   UNK N   1      31.514  14.042   2.649  0.00  0.00    -0.390 OA
HETATM   49  H   UNK N   1      31.776  13.112   2.729  0.00  0.00     0.210 HD
ENDBRANCH  44  48
BRANCH  45  50
HETATM   50  O   UNK N   1      32.730  16.330   2.860  0.00  0.00    -0.388 OA
HETATM   51  H   UNK N   1      32.340  16.146   1.991  0.00  0.00     0.210 HD
ENDBRANCH  45  50
BRANCH  46  52
HETATM   52  N   UNK N   1      30.996  17.177   5.915  0.00  0.00    -0.297 N 
HETATM   53  C   UNK N   1      29.934  17.587   6.629  0.00  0.00     0.142 A 
HETATM   54  N   UNK N   1      28.712  17.968   6.179  0.00  0.00    -0.336 N 
HETATM   55  C   UNK N   1      30.254  17.602   7.937  0.00  0.00     0.122 A 
HETATM   56  C   UNK N   1      27.777  18.357   7.098  0.00  0.00     0.183 A 
ATOM     57  HN  UNK N   1      28.498  17.964   5.182  1.00  0.00     0.168 HD
HETATM   58  N   UNK N   1      28.081  18.370   8.438  0.00  0.00    -0.337 N 
HETATM   59  C   UNK N   1      29.319  17.999   8.880  0.00  0.00     0.131 A 
ATOM     60  HN  UNK N   1      27.373  18.662   9.112  1.00  0.00     0.168 HD
HETATM   61  N   UNK N   1      31.531  17.209   8.099  0.00  0.00    -0.346 N 
HETATM   62  C   UNK N   1      31.972  16.959   6.834  0.00  0.00     0.188 A 
ATOM     63  HN  UNK N   1      32.050  17.117   8.973  1.00  0.00     0.167 HD
BRANCH  59  64
HETATM   64  N   UNK N   1      29.631  18.030  10.254  0.00  0.00    -0.383 N 
HETATM   65  H   UNK N   1      29.795  17.247  10.829  0.00  0.00     0.157 HD
HETATM   66  H   UNK N   1      29.690  18.916  10.679  0.00  0.00     0.157 HD
ENDBRANCH  59  64
ENDBRANCH  46  52
ENDBRANCH  42  43
ENDBRANCH  41  42
ENDBRANCH  39  41
BRANCH  39  67
HETATM   67  O   UNK N   1      27.726  13.157   2.118  0.00  0.00    -0.307 OA
HETATM   68  H   UNK N   1      27.788  12.196   2.233  0.00  0.00     0.222 HD
ENDBRANCH  39  67
ENDBRANCH  38  39
ENDBRANCH  36  38
BRANCH  36  69
HETATM   69  O   UNK N   1      25.094  12.069   1.304  0.00  0.00    -0.307 OA
HETATM   70  H   UNK N   1      24.558  11.267   1.407  0.00  0.00     0.222 HD
ENDBRANCH  36  69
ENDBRANCH   1  36
TORSDOF 22
ENDMDL
MODEL 5
REMARK VINA RESULT:      -7.9      7.651     12.828
REMARK  22 active torsions:
REMARK  status: ('A' for Active; 'I' for Inactive)
REMARK    1  A    between atoms: N_8  and  C_21 
REMARK    2  A    between atoms: O_59  and  C_16 
REMARK    3  A    between atoms: C_21  and  C_22 
REMARK    4  A    between atoms: C_22  and  C_23 
REMARK    5  A    between atoms: C_22  and  O_27 
REMARK    6  A    between atoms: C_23  and  C_24 
REMARK    7  A    between atoms: C_23  and  O_29 
REMARK    8  A    between atoms: C_24  and  C_25 
REMARK    9  A    between atoms: C_24  and  O_28 
REMARK   10  A    between atoms: C_25  and  O_26 
REMARK   11  A    between atoms: O_26  and  P_30 
REMARK   12  A    between atoms: P_30  and  O_31 
REMARK   13  A    between atoms: P_30  and  O_33 
REMARK   14  A    between atoms: O_31  and  P_34 
REMARK   15  A    between atoms: P_34  and  O_35 
REMARK   16  A    between atoms: P_34  and  O_37 
REMARK   17  A    between atoms: O_35  and  C_39 
REMARK   18  A    between atoms: C_38  and  C_39 
REMARK   19  A    between atoms: C_40  and  O_44 
REMARK   20  A    between atoms: C_41  and  O_45 
REMARK   21  A    between atoms: C_42  and  N_54 
REMARK   22  A    between atoms: C_53  and  N_58 
ROOT
HETATM    1  O   UNK N   1      35.021  14.149   8.970  0.00  0.00    -0.294 OA
ENDROOT
BRANCH   1   2
HETATM    2  C   UNK N   1      36.293  14.502   9.427  0.00  0.00     0.215 C 
BRANCH   2   3
HETATM    3  C   UNK N   1      36.852  13.537  10.485  0.00  0.00     0.173 C 
BRANCH   3   4
HETATM    4  C   UNK N   1      36.785  13.991  11.956  0.00  0.00     0.179 C 
BRANCH   4   5
HETATM    5  C   UNK N   1      36.036  13.080  12.941  0.00  0.00     0.167 C 
BRANCH   5   6
HETATM    6  C   UNK N   1      36.915  12.628  14.108  0.00  0.00     0.165 C 
BRANCH   6   7
HETATM    7  N   UNK N   1      36.656  11.231  14.491  0.00  0.00    -0.327 N 
HETATM    8  C   UNK N   1      36.928  10.215  13.605  0.00  0.00     0.145 A 
HETATM    9  N   UNK N   1      37.484  10.475  12.386  0.00  0.00    -0.292 N 
HETATM   10  C   UNK N   1      36.635   8.882  13.953  0.00  0.00     0.146 A 
HETATM   11  C   UNK N   1      37.768   9.461  11.508  0.00  0.00     0.328 A 
ATOM     12  HN  UNK N   1      37.689  11.440  12.124  1.00  0.00     0.172 HD
HETATM   13  N   UNK N   1      37.485   8.163  11.839  0.00  0.00    -0.273 N 
HETATM   14  O   UNK N   1      38.279   9.713  10.432  0.00  0.00    -0.247 OA
HETATM   15  C   UNK N   1      36.919   7.858  13.048  0.00  0.00     0.280 A 
HETATM   16  H   UNK N   1      37.690   7.441  11.202  0.00  0.00     0.173 HD
HETATM   17  O   UNK N   1      36.673   6.698  13.326  0.00  0.00    -0.265 OA
HETATM   18  N   UNK N   1      36.087   8.603  15.161  0.00  0.00    -0.345 N 
HETATM   19  C   UNK N   1      35.831   9.586  16.056  0.00  0.00     0.094 A 
ATOM     20  HN  UNK N   1      35.865   7.637  15.399  1.00  0.00     0.166 HD
HETATM   21  C   UNK N   1      36.117  10.930  15.725  0.00  0.00     0.066 A 
HETATM   22  C   UNK N   1      35.294   9.258  17.309  0.00  0.00     0.101 A 
HETATM   23  C   UNK N   1      35.863  11.928  16.682  0.00  0.00     0.039 A 
HETATM   24  C   UNK N   1      35.357  11.594  17.945  0.00  0.00    -0.051 A 
HETATM   25  C   UNK N   1      35.064  10.260  18.257  0.00  0.00    -0.021 A 
HETATM   26  C   UNK N   1      35.145  12.658  18.961  0.00  0.00     0.049 C 
HETATM   27  C   UNK N   1      34.518   9.899  19.603  0.00  0.00     0.052 C 
BRANCH  22  28
HETATM   28  O   UNK N   1      35.015   7.975  17.604  0.00  0.00    -0.358 OA
HETATM   29  H   UNK N   1      35.695   7.331  17.611  0.00  0.00     0.217 HD
ENDBRANCH  22  28
ENDBRANCH   6   7
ENDBRANCH   5   6
BRANCH   5  30
HETATM   30  O   UNK N   1      34.896  13.726  13.424  0.00  0.00    -0.391 OA
HETATM   31  H   UNK N   1      34.047  13.265  13.510  0.00  0.00     0.210 HD
ENDBRANCH   5  30
ENDBRANCH   4   5
BRANCH   4  32
HETATM   32  O   UNK N   1      36.371  15.316  12.067  0.00  0.00    -0.390 OA
HETATM   33  H   UNK N   1      35.935  15.647  12.868  0.00  0.00     0.210 HD
ENDBRANCH   4  32
ENDBRANCH   3   4
BRANCH   3  34
HETATM   34  O   UNK N   1      36.220  12.305  10.342  0.00  0.00    -0.391 OA
HETATM   35  H   UNK N   1      36.640  11.553   9.894  0.00  0.00     0.210 HD
ENDBRANCH   3  34
ENDBRANCH   2   3
ENDBRANCH   1   2
BRANCH   1  36
HETATM   36  P   UNK N   1      33.926  15.348   9.594  0.00  0.00     0.401 P 
HETATM   37  O   UNK N   1      33.556  14.879  11.028  0.00  0.00    -0.631 OA
BRANCH  36  38
HETATM   38  O   UNK N   1      34.800  16.857   9.695  0.00  0.00    -0.195 OA
BRANCH  38  39
HETATM   39  P   UNK N   1      34.376  17.849   8.329  0.00  0.00     0.401 P 
HETATM   40  O   UNK N   1      32.854  18.106   8.501  0.00  0.00    -0.631 OA
BRANCH  39  41
HETATM   41  O   UNK N   1      34.530  17.062   6.783  0.00  0.00    -0.294 OA
BRANCH  41  42
HETATM   42  C   UNK N   1      33.354  17.370   6.085  0.00  0.00     0.215 C 
BRANCH  42  43
HETATM   43  C   UNK N   1      32.816  16.181   5.301  0.00  0.00     0.180 C 
HETATM   44  C   UNK N   1      32.490  16.610   3.894  0.00  0.00     0.182 C 
HETATM   45  C   UNK N   1      31.130  16.029   3.633  0.00  0.00     0.198 C 
HETATM   46  C   UNK N   1      30.591  15.830   5.042  0.00  0.00     0.262 C 
HETATM   47  O   UNK N   1      31.676  15.623   5.917  0.00  0.00    -0.353 OA
BRANCH  44  48
HETATM   48  O   UNK N   1      33.461  16.136   3.005  0.00  0.00    -0.390 OA
HETATM   49  H   UNK N   1      33.954  16.728   2.416  0.00  0.00     0.210 HD
ENDBRANCH  44  48
BRANCH  45  50
HETATM   50  O   UNK N   1      31.245  14.775   3.030  0.00  0.00    -0.388 OA
HETATM   51  H   UNK N   1      31.614  14.682   2.138  0.00  0.00     0.210 HD
ENDBRANCH  45  50
BRANCH  46  52
HETATM   52  N   UNK N   1      29.736  16.928   5.508  0.00  0.00    -0.297 N 
HETATM   53  C   UNK N   1      29.485  17.338   6.763  0.00  0.00     0.142 A 
HETATM   54  N   UNK N   1      29.986  16.848   7.925  0.00  0.00    -0.336 N 
HETATM   55  C   UNK N   1      28.595  18.348   6.734  0.00  0.00     0.122 A 
HETATM   56  C   UNK N   1      29.578  17.424   9.098  0.00  0.00     0.183 A 
ATOM     57  HN  UNK N   1      30.647  16.072   7.924  1.00  0.00     0.168 HD
HETATM   58  N   UNK N   1      28.678  18.461   9.089  0.00  0.00    -0.337 N 
HETATM   59  C   UNK N   1      28.169  18.938   7.914  0.00  0.00     0.131 A 
ATOM     60  HN  UNK N   1      28.384  18.881   9.970  1.00  0.00     0.168 HD
HETATM   61  N   UNK N   1      28.244  18.611   5.462  0.00  0.00    -0.346 N 
HETATM   62  C   UNK N   1      28.957  17.715   4.721  0.00  0.00     0.188 A 
ATOM     63  HN  UNK N   1      27.593  19.322   5.127  1.00  0.00     0.167 HD
BRANCH  59  64
HETATM   64  N   UNK N   1      27.232  19.991   7.911  0.00  0.00    -0.383 N 
HETATM   65  H   UNK N   1      26.690  20.282   7.141  0.00  0.00     0.157 HD
HETATM   66  H   UNK N   1      27.109  20.481   8.755  0.00  0.00     0.157 HD
ENDBRANCH  59  64
ENDBRANCH  46  52
ENDBRANCH  42  43
ENDBRANCH  41  42
ENDBRANCH  39  41
BRANCH  39  67
HETATM   67  O   UNK N   1      35.096  19.429   8.382  0.00  0.00    -0.307 OA
HETATM   68  H   UNK N   1      35.035  20.094   7.679  0.00  0.00     0.222 HD
ENDBRANCH  39  67
ENDBRANCH  38  39
ENDBRANCH  36  38
BRANCH  36  69
HETATM   69  O   UNK N   1      32.460  15.428   8.665  0.00  0.00    -0.307 OA
HETATM   70  H   UNK N   1      32.004  16.276   8.545  0.00  0.00     0.222 HD
ENDBRANCH  36  69
ENDBRANCH   1  36
TORSDOF 22
ENDMDL
MODEL 6
REMARK VINA RESULT:      -7.8      3.742      9.660
REMARK  22 active torsions:
REMARK  status: ('A' for Active; 'I' for Inactive)
REMARK    1  A    between atoms: N_8  and  C_21 
REMARK    2  A    between atoms: O_59  and  C_16 
REMARK    3  A    between atoms: C_21  and  C_22 
REMARK    4  A    between atoms: C_22  and  C_23 
REMARK    5  A    between atoms: C_22  and  O_27 
REMARK    6  A    between atoms: C_23  and  C_24 
REMARK    7  A    between atoms: C_23  and  O_29 
REMARK    8  A    between atoms: C_24  and  C_25 
REMARK    9  A    between atoms: C_24  and  O_28 
REMARK   10  A    between atoms: C_25  and  O_26 
REMARK   11  A    between atoms: O_26  and  P_30 
REMARK   12  A    between atoms: P_30  and  O_31 
REMARK   13  A    between atoms: P_30  and  O_33 
REMARK   14  A    between atoms: O_31  and  P_34 
REMARK   15  A    between atoms: P_34  and  O_35 
REMARK   16  A    between atoms: P_34  and  O_37 
REMARK   17  A    between atoms: O_35  and  C_39 
REMARK   18  A    between atoms: C_38  and  C_39 
REMARK   19  A    between atoms: C_40  and  O_44 
REMARK   20  A    between atoms: C_41  and  O_45 
REMARK   21  A    between atoms: C_42  and  N_54 
REMARK   22  A    between atoms: C_53  and  N_58 
ROOT
HETATM    1  O   UNK N   1      25.270  14.795   2.530  0.00  0.00    -0.294 OA
ENDROOT
BRANCH   1   2
HETATM    2  C   UNK N   1      26.221  14.091   3.273  0.00  0.00     0.215 C 
BRANCH   2   3
HETATM    3  C   UNK N   1      27.655  14.258   2.747  0.00  0.00     0.173 C 
BRANCH   3   4
HETATM    4  C   UNK N   1      28.494  15.405   3.342  0.00  0.00     0.179 C 
BRANCH   4   5
HETATM    5  C   UNK N   1      29.158  15.158   4.705  0.00  0.00     0.167 C 
BRANCH   5   6
HETATM    6  C   UNK N   1      30.268  16.165   5.009  0.00  0.00     0.165 C 
BRANCH   6   7
HETATM    7  N   UNK N   1      30.497  16.321   6.455  0.00  0.00    -0.327 N 
HETATM    8  C   UNK N   1      29.819  17.291   7.156  0.00  0.00     0.145 A 
HETATM    9  N   UNK N   1      28.895  18.086   6.542  0.00  0.00    -0.292 N 
HETATM   10  C   UNK N   1      30.073  17.471   8.529  0.00  0.00     0.146 A 
HETATM   11  C   UNK N   1      28.210  19.043   7.244  0.00  0.00     0.328 A 
ATOM     12  HN  UNK N   1      28.714  17.966   5.545  1.00  0.00     0.172 HD
HETATM   13  N   UNK N   1      28.452  19.226   8.579  0.00  0.00    -0.273 N 
HETATM   14  O   UNK N   1      27.377  19.732   6.680  0.00  0.00    -0.247 OA
HETATM   15  C   UNK N   1      29.377  18.457   9.232  0.00  0.00     0.280 A 
HETATM   16  H   UNK N   1      27.957  19.918   9.075  0.00  0.00     0.173 HD
HETATM   17  O   UNK N   1      29.581  18.632  10.420  0.00  0.00    -0.265 OA
HETATM   18  N   UNK N   1      30.983  16.689   9.157  0.00  0.00    -0.345 N 
HETATM   19  C   UNK N   1      31.646  15.714   8.491  0.00  0.00     0.094 A 
ATOM     20  HN  UNK N   1      31.172  16.836  10.148  1.00  0.00     0.166 HD
HETATM   21  C   UNK N   1      31.405  15.517   7.112  0.00  0.00     0.066 A 
HETATM   22  C   UNK N   1      32.557  14.901   9.180  0.00  0.00     0.101 A 
HETATM   23  C   UNK N   1      32.090  14.483   6.450  0.00  0.00     0.039 A 
HETATM   24  C   UNK N   1      32.975  13.651   7.148  0.00  0.00    -0.051 A 
HETATM   25  C   UNK N   1      33.217  13.864   8.511  0.00  0.00    -0.021 A 
HETATM   26  C   UNK N   1      33.648  12.531   6.441  0.00  0.00     0.049 C 
HETATM   27  C   UNK N   1      34.165  12.982   9.260  0.00  0.00     0.052 C 
BRANCH  22  28
HETATM   28  O   UNK N   1      32.785  15.110  10.489  0.00  0.00    -0.358 OA
HETATM   29  H   UNK N   1      33.417  15.744  10.766  0.00  0.00     0.217 HD
ENDBRANCH  22  28
ENDBRANCH   6   7
ENDBRANCH   5   6
BRANCH   5  30
HETATM   30  O   UNK N   1      28.199  15.182   5.720  0.00  0.00    -0.391 OA
HETATM   31  H   UNK N   1      27.956  16.005   6.172  0.00  0.00     0.210 HD
ENDBRANCH   5  30
ENDBRANCH   4   5
BRANCH   4  32
HETATM   32  O   UNK N   1      27.801  16.613   3.320  0.00  0.00    -0.390 OA
HETATM   33  H   UNK N   1      27.617  17.078   2.488  0.00  0.00     0.210 HD
ENDBRANCH   4  32
ENDBRANCH   3   4
BRANCH   3  34
HETATM   34  O   UNK N   1      28.330  13.050   2.901  0.00  0.00    -0.391 OA
HETATM   35  H   UNK N   1      28.036  12.230   2.473  0.00  0.00     0.210 HD
ENDBRANCH   3  34
ENDBRANCH   2   3
ENDBRANCH   1   2
BRANCH   1  36
HETATM   36  P   UNK N   1      23.737  14.509   3.301  0.00  0.00     0.401 P 
HETATM   37  O   UNK N   1      24.004  14.616   4.828  0.00  0.00    -0.631 OA
BRANCH  36  38
HETATM   38  O   UNK N   1      22.658  15.794   2.818  0.00  0.00    -0.195 OA
BRANCH  38  39
HETATM   39  P   UNK N   1      21.025  15.192   2.815  0.00  0.00     0.401 P 
HETATM   40  O   UNK N   1      20.943  14.316   1.535  0.00  0.00    -0.631 OA
BRANCH  39  41
HETATM   41  O   UNK N   1      19.801  16.413   2.605  0.00  0.00    -0.294 OA
BRANCH  41  42
HETATM   42  C   UNK N   1      20.270  17.244   1.578  0.00  0.00     0.215 C 
BRANCH  42  43
HETATM   43  C   UNK N   1      20.022  18.718   1.864  0.00  0.00     0.180 C 
HETATM   44  C   UNK N   1      21.145  19.540   1.289  0.00  0.00     0.182 C 
HETATM   45  C   UNK N   1      21.512  20.492   2.391  0.00  0.00     0.198 C 
HETATM   46  C   UNK N   1      20.987  19.773   3.624  0.00  0.00     0.262 C 
HETATM   47  O   UNK N   1      19.894  18.967   3.246  0.00  0.00    -0.353 OA
BRANCH  44  48
HETATM   48  O   UNK N   1      20.722  20.195   0.127  0.00  0.00    -0.390 OA
HETATM   49  H   UNK N   1      20.899  21.136  -0.029  0.00  0.00     0.210 HD
ENDBRANCH  44  48
BRANCH  45  50
HETATM   50  O   UNK N   1      20.808  21.690   2.252  0.00  0.00    -0.388 OA
HETATM   51  H   UNK N   1      19.921  21.706   1.861  0.00  0.00     0.210 HD
ENDBRANCH  45  50
BRANCH  46  52
HETATM   52  N   UNK N   1      22.006  18.986   4.329  0.00  0.00    -0.297 N 
HETATM   53  C   UNK N   1      23.341  18.985   4.171  0.00  0.00     0.142 A 
HETATM   54  N   UNK N   1      24.090  19.740   3.329  0.00  0.00    -0.336 N 
HETATM   55  C   UNK N   1      23.886  18.064   4.988  0.00  0.00     0.122 A 
HETATM   56  C   UNK N   1      25.447  19.562   3.335  0.00  0.00     0.183 A 
ATOM     57  HN  UNK N   1      23.653  20.420   2.708  1.00  0.00     0.168 HD
HETATM   58  N   UNK N   1      26.023  18.633   4.167  0.00  0.00    -0.337 N 
HETATM   59  C   UNK N   1      25.258  17.868   5.002  0.00  0.00     0.131 A 
ATOM     60  HN  UNK N   1      27.036  18.512   4.162  1.00  0.00     0.168 HD
HETATM   61  N   UNK N   1      22.918  17.443   5.687  0.00  0.00    -0.346 N 
HETATM   62  C   UNK N   1      21.763  18.024   5.257  0.00  0.00     0.188 A 
ATOM     63  HN  UNK N   1      23.026  16.704   6.384  1.00  0.00     0.167 HD
BRANCH  59  64
HETATM   64  N   UNK N   1      25.853  16.905   5.841  0.00  0.00    -0.383 N 
HETATM   65  H   UNK N   1      25.691  15.934   5.815  0.00  0.00     0.157 HD
HETATM   66  H   UNK N   1      26.490  17.233   6.517  0.00  0.00     0.157 HD
ENDBRANCH  59  64
ENDBRANCH  46  52
ENDBRANCH  42  43
ENDBRANCH  41  42
ENDBRANCH  39  41
BRANCH  39  67
HETATM   67  O   UNK N   1      20.698  14.094   4.120  0.00  0.00    -0.307 OA
HETATM   68  H   UNK N   1      19.877  14.067   4.635  0.00  0.00     0.222 HD
ENDBRANCH  39  67
ENDBRANCH  38  39
ENDBRANCH  36  38
BRANCH  36  69
HETATM   69  O   UNK N   1      23.140  12.910   2.976  0.00  0.00    -0.307 OA
HETATM   70  H   UNK N   1      22.758  12.699   2.109  0.00  0.00     0.222 HD
ENDBRANCH  36  69
ENDBRANCH   1  36
TORSDOF 22
ENDMDL
MODEL 7
REMARK VINA RESULT:      -7.8      5.418     11.002
REMARK  22 active torsions:
REMARK  status: ('A' for Active; 'I' for Inactive)
REMARK    1  A    between atoms: N_8  and  C_21 
REMARK    2  A    between atoms: O_59  and  C_16 
REMARK    3  A    between atoms: C_21  and  C_22 
REMARK    4  A    between atoms: C_22  and  C_23 
REMARK    5  A    between atoms: C_22  and  O_27 
REMARK    6  A    between atoms: C_23  and  C_24 
REMARK    7  A    between atoms: C_23  and  O_29 
REMARK    8  A    between atoms: C_24  and  C_25 
REMARK    9  A    between atoms: C_24  and  O_28 
REMARK   10  A    between atoms: C_25  and  O_26 
REMARK   11  A    between atoms: O_26  and  P_30 
REMARK   12  A    between atoms: P_30  and  O_31 
REMARK   13  A    between atoms: P_30  and  O_33 
REMARK   14  A    between atoms: O_31  and  P_34 
REMARK   15  A    between atoms: P_34  and  O_35 
REMARK   16  A    between atoms: P_34  and  O_37 
REMARK   17  A    between atoms: O_35  and  C_39 
REMARK   18  A    between atoms: C_38  and  C_39 
REMARK   19  A    between atoms: C_40  and  O_44 
REMARK   20  A    between atoms: C_41  and  O_45 
REMARK   21  A    between atoms: C_42  and  N_54 
REMARK   22  A    between atoms: C_53  and  N_58 
ROOT
HETATM    1  O   UNK N   1      33.097  15.663   7.416  0.00  0.00    -0.294 OA
ENDROOT
BRANCH   1   2
HETATM    2  C   UNK N   1      32.523  15.492   8.678  0.00  0.00     0.215 C 
BRANCH   2   3
HETATM    3  C   UNK N   1      33.528  15.045   9.751  0.00  0.00     0.173 C 
BRANCH   3   4
HETATM    4  C   UNK N   1      34.869  15.802   9.817  0.00  0.00     0.179 C 
BRANCH   4   5
HETATM    5  C   UNK N   1      35.903  15.316  10.846  0.00  0.00     0.167 C 
BRANCH   5   6
HETATM    6  C   UNK N   1      36.436  13.919  10.528  0.00  0.00     0.165 C 
BRANCH   6   7
HETATM    7  N   UNK N   1      35.648  12.861  11.180  0.00  0.00    -0.327 N 
HETATM    8  C   UNK N   1      34.981  11.933  10.415  0.00  0.00     0.145 A 
HETATM    9  N   UNK N   1      35.078  11.944   9.053  0.00  0.00    -0.292 N 
HETATM   10  C   UNK N   1      34.188  10.949  11.036  0.00  0.00     0.146 A 
HETATM   11  C   UNK N   1      34.425  11.010   8.291  0.00  0.00     0.328 A 
ATOM     12  HN  UNK N   1      35.643  12.660   8.596  1.00  0.00     0.172 HD
HETATM   13  N   UNK N   1      33.651  10.052   8.888  0.00  0.00    -0.273 N 
HETATM   14  O   UNK N   1      34.537  11.028   7.078  0.00  0.00    -0.247 OA
HETATM   15  C   UNK N   1      33.519  10.010  10.250  0.00  0.00     0.280 A 
HETATM   16  H   UNK N   1      33.183   9.386   8.333  0.00  0.00     0.173 HD
HETATM   17  O   UNK N   1      32.827   9.151  10.765  0.00  0.00    -0.265 OA
HETATM   18  N   UNK N   1      34.084  10.919  12.387  0.00  0.00    -0.345 N 
HETATM   19  C   UNK N   1      34.748  11.810  13.160  0.00  0.00     0.094 A 
ATOM     20  HN  UNK N   1      33.496  10.213  12.828  1.00  0.00     0.166 HD
HETATM   21  C   UNK N   1      35.549  12.806  12.554  0.00  0.00     0.066 A 
HETATM   22  C   UNK N   1      34.644  11.730  14.555  0.00  0.00     0.101 A 
HETATM   23  C   UNK N   1      36.246  13.704  13.382  0.00  0.00     0.039 A 
HETATM   24  C   UNK N   1      36.165  13.601  14.776  0.00  0.00    -0.051 A 
HETATM   25  C   UNK N   1      35.357  12.619  15.365  0.00  0.00    -0.021 A 
HETATM   26  C   UNK N   1      36.952  14.526  15.632  0.00  0.00     0.049 C 
HETATM   27  C   UNK N   1      35.264  12.507  16.855  0.00  0.00     0.052 C 
BRANCH  22  28
HETATM   28  O   UNK N   1      33.866  10.785  15.116  0.00  0.00    -0.358 OA
HETATM   29  H   UNK N   1      34.037  10.486  15.988  0.00  0.00     0.217 HD
ENDBRANCH  22  28
ENDBRANCH   6   7
ENDBRANCH   5   6
BRANCH   5  30
HETATM   30  O   UNK N   1      36.960  16.225  10.931  0.00  0.00    -0.391 OA
HETATM   31  H   UNK N   1      37.190  16.662  11.765  0.00  0.00     0.210 HD
ENDBRANCH   5  30
ENDBRANCH   4   5
BRANCH   4  32
HETATM   32  O   UNK N   1      34.678  17.180   9.892  0.00  0.00    -0.390 OA
HETATM   33  H   UNK N   1      35.094  17.785   9.258  0.00  0.00     0.210 HD
ENDBRANCH   4  32
ENDBRANCH   3   4
BRANCH   3  34
HETATM   34  O   UNK N   1      32.901  15.087  10.994  0.00  0.00    -0.391 OA
HETATM   35  H   UNK N   1      33.242  14.607  11.766  0.00  0.00     0.210 HD
ENDBRANCH   3  34
ENDBRANCH   2   3
ENDBRANCH   1   2
BRANCH   1  36
HETATM   36  P   UNK N   1      32.890  17.342   7.009  0.00  0.00     0.401 P 
HETATM   37  O   UNK N   1      34.315  17.885   6.712  0.00  0.00    -0.631 OA
BRANCH  36  38
HETATM   38  O   UNK N   1      31.934  17.416   5.550  0.00  0.00    -0.195 OA
BRANCH  38  39
HETATM   39  P   UNK N   1      32.479  16.178   4.453  0.00  0.00     0.401 P 
HETATM   40  O   UNK N   1      32.403  16.848   3.053  0.00  0.00    -0.631 OA
BRANCH  39  41
HETATM   41  O   UNK N   1      31.432  14.790   4.347  0.00  0.00    -0.294 OA
BRANCH  41  42
HETATM   42  C   UNK N   1      30.357  15.063   5.204  0.00  0.00     0.215 C 
BRANCH  42  43
HETATM   43  C   UNK N   1      29.084  14.340   4.788  0.00  0.00     0.180 C 
HETATM   44  C   UNK N   1      28.821  14.582   3.325  0.00  0.00     0.182 C 
HETATM   45  C   UNK N   1      27.363  14.934   3.262  0.00  0.00     0.198 C 
HETATM   46  C   UNK N   1      27.085  15.405   4.682  0.00  0.00     0.262 C 
HETATM   47  O   UNK N   1      27.975  14.750   5.557  0.00  0.00    -0.353 OA
BRANCH  44  48
HETATM   48  O   UNK N   1      29.134  13.439   2.580  0.00  0.00    -0.390 OA
HETATM   49  H   UNK N   1      28.502  13.035   1.966  0.00  0.00     0.210 HD
ENDBRANCH  44  48
BRANCH  45  50
HETATM   50  O   UNK N   1      26.597  13.792   3.023  0.00  0.00    -0.388 OA
HETATM   51  H   UNK N   1      26.746  12.976   3.525  0.00  0.00     0.210 HD
ENDBRANCH  45  50
BRANCH  46  52
HETATM   52  N   UNK N   1      27.155  16.861   4.846  0.00  0.00    -0.297 N 
HETATM   53  C   UNK N   1      27.406  17.583   5.952  0.00  0.00     0.142 A 
HETATM   54  N   UNK N   1      27.686  17.137   7.203  0.00  0.00    -0.336 N 
HETATM   55  C   UNK N   1      27.315  18.894   5.661  0.00  0.00     0.122 A 
HETATM   56  C   UNK N   1      27.902  18.064   8.186  0.00  0.00     0.183 A 
ATOM     57  HN  UNK N   1      27.734  16.138   7.404  1.00  0.00     0.168 HD
HETATM   58  N   UNK N   1      27.823  19.406   7.907  0.00  0.00    -0.337 N 
HETATM   59  C   UNK N   1      27.526  19.845   6.647  0.00  0.00     0.131 A 
ATOM     60  HN  UNK N   1      27.988  20.086   8.649  1.00  0.00     0.168 HD
HETATM   61  N   UNK N   1      26.998  19.052   4.363  0.00  0.00    -0.346 N 
HETATM   62  C   UNK N   1      26.896  17.781   3.881  0.00  0.00     0.188 A 
ATOM     63  HN  UNK N   1      26.865  19.927   3.854  1.00  0.00     0.167 HD
BRANCH  59  64
HETATM   64  N   UNK N   1      27.430  21.223   6.370  0.00  0.00    -0.383 N 
HETATM   65  H   UNK N   1      26.873  21.635   5.670  0.00  0.00     0.157 HD
HETATM   66  H   UNK N   1      27.969  21.829   6.926  0.00  0.00     0.157 HD
ENDBRANCH  59  64
ENDBRANCH  46  52
ENDBRANCH  42  43
ENDBRANCH  41  42
ENDBRANCH  39  41
BRANCH  39  67
HETATM   67  O   UNK N   1      34.155  15.774   4.655  0.00  0.00    -0.307 OA
HETATM   68  H   UNK N   1      34.506  14.874   4.742  0.00  0.00     0.222 HD
ENDBRANCH  39  67
ENDBRANCH  38  39
ENDBRANCH  36  38
BRANCH  36  69
HETATM   69  O   UNK N   1      32.241  18.252   8.340  0.00  0.00    -0.307 OA
HETATM   70  H   UNK N   1      31.329  18.584   8.305  0.00  0.00     0.222 HD
ENDBRANCH  36  69
ENDBRANCH   1  36
TORSDOF 22
ENDMDL
MODEL 8
REMARK VINA RESULT:      -7.8      2.658      9.614
REMARK  22 active torsions:
REMARK  status: ('A' for Active; 'I' for Inactive)
REMARK    1  A    between atoms: N_8  and  C_21 
REMARK    2  A    between atoms: O_59  and  C_16 
REMARK    3  A    between atoms: C_21  and  C_22 
REMARK    4  A    between atoms: C_22  and  C_23 
REMARK    5  A    between atoms: C_22  and  O_27 
REMARK    6  A    between atoms: C_23  and  C_24 
REMARK    7  A    between atoms: C_23  and  O_29 
REMARK    8  A    between atoms: C_24  and  C_25 
REMARK    9  A    between atoms: C_24  and  O_28 
REMARK   10  A    between atoms: C_25  and  O_26 
REMARK   11  A    between atoms: O_26  and  P_30 
REMARK   12  A    between atoms: P_30  and  O_31 
REMARK   13  A    between atoms: P_30  and  O_33 
REMARK   14  A    between atoms: O_31  and  P_34 
REMARK   15  A    between atoms: P_34  and  O_35 
REMARK   16  A    between atoms: P_34  and  O_37 
REMARK   17  A    between atoms: O_35  and  C_39 
REMARK   18  A    between atoms: C_38  and  C_39 
REMARK   19  A    between atoms: C_40  and  O_44 
REMARK   20  A    between atoms: C_41  and  O_45 
REMARK   21  A    between atoms: C_42  and  N_54 
REMARK   22  A    between atoms: C_53  and  N_58 
ROOT
HETATM    1  O   UNK N   1      29.054  14.728   3.152  0.00  0.00    -0.294 OA
ENDROOT
BRANCH   1   2
HETATM    2  C   UNK N   1      29.463  13.792   4.105  0.00  0.00     0.215 C 
BRANCH   2   3
HETATM    3  C   UNK N   1      30.979  13.795   4.353  0.00  0.00     0.173 C 
BRANCH   3   4
HETATM    4  C   UNK N   1      31.758  15.057   3.933  0.00  0.00     0.179 C 
BRANCH   4   5
HETATM    5  C   UNK N   1      31.109  16.417   4.227  0.00  0.00     0.167 C 
BRANCH   5   6
HETATM    6  C   UNK N   1      31.908  17.244   5.235  0.00  0.00     0.165 C 
BRANCH   6   7
HETATM    7  N   UNK N   1      31.555  16.917   6.626  0.00  0.00    -0.327 N 
HETATM    8  C   UNK N   1      30.336  17.302   7.133  0.00  0.00     0.145 A 
HETATM    9  N   UNK N   1      29.420  17.943   6.351  0.00  0.00    -0.292 N 
HETATM   10  C   UNK N   1      30.017  17.031   8.478  0.00  0.00     0.146 A 
HETATM   11  C   UNK N   1      28.199  18.314   6.853  0.00  0.00     0.328 A 
ATOM     12  HN  UNK N   1      29.649  18.151   5.379  1.00  0.00     0.172 HD
HETATM   13  N   UNK N   1      27.883  18.056   8.159  0.00  0.00    -0.273 N 
HETATM   14  O   UNK N   1      27.389  18.872   6.133  0.00  0.00    -0.247 OA
HETATM   15  C   UNK N   1      28.776  17.422   8.981  0.00  0.00     0.280 A 
HETATM   16  H   UNK N   1      27.005  18.328   8.512  0.00  0.00     0.173 HD
HETATM   17  O   UNK N   1      28.479  17.200  10.141  0.00  0.00    -0.265 OA
HETATM   18  N   UNK N   1      30.912  16.391   9.269  0.00  0.00    -0.345 N 
HETATM   19  C   UNK N   1      32.109  15.985   8.785  0.00  0.00     0.094 A 
ATOM     20  HN  UNK N   1      30.680  16.211  10.245  1.00  0.00     0.166 HD
HETATM   21  C   UNK N   1      32.448  16.248   7.437  0.00  0.00     0.066 A 
HETATM   22  C   UNK N   1      32.998  15.295   9.622  0.00  0.00     0.101 A 
HETATM   23  C   UNK N   1      33.688  15.794   6.954  0.00  0.00     0.039 A 
HETATM   24  C   UNK N   1      34.560  15.078   7.784  0.00  0.00    -0.051 A 
HETATM   25  C   UNK N   1      34.220  14.835   9.121  0.00  0.00    -0.021 A 
HETATM   26  C   UNK N   1      35.842  14.561   7.238  0.00  0.00     0.049 C 
HETATM   27  C   UNK N   1      35.150  14.074  10.014  0.00  0.00     0.052 C 
BRANCH  22  28
HETATM   28  O   UNK N   1      32.666  15.065  10.906  0.00  0.00    -0.358 OA
HETATM   29  H   UNK N   1      31.856  15.385  11.252  0.00  0.00     0.217 HD
ENDBRANCH  22  28
ENDBRANCH   6   7
ENDBRANCH   5   6
BRANCH   5  30
HETATM   30  O   UNK N   1      30.943  17.138   3.043  0.00  0.00    -0.391 OA
HETATM   31  H   UNK N   1      31.201  16.772   2.183  0.00  0.00     0.210 HD
ENDBRANCH   5  30
ENDBRANCH   4   5
BRANCH   4  32
HETATM   32  O   UNK N   1      32.199  14.973   2.613  0.00  0.00    -0.390 OA
HETATM   33  H   UNK N   1      31.607  15.158   1.867  0.00  0.00     0.210 HD
ENDBRANCH   4  32
ENDBRANCH   3   4
BRANCH   3  34
HETATM   34  O   UNK N   1      31.212  13.523   5.699  0.00  0.00    -0.391 OA
HETATM   35  H   UNK N   1      31.814  12.822   5.992  0.00  0.00     0.210 HD
ENDBRANCH   3  34
ENDBRANCH   2   3
ENDBRANCH   1   2
BRANCH   1  36
HETATM   36  P   UNK N   1      27.718  15.592   3.856  0.00  0.00     0.401 P 
HETATM   37  O   UNK N   1      26.448  15.077   3.126  0.00  0.00    -0.631 OA
BRANCH  36  38
HETATM   38  O   UNK N   1      27.631  15.142   5.541  0.00  0.00    -0.195 OA
BRANCH  38  39
HETATM   39  P   UNK N   1      25.993  15.341   6.097  0.00  0.00     0.401 P 
HETATM   40  O   UNK N   1      26.127  15.488   7.637  0.00  0.00    -0.631 OA
BRANCH  39  41
HETATM   41  O   UNK N   1      24.973  13.949   5.862  0.00  0.00    -0.294 OA
BRANCH  41  42
HETATM   42  C   UNK N   1      23.696  14.460   5.592  0.00  0.00     0.215 C 
BRANCH  42  43
HETATM   43  C   UNK N   1      22.802  14.471   6.825  0.00  0.00     0.180 C 
HETATM   44  C   UNK N   1      21.683  13.479   6.646  0.00  0.00     0.182 C 
HETATM   45  C   UNK N   1      20.451  14.228   7.068  0.00  0.00     0.198 C 
HETATM   46  C   UNK N   1      20.884  15.677   6.900  0.00  0.00     0.262 C 
HETATM   47  O   UNK N   1      22.280  15.755   7.080  0.00  0.00    -0.353 OA
BRANCH  44  48
HETATM   48  O   UNK N   1      21.915  12.339   7.423  0.00  0.00    -0.390 OA
HETATM   49  H   UNK N   1      22.810  12.044   7.652  0.00  0.00     0.210 HD
ENDBRANCH  44  48
BRANCH  45  50
HETATM   50  O   UNK N   1      20.187  14.006   8.421  0.00  0.00    -0.388 OA
HETATM   51  H   UNK N   1      19.504  13.376   8.700  0.00  0.00     0.210 HD
ENDBRANCH  45  50
BRANCH  46  52
HETATM   52  N   UNK N   1      20.480  16.270   5.620  0.00  0.00    -0.297 N 
HETATM   53  C   UNK N   1      21.087  17.224   4.894  0.00  0.00     0.142 A 
HETATM   54  N   UNK N   1      22.254  17.865   5.154  0.00  0.00    -0.336 N 
HETATM   55  C   UNK N   1      20.338  17.508   3.812  0.00  0.00     0.122 A 
HETATM   56  C   UNK N   1      22.681  18.817   4.267  0.00  0.00     0.183 A 
ATOM     57  HN  UNK N   1      22.798  17.645   5.988  1.00  0.00     0.168 HD
HETATM   58  N   UNK N   1      21.934  19.114   3.153  0.00  0.00    -0.337 N 
HETATM   59  C   UNK N   1      20.753  18.472   2.908  0.00  0.00     0.131 A 
ATOM     60  HN  UNK N   1      22.265  19.824   2.500  1.00  0.00     0.168 HD
HETATM   61  N   UNK N   1      19.225  16.750   3.816  0.00  0.00    -0.346 N 
HETATM   62  C   UNK N   1      19.331  15.998   4.948  0.00  0.00     0.188 A 
ATOM     63  HN  UNK N   1      18.473  16.740   3.126  1.00  0.00     0.167 HD
BRANCH  59  64
HETATM   64  N   UNK N   1      19.983  18.793   1.772  0.00  0.00    -0.383 N 
HETATM   65  H   UNK N   1      19.013  18.961   1.759  0.00  0.00     0.157 HD
HETATM   66  H   UNK N   1      20.459  18.855   0.912  0.00  0.00     0.157 HD
ENDBRANCH  59  64
ENDBRANCH  46  52
ENDBRANCH  42  43
ENDBRANCH  41  42
ENDBRANCH  39  41
BRANCH  39  67
HETATM   67  O   UNK N   1      25.270  16.832   5.576  0.00  0.00    -0.307 OA
HETATM   68  H   UNK N   1      24.914  17.515   6.164  0.00  0.00     0.222 HD
ENDBRANCH  39  67
ENDBRANCH  38  39
ENDBRANCH  36  38
BRANCH  36  69
HETATM   69  O   UNK N   1      27.837  17.302   3.574  0.00  0.00    -0.307 OA
HETATM   70  H   UNK N   1      27.049  17.812   3.325  0.00  0.00     0.222 HD
ENDBRANCH  36  69
ENDBRANCH   1  36
TORSDOF 22
ENDMDL
MODEL 9
REMARK VINA RESULT:      -7.7      3.084      6.507
REMARK  22 active torsions:
REMARK  status: ('A' for Active; 'I' for Inactive)
REMARK    1  A    between atoms: N_8  and  C_21 
REMARK    2  A    between atoms: O_59  and  C_16 
REMARK    3  A    between atoms: C_21  and  C_22 
REMARK    4  A    between atoms: C_22  and  C_23 
REMARK    5  A    between atoms: C_22  and  O_27 
REMARK    6  A    between atoms: C_23  and  C_24 
REMARK    7  A    between atoms: C_23  and  O_29 
REMARK    8  A    between atoms: C_24  and  C_25 
REMARK    9  A    between atoms: C_24  and  O_28 
REMARK   10  A    between atoms: C_25  and  O_26 
REMARK   11  A    between atoms: O_26  and  P_30 
REMARK   12  A    between atoms: P_30  and  O_31 
REMARK   13  A    between atoms: P_30  and  O_33 
REMARK   14  A    between atoms: O_31  and  P_34 
REMARK   15  A    between atoms: P_34  and  O_35 
REMARK   16  A    between atoms: P_34  and  O_37 
REMARK   17  A    between atoms: O_35  and  C_39 
REMARK   18  A    between atoms: C_38  and  C_39 
REMARK   19  A    between atoms: C_40  and  O_44 
REMARK   20  A    between atoms: C_41  and  O_45 
REMARK   21  A    between atoms: C_42  and  N_54 
REMARK   22  A    between atoms: C_53  and  N_58 
ROOT
HETATM    1  O   UNK N   1      22.201  13.531   2.863  0.00  0.00    -0.294 OA
ENDROOT
BRANCH   1   2
HETATM    2  C   UNK N   1      21.078  13.994   2.173  0.00  0.00     0.215 C 
BRANCH   2   3
HETATM    3  C   UNK N   1      19.871  14.266   3.085  0.00  0.00     0.173 C 
BRANCH   3   4
HETATM    4  C   UNK N   1      19.868  15.591   3.872  0.00  0.00     0.179 C 
BRANCH   4   5
HETATM    5  C   UNK N   1      19.458  15.532   5.351  0.00  0.00     0.167 C 
BRANCH   5   6
HETATM    6  C   UNK N   1      20.192  16.565   6.206  0.00  0.00     0.165 C 
BRANCH   6   7
HETATM    7  N   UNK N   1      21.650  16.515   6.009  0.00  0.00    -0.327 N 
HETATM    8  C   UNK N   1      22.391  15.530   6.618  0.00  0.00     0.145 A 
HETATM    9  N   UNK N   1      21.790  14.561   7.368  0.00  0.00    -0.292 N 
HETATM   10  C   UNK N   1      23.791  15.510   6.469  0.00  0.00     0.146 A 
HETATM   11  C   UNK N   1      22.528  13.570   7.963  0.00  0.00     0.328 A 
ATOM     12  HN  UNK N   1      20.777  14.575   7.488  1.00  0.00     0.172 HD
HETATM   13  N   UNK N   1      23.889  13.545   7.824  0.00  0.00    -0.273 N 
HETATM   14  O   UNK N   1      21.971  12.704   8.616  0.00  0.00    -0.247 OA
HETATM   15  C   UNK N   1      24.533  14.503   7.088  0.00  0.00     0.280 A 
HETATM   16  H   UNK N   1      24.412  12.832   8.258  0.00  0.00     0.173 HD
HETATM   17  O   UNK N   1      25.745  14.467   6.974  0.00  0.00    -0.265 OA
HETATM   18  N   UNK N   1      24.405  16.462   5.724  0.00  0.00    -0.345 N 
HETATM   19  C   UNK N   1      23.693  17.428   5.099  0.00  0.00     0.094 A 
ATOM     20  HN  UNK N   1      25.420  16.449   5.633  1.00  0.00     0.166 HD
HETATM   21  C   UNK N   1      22.286  17.465   5.238  0.00  0.00     0.066 A 
HETATM   22  C   UNK N   1      24.357  18.377   4.310  0.00  0.00     0.101 A 
HETATM   23  C   UNK N   1      21.569  18.466   4.558  0.00  0.00     0.039 A 
HETATM   24  C   UNK N   1      22.232  19.393   3.745  0.00  0.00    -0.051 A 
HETATM   25  C   UNK N   1      23.628  19.356   3.626  0.00  0.00    -0.021 A 
HETATM   26  C   UNK N   1      21.450  20.409   2.994  0.00  0.00     0.049 C 
HETATM   27  C   UNK N   1      24.342  20.347   2.762  0.00  0.00     0.052 C 
BRANCH  22  28
HETATM   28  O   UNK N   1      25.697  18.337   4.199  0.00  0.00    -0.358 OA
HETATM   29  H   UNK N   1      26.166  19.065   3.841  0.00  0.00     0.217 HD
ENDBRANCH  22  28
ENDBRANCH   6   7
ENDBRANCH   5   6
BRANCH   5  30
HETATM   30  O   UNK N   1      18.078  15.702   5.475  0.00  0.00    -0.391 OA
HETATM   31  H   UNK N   1      17.696  16.312   6.125  0.00  0.00     0.210 HD
ENDBRANCH   5  30
ENDBRANCH   4   5
BRANCH   4  32
HETATM   32  O   UNK N   1      19.183  16.593   3.188  0.00  0.00    -0.390 OA
HETATM   33  H   UNK N   1      19.534  16.983   2.372  0.00  0.00     0.210 HD
ENDBRANCH   4  32
ENDBRANCH   3   4
BRANCH   3  34
HETATM   34  O   UNK N   1      18.708  14.166   2.325  0.00  0.00    -0.391 OA
HETATM   35  H   UNK N   1      18.710  14.238   1.358  0.00  0.00     0.210 HD
ENDBRANCH   3  34
ENDBRANCH   2   3
ENDBRANCH   1   2
BRANCH   1  36
HETATM   36  P   UNK N   1      23.576  13.900   1.862  0.00  0.00     0.401 P 
HETATM   37  O   UNK N   1      22.995  14.451   0.531  0.00  0.00    -0.631 OA
BRANCH  36  38
HETATM   38  O   UNK N   1      24.481  15.164   2.657  0.00  0.00    -0.195 OA
BRANCH  38  39
HETATM   39  P   UNK N   1      26.058  14.555   3.075  0.00  0.00     0.401 P 
HETATM   40  O   UNK N   1      25.766  13.310   3.956  0.00  0.00    -0.631 OA
BRANCH  39  41
HETATM   41  O   UNK N   1      27.000  15.614   4.087  0.00  0.00    -0.294 OA
BRANCH  41  42
HETATM   42  C   UNK N   1      28.052  16.068   3.281  0.00  0.00     0.215 C 
BRANCH  42  43
HETATM   43  C   UNK N   1      29.418  15.754   3.876  0.00  0.00     0.180 C 
HETATM   44  C   UNK N   1      29.262  14.766   5.002  0.00  0.00     0.182 C 
HETATM   45  C   UNK N   1      30.101  15.332   6.112  0.00  0.00     0.198 C 
HETATM   46  C   UNK N   1      30.180  16.804   5.736  0.00  0.00     0.262 C 
HETATM   47  O   UNK N   1      30.067  16.919   4.336  0.00  0.00    -0.353 OA
BRANCH  44  48
HETATM   48  O   UNK N   1      29.688  13.496   4.596  0.00  0.00    -0.390 OA
HETATM   49  H   UNK N   1      30.314  12.971   5.118  0.00  0.00     0.210 HD
ENDBRANCH  44  48
BRANCH  45  50
HETATM   50  O   UNK N   1      31.391  14.800   6.067  0.00  0.00    -0.388 OA
HETATM   51  H   UNK N   1      31.867  14.574   6.881  0.00  0.00     0.210 HD
ENDBRANCH  45  50
BRANCH  46  52
HETATM   52  N   UNK N   1      29.188  17.643   6.419  0.00  0.00    -0.297 N 
HETATM   53  C   UNK N   1      28.524  18.719   5.963  0.00  0.00     0.142 A 
HETATM   54  N   UNK N   1      28.588  19.289   4.734  0.00  0.00    -0.336 N 
HETATM   55  C   UNK N   1      27.752  19.218   6.947  0.00  0.00     0.122 A 
HETATM   56  C   UNK N   1      27.819  20.396   4.493  0.00  0.00     0.183 A 
ATOM     57  HN  UNK N   1      29.192  18.903   4.008  1.00  0.00     0.168 HD
HETATM   58  N   UNK N   1      27.017  20.914   5.481  0.00  0.00    -0.337 N 
HETATM   59  C   UNK N   1      26.972  20.340   6.721  0.00  0.00     0.131 A 
ATOM     60  HN  UNK N   1      26.449  21.738   5.288  1.00  0.00     0.168 HD
HETATM   61  N   UNK N   1      27.902  18.481   8.063  0.00  0.00    -0.346 N 
HETATM   62  C   UNK N   1      28.802  17.517   7.715  0.00  0.00     0.188 A 
ATOM     63  HN  UNK N   1      27.444  18.613   8.966  1.00  0.00     0.167 HD
BRANCH  59  64
HETATM   64  N   UNK N   1      26.160  20.886   7.736  0.00  0.00    -0.383 N 
HETATM   65  H   UNK N   1      25.481  20.401   8.258  0.00  0.00     0.157 HD
HETATM   66  H   UNK N   1      26.285  21.841   7.942  0.00  0.00     0.157 HD
ENDBRANCH  59  64
ENDBRANCH  46  52
ENDBRANCH  42  43
ENDBRANCH  41  42
ENDBRANCH  39  41
BRANCH  39  67
HETATM   67  O   UNK N   1      26.934  13.932   1.711  0.00  0.00    -0.307 OA
HETATM   68  H   UNK N   1      27.893  14.000   1.585  0.00  0.00     0.222 HD
ENDBRANCH  39  67
ENDBRANCH  38  39
ENDBRANCH  36  38
BRANCH  36  69
HETATM   69  O   UNK N   1      24.502  12.478   1.490  0.00  0.00    -0.307 OA
HETATM   70  H   UNK N   1      24.735  11.849   2.192  0.00  0.00     0.222 HD
ENDBRANCH  36  69
ENDBRANCH   1  36
TORSDOF 22
ENDMDL
