MODEL 1
REMARK VINA RESULT:      -8.2      0.000      0.000
REMARK  9 active torsions:
REMARK  status: ('A' for Active; 'I' for Inactive)
REMARK    1  A    between atoms: C_15  and  O_16 
REMARK    2  A    between atoms: C_17  and  O_18 
REMARK    3  A    between atoms: C_20  and  C_21 
REMARK    4  A    between atoms: C_20  and  C_22 
REMARK    5  A    between atoms: C_27  and  C_21 
REMARK       I    between atoms: C_22  and  N_29 
REMARK    6  A    between atoms: C_24  and  C_27 
REMARK    7  A    between atoms: C_25  and  O_26 
REMARK    8  A    between atoms: N_29  and  C_30 
REMARK    9  A    between atoms: C_30  and  C_31 
ROOT
HETATM    1  C   UNK N   1      31.619  17.987   7.802  0.00  0.00     0.012 C 
HETATM    2  C   UNK N   1      32.875  17.765   8.646  0.00  0.00     0.032 C 
HETATM    3  C   UNK N   1      34.044  16.813   6.619  0.00  0.00     0.037 C 
HETATM    4  C   UNK N   1      32.721  16.108   4.590  0.00  0.00     0.037 C 
HETATM    5  C   UNK N   1      31.518  16.954   6.665  0.00  0.00    -0.036 C 
HETATM    6  C   UNK N   1      28.987  17.145   6.654  0.00  0.00     0.038 C 
HETATM    7  C   UNK N   1      28.622  15.764   2.549  0.00  0.00     0.006 C 
HETATM    8  C   UNK N   1      27.101  15.906   2.364  0.00  0.00     0.006 C 
HETATM    9  C   UNK N   1      31.415  15.548   7.281  0.00  0.00     0.016 C 
HETATM   10  C   UNK N   1      30.267  17.242   5.800  0.00  0.00     0.003 C 
HETATM   11  C   UNK N   1      30.199  16.269   4.582  0.00  0.00     0.024 C 
HETATM   12  C   UNK N   1      28.917  16.593   3.790  0.00  0.00     0.003 C 
HETATM   13  C   UNK N   1      27.650  16.421   4.644  0.00  0.00    -0.010 C 
HETATM   14  C   UNK N   1      27.516  14.972   5.161  0.00  0.00     0.018 C 
HETATM   15  C   UNK N   1      34.129  17.815   7.776  0.00  0.00     0.118 C 
HETATM   16  C   UNK N   1      31.479  16.377   3.727  0.00  0.00     0.123 C 
HETATM   17  C   UNK N   1      32.788  17.075   5.781  0.00  0.00    -0.001 C 
HETATM   18  C   UNK N   1      26.589  16.716   3.568  0.00  0.00     0.000 C 
HETATM   19  C   UNK N   1      27.718  17.396   5.837  0.00  0.00     0.127 C 
ENDROOT
BRANCH  18  20
HETATM   20  C   UNK N   1      25.089  16.495   3.880  0.00  0.00    -0.013 C 
HETATM   21  C   UNK N   1      24.438  15.405   3.055  0.00  0.00     0.010 C 
BRANCH  20  22
HETATM   22  C   UNK N   1      24.181  17.728   3.966  0.00  0.00     0.014 C 
BRANCH  22  23
HETATM   23  C   UNK N   1      24.911  19.030   3.618  0.00  0.00     0.103 C 
BRANCH  23  24
HETATM   24  C   UNK N   1      23.970  20.058   3.066  0.00  0.00     0.218 C 
HETATM   25  N   UNK N   1      22.641  19.881   3.238  0.00  0.00    -0.351 N 
HETATM   26  H   UNK N   1      22.333  19.152   3.824  0.00  0.00     0.163 HD
HETATM   27  O   UNK N   1      24.398  20.987   2.394  0.00  0.00    -0.274 OA
BRANCH  25  28
HETATM   28  C   UNK N   1      21.657  20.714   2.597  0.00  0.00     0.235 C 
BRANCH  28  29
HETATM   29  C   UNK N   1      21.109  20.022   1.403  0.00  0.00     0.191 C 
HETATM   30  O   UNK N   1      21.195  20.600   0.191  0.00  0.00    -0.647 OA
HETATM   31  O   UNK N   1      20.592  18.923   1.519  0.00  0.00    -0.647 OA
ENDBRANCH  28  29
ENDBRANCH  25  28
ENDBRANCH  23  24
ENDBRANCH  22  23
ENDBRANCH  20  22
ENDBRANCH  18  20
BRANCH  19  32
HETATM   32  O   UNK N   1      26.620  17.246   6.682  0.00  0.00    -0.395 OA
HETATM   33  H   UNK N   1      26.057  16.458   6.614  0.00  0.00     0.210 HD
ENDBRANCH  19  32
BRANCH  16  34
HETATM   34  O   UNK N   1      31.587  17.632   3.118  0.00  0.00    -0.395 OA
HETATM   35  H   UNK N   1      31.436  18.305   2.436  0.00  0.00     0.210 HD
ENDBRANCH  16  34
BRANCH  15  36
HETATM   36  O   UNK N   1      35.242  17.524   8.562  0.00  0.00    -0.396 OA
HETATM   37  H   UNK N   1      36.155  17.751   8.328  0.00  0.00     0.210 HD
ENDBRANCH  15  36
TORSDOF 9
ENDMDL
MODEL 2
REMARK VINA RESULT:      -7.7      5.661      7.928
REMARK  9 active torsions:
REMARK  status: ('A' for Active; 'I' for Inactive)
REMARK    1  A    between atoms: C_15  and  O_16 
REMARK    2  A    between atoms: C_17  and  O_18 
REMARK    3  A    between atoms: C_20  and  C_21 
REMARK    4  A    between atoms: C_20  and  C_22 
REMARK    5  A    between atoms: C_27  and  C_21 
REMARK       I    between atoms: C_22  and  N_29 
REMARK    6  A    between atoms: C_24  and  C_27 
REMARK    7  A    between atoms: C_25  and  O_26 
REMARK    8  A    between atoms: N_29  and  C_30 
REMARK    9  A    between atoms: C_30  and  C_31 
ROOT
HETATM    1  C   UNK N   1      21.296  13.713   9.768  0.00  0.00     0.012 C 
HETATM    2  C   UNK N   1      21.421  12.609  10.820  0.00  0.00     0.032 C 
HETATM    3  C   UNK N   1      23.738  12.083   9.963  0.00  0.00     0.037 C 
HETATM    4  C   UNK N   1      24.503  12.949   7.720  0.00  0.00     0.037 C 
HETATM    5  C   UNK N   1      22.127  13.389   8.514  0.00  0.00    -0.036 C 
HETATM    6  C   UNK N   1      20.555  14.758   7.064  0.00  0.00     0.038 C 
HETATM    7  C   UNK N   1      23.542  15.437   3.981  0.00  0.00     0.006 C 
HETATM    8  C   UNK N   1      22.737  16.350   3.039  0.00  0.00     0.006 C 
HETATM    9  C   UNK N   1      21.586  12.093   7.884  0.00  0.00     0.016 C 
HETATM   10  C   UNK N   1      22.021  14.551   7.497  0.00  0.00     0.003 C 
HETATM   11  C   UNK N   1      22.934  14.289   6.259  0.00  0.00     0.024 C 
HETATM   12  C   UNK N   1      22.753  15.467   5.280  0.00  0.00     0.003 C 
HETATM   13  C   UNK N   1      21.296  15.609   4.810  0.00  0.00    -0.010 C 
HETATM   14  C   UNK N   1      20.815  14.332   4.087  0.00  0.00     0.018 C 
HETATM   15  C   UNK N   1      22.883  12.383  11.199  0.00  0.00     0.118 C 
HETATM   16  C   UNK N   1      24.401  14.091   6.697  0.00  0.00     0.123 C 
HETATM   17  C   UNK N   1      23.609  13.216   8.940  0.00  0.00    -0.001 C 
HETATM   18  C   UNK N   1      21.474  16.766   3.812  0.00  0.00     0.000 C 
HETATM   19  C   UNK N   1      20.401  15.882   6.037  0.00  0.00     0.127 C 
ENDROOT
BRANCH  18  20
HETATM   20  C   UNK N   1      20.295  17.192   2.903  0.00  0.00    -0.013 C 
HETATM   21  C   UNK N   1      20.395  16.684   1.479  0.00  0.00     0.010 C 
BRANCH  20  22
HETATM   22  C   UNK N   1      19.859  18.662   2.927  0.00  0.00     0.014 C 
BRANCH  22  23
HETATM   23  C   UNK N   1      20.784  19.542   3.775  0.00  0.00     0.103 C 
BRANCH  23  24
HETATM   24  C   UNK N   1      21.877  20.148   2.947  0.00  0.00     0.218 C 
HETATM   25  N   UNK N   1      23.161  19.922   3.300  0.00  0.00    -0.351 N 
HETATM   26  H   UNK N   1      23.347  19.267   4.011  0.00  0.00     0.163 HD
HETATM   27  O   UNK N   1      21.603  20.910   2.029  0.00  0.00    -0.274 OA
BRANCH  25  28
HETATM   28  C   UNK N   1      24.269  20.598   2.678  0.00  0.00     0.235 C 
BRANCH  28  29
HETATM   29  C   UNK N   1      25.547  19.978   3.110  0.00  0.00     0.191 C 
HETATM   30  O   UNK N   1      25.574  18.687   3.488  0.00  0.00    -0.647 OA
HETATM   31  O   UNK N   1      26.575  20.634   3.107  0.00  0.00    -0.647 OA
ENDBRANCH  28  29
ENDBRANCH  25  28
ENDBRANCH  23  24
ENDBRANCH  22  23
ENDBRANCH  20  22
ENDBRANCH  18  20
BRANCH  19  32
HETATM   32  O   UNK N   1      19.056  15.962   5.680  0.00  0.00    -0.395 OA
HETATM   33  H   UNK N   1      18.709  15.408   4.963  0.00  0.00     0.210 HD
ENDBRANCH  19  32
BRANCH  16  34
HETATM   34  O   UNK N   1      24.938  15.263   7.240  0.00  0.00    -0.395 OA
HETATM   35  H   UNK N   1      25.599  15.962   7.369  0.00  0.00     0.210 HD
ENDBRANCH  16  34
BRANCH  15  36
HETATM   36  O   UNK N   1      22.964  11.316  12.090  0.00  0.00    -0.396 OA
HETATM   37  H   UNK N   1      22.925  11.402  13.055  0.00  0.00     0.210 HD
ENDBRANCH  15  36
TORSDOF 9
ENDMDL
MODEL 3
REMARK VINA RESULT:      -7.6     10.482     12.701
REMARK  9 active torsions:
REMARK  status: ('A' for Active; 'I' for Inactive)
REMARK    1  A    between atoms: C_15  and  O_16 
REMARK    2  A    between atoms: C_17  and  O_18 
REMARK    3  A    between atoms: C_20  and  C_21 
REMARK    4  A    between atoms: C_20  and  C_22 
REMARK    5  A    between atoms: C_27  and  C_21 
REMARK       I    between atoms: C_22  and  N_29 
REMARK    6  A    between atoms: C_24  and  C_27 
REMARK    7  A    between atoms: C_25  and  O_26 
REMARK    8  A    between atoms: N_29  and  C_30 
REMARK    9  A    between atoms: C_30  and  C_31 
ROOT
HETATM    1  C   UNK N   1      32.422  22.530  -4.066  0.00  0.00     0.012 C 
HETATM    2  C   UNK N   1      33.307  21.392  -3.555  0.00  0.00     0.032 C 
HETATM    3  C   UNK N   1      32.224  19.828  -5.216  0.00  0.00     0.037 C 
HETATM    4  C   UNK N   1      30.064  20.464  -6.355  0.00  0.00     0.037 C 
HETATM    5  C   UNK N   1      31.079  21.998  -4.598  0.00  0.00    -0.036 C 
HETATM    6  C   UNK N   1      29.939  24.200  -4.050  0.00  0.00     0.038 C 
HETATM    7  C   UNK N   1      26.763  23.600  -6.956  0.00  0.00     0.006 C 
HETATM    8  C   UNK N   1      26.010  24.933  -6.793  0.00  0.00     0.006 C 
HETATM    9  C   UNK N   1      30.325  21.315  -3.444  0.00  0.00     0.016 C 
HETATM   10  C   UNK N   1      30.234  23.168  -5.158  0.00  0.00     0.003 C 
HETATM   11  C   UNK N   1      28.909  22.642  -5.793  0.00  0.00     0.024 C 
HETATM   12  C   UNK N   1      28.109  23.860  -6.297  0.00  0.00     0.003 C 
HETATM   13  C   UNK N   1      27.768  24.838  -5.160  0.00  0.00    -0.010 C 
HETATM   14  C   UNK N   1      26.921  24.152  -4.068  0.00  0.00     0.018 C 
HETATM   15  C   UNK N   1      33.546  20.355  -4.650  0.00  0.00     0.118 C 
HETATM   16  C   UNK N   1      29.210  21.617  -6.907  0.00  0.00     0.123 C 
HETATM   17  C   UNK N   1      31.370  20.988  -5.739  0.00  0.00    -0.001 C 
HETATM   18  C   UNK N   1      26.920  25.847  -5.955  0.00  0.00     0.000 C 
HETATM   19  C   UNK N   1      29.082  25.366  -4.547  0.00  0.00     0.127 C 
ENDROOT
BRANCH  18  20
HETATM   20  C   UNK N   1      26.163  26.974  -5.211  0.00  0.00    -0.013 C 
HETATM   21  C   UNK N   1      24.726  27.153  -5.655  0.00  0.00     0.010 C 
BRANCH  20  22
HETATM   22  C   UNK N   1      26.858  28.333  -5.060  0.00  0.00     0.014 C 
BRANCH  22  23
HETATM   23  C   UNK N   1      26.375  29.113  -3.832  0.00  0.00     0.103 C 
BRANCH  23  24
HETATM   24  C   UNK N   1      27.522  29.720  -3.080  0.00  0.00     0.218 C 
HETATM   25  N   UNK N   1      27.604  29.518  -1.747  0.00  0.00    -0.351 N 
HETATM   26  H   UNK N   1      26.984  28.879  -1.326  0.00  0.00     0.163 HD
HETATM   27  O   UNK N   1      28.311  30.460  -3.653  0.00  0.00    -0.274 OA
BRANCH  25  28
HETATM   28  C   UNK N   1      28.561  30.199  -0.915  0.00  0.00     0.235 C 
BRANCH  28  29
HETATM   29  C   UNK N   1      28.242  29.967   0.517  0.00  0.00     0.191 C 
HETATM   30  O   UNK N   1      28.862  30.688   1.470  0.00  0.00    -0.647 OA
HETATM   31  O   UNK N   1      27.409  29.133   0.828  0.00  0.00    -0.647 OA
ENDBRANCH  28  29
ENDBRANCH  25  28
ENDBRANCH  23  24
ENDBRANCH  22  23
ENDBRANCH  20  22
ENDBRANCH  18  20
BRANCH  19  32
HETATM   32  O   UNK N   1      28.837  26.215  -3.470  0.00  0.00    -0.395 OA
HETATM   33  H   UNK N   1      27.987  26.177  -3.003  0.00  0.00     0.210 HD
ENDBRANCH  19  32
BRANCH  16  34
HETATM   34  O   UNK N   1      29.862  22.212  -7.992  0.00  0.00    -0.395 OA
HETATM   35  H   UNK N   1      30.617  22.457  -8.551  0.00  0.00     0.210 HD
ENDBRANCH  16  34
BRANCH  15  36
HETATM   36  O   UNK N   1      34.282  19.296  -4.123  0.00  0.00    -0.396 OA
HETATM   37  H   UNK N   1      35.227  19.152  -4.282  0.00  0.00     0.210 HD
ENDBRANCH  15  36
TORSDOF 9
ENDMDL
MODEL 4
REMARK VINA RESULT:      -7.6     10.893     14.273
REMARK  9 active torsions:
REMARK  status: ('A' for Active; 'I' for Inactive)
REMARK    1  A    between atoms: C_15  and  O_16 
REMARK    2  A    between atoms: C_17  and  O_18 
REMARK    3  A    between atoms: C_20  and  C_21 
REMARK    4  A    between atoms: C_20  and  C_22 
REMARK    5  A    between atoms: C_27  and  C_21 
REMARK       I    between atoms: C_22  and  N_29 
REMARK    6  A    between atoms: C_24  and  C_27 
REMARK    7  A    between atoms: C_25  and  O_26 
REMARK    8  A    between atoms: N_29  and  C_30 
REMARK    9  A    between atoms: C_30  and  C_31 
ROOT
HETATM    1  C   UNK N   1      28.731  27.809  -4.324  0.00  0.00     0.012 C 
HETATM    2  C   UNK N   1      28.390  29.265  -4.001  0.00  0.00     0.032 C 
HETATM    3  C   UNK N   1      25.932  28.685  -4.082  0.00  0.00     0.037 C 
HETATM    4  C   UNK N   1      25.159  26.526  -5.134  0.00  0.00     0.037 C 
HETATM    5  C   UNK N   1      27.625  27.148  -5.165  0.00  0.00    -0.036 C 
HETATM    6  C   UNK N   1      29.305  25.551  -6.202  0.00  0.00     0.038 C 
HETATM    7  C   UNK N   1      26.292  22.579  -7.189  0.00  0.00     0.006 C 
HETATM    8  C   UNK N   1      27.197  21.478  -7.771  0.00  0.00     0.006 C 
HETATM    9  C   UNK N   1      27.505  27.898  -6.503  0.00  0.00     0.016 C 
HETATM   10  C   UNK N   1      27.977  25.663  -5.426  0.00  0.00     0.003 C 
HETATM   11  C   UNK N   1      26.823  24.945  -6.193  0.00  0.00     0.024 C 
HETATM   12  C   UNK N   1      27.257  23.487  -6.443  0.00  0.00     0.003 C 
HETATM   13  C   UNK N   1      28.545  23.403  -7.278  0.00  0.00    -0.010 C 
HETATM   14  C   UNK N   1      28.362  24.071  -8.658  0.00  0.00     0.018 C 
HETATM   15  C   UNK N   1      27.048  29.360  -3.277  0.00  0.00     0.118 C 
HETATM   16  C   UNK N   1      25.499  25.053  -5.407  0.00  0.00     0.123 C 
HETATM   17  C   UNK N   1      26.294  27.225  -4.371  0.00  0.00    -0.001 C 
HETATM   18  C   UNK N   1      28.642  21.873  -7.422  0.00  0.00     0.000 C 
HETATM   19  C   UNK N   1      29.685  24.101  -6.508  0.00  0.00     0.127 C 
ENDROOT
BRANCH  18  20
HETATM   20  C   UNK N   1      29.706  21.251  -8.359  0.00  0.00    -0.013 C 
HETATM   21  C   UNK N   1      29.136  20.332  -9.419  0.00  0.00     0.010 C 
BRANCH  20  22
HETATM   22  C   UNK N   1      30.958  20.635  -7.721  0.00  0.00     0.014 C 
BRANCH  22  23
HETATM   23  C   UNK N   1      30.720  20.160  -6.284  0.00  0.00     0.103 C 
BRANCH  23  24
HETATM   24  C   UNK N   1      31.416  21.041  -5.291  0.00  0.00     0.218 C 
HETATM   25  N   UNK N   1      31.030  20.995  -3.997  0.00  0.00    -0.351 N 
HETATM   26  H   UNK N   1      30.391  20.299  -3.720  0.00  0.00     0.163 HD
HETATM   27  O   UNK N   1      32.252  21.852  -5.668  0.00  0.00    -0.274 OA
BRANCH  25  28
HETATM   28  C   UNK N   1      31.512  21.922  -3.008  0.00  0.00     0.235 C 
BRANCH  28  29
HETATM   29  C   UNK N   1      30.380  22.711  -2.458  0.00  0.00     0.191 C 
HETATM   30  O   UNK N   1      29.333  23.022  -3.244  0.00  0.00    -0.647 OA
HETATM   31  O   UNK N   1      30.393  23.063  -1.291  0.00  0.00    -0.647 OA
ENDBRANCH  28  29
ENDBRANCH  25  28
ENDBRANCH  23  24
ENDBRANCH  22  23
ENDBRANCH  20  22
ENDBRANCH  18  20
BRANCH  19  32
HETATM   32  O   UNK N   1      30.869  24.108  -7.244  0.00  0.00    -0.395 OA
HETATM   33  H   UNK N   1      30.842  24.213  -8.208  0.00  0.00     0.210 HD
ENDBRANCH  19  32
BRANCH  16  34
HETATM   34  O   UNK N   1      25.558  24.348  -4.200  0.00  0.00    -0.395 OA
HETATM   35  H   UNK N   1      25.685  24.228  -3.245  0.00  0.00     0.210 HD
ENDBRANCH  16  34
BRANCH  15  36
HETATM   36  O   UNK N   1      26.732  30.701  -3.077  0.00  0.00    -0.396 OA
HETATM   37  H   UNK N   1      27.371  31.384  -2.820  0.00  0.00     0.210 HD
ENDBRANCH  15  36
TORSDOF 9
ENDMDL
MODEL 5
REMARK VINA RESULT:      -7.5      4.760      7.735
REMARK  9 active torsions:
REMARK  status: ('A' for Active; 'I' for Inactive)
REMARK    1  A    between atoms: C_15  and  O_16 
REMARK    2  A    between atoms: C_17  and  O_18 
REMARK    3  A    between atoms: C_20  and  C_21 
REMARK    4  A    between atoms: C_20  and  C_22 
REMARK    5  A    between atoms: C_27  and  C_21 
REMARK       I    between atoms: C_22  and  N_29 
REMARK    6  A    between atoms: C_24  and  C_27 
REMARK    7  A    between atoms: C_25  and  O_26 
REMARK    8  A    between atoms: N_29  and  C_30 
REMARK    9  A    between atoms: C_30  and  C_31 
ROOT
HETATM    1  C   UNK N   1      20.860  14.174   9.417  0.00  0.00     0.012 C 
HETATM    2  C   UNK N   1      19.978  13.229  10.235  0.00  0.00     0.032 C 
HETATM    3  C   UNK N   1      22.023  11.872  10.833  0.00  0.00     0.037 C 
HETATM    4  C   UNK N   1      24.172  12.155   9.542  0.00  0.00     0.037 C 
HETATM    5  C   UNK N   1      22.090  13.444   8.851  0.00  0.00    -0.036 C 
HETATM    6  C   UNK N   1      22.210  15.062   6.898  0.00  0.00     0.038 C 
HETATM    7  C   UNK N   1      26.438  14.338   6.197  0.00  0.00     0.006 C 
HETATM    8  C   UNK N   1      26.685  15.341   5.055  0.00  0.00     0.006 C 
HETATM    9  C   UNK N   1      21.612  12.329   7.905  0.00  0.00     0.016 C 
HETATM   10  C   UNK N   1      22.987  14.441   8.078  0.00  0.00     0.003 C 
HETATM   11  C   UNK N   1      24.291  13.744   7.579  0.00  0.00     0.024 C 
HETATM   12  C   UNK N   1      25.113  14.786   6.794  0.00  0.00     0.003 C 
HETATM   13  C   UNK N   1      24.343  15.338   5.583  0.00  0.00    -0.010 C 
HETATM   14  C   UNK N   1      23.969  14.210   4.597  0.00  0.00     0.018 C 
HETATM   15  C   UNK N   1      20.776  12.586  11.367  0.00  0.00     0.118 C 
HETATM   16  C   UNK N   1      25.068  13.132   8.764  0.00  0.00     0.123 C 
HETATM   17  C   UNK N   1      22.895  12.849  10.038  0.00  0.00    -0.001 C 
HETATM   18  C   UNK N   1      25.439  16.240   4.989  0.00  0.00     0.000 C 
HETATM   19  C   UNK N   1      23.063  16.038   6.085  0.00  0.00     0.127 C 
ENDROOT
BRANCH  18  20
HETATM   20  C   UNK N   1      25.223  16.912   3.611  0.00  0.00    -0.013 C 
HETATM   21  C   UNK N   1      25.872  16.179   2.455  0.00  0.00     0.010 C 
BRANCH  20  22
HETATM   22  C   UNK N   1      25.462  18.423   3.499  0.00  0.00     0.014 C 
BRANCH  22  23
HETATM   23  C   UNK N   1      24.462  19.245   4.320  0.00  0.00     0.103 C 
BRANCH  23  24
HETATM   24  C   UNK N   1      23.336  19.750   3.468  0.00  0.00     0.218 C 
HETATM   25  N   UNK N   1      22.153  19.100   3.503  0.00  0.00    -0.351 N 
HETATM   26  H   UNK N   1      22.022  18.392   4.174  0.00  0.00     0.163 HD
HETATM   27  O   UNK N   1      23.522  20.676   2.689  0.00  0.00    -0.274 OA
BRANCH  25  28
HETATM   28  C   UNK N   1      21.074  19.399   2.596  0.00  0.00     0.235 C 
BRANCH  28  29
HETATM   29  C   UNK N   1      19.982  18.407   2.765  0.00  0.00     0.191 C 
HETATM   30  O   UNK N   1      20.276  17.107   2.950  0.00  0.00    -0.647 OA
HETATM   31  O   UNK N   1      18.819  18.773   2.750  0.00  0.00    -0.647 OA
ENDBRANCH  28  29
ENDBRANCH  25  28
ENDBRANCH  23  24
ENDBRANCH  22  23
ENDBRANCH  20  22
ENDBRANCH  18  20
BRANCH  19  32
HETATM   32  O   UNK N   1      22.291  16.509   5.025  0.00  0.00    -0.395 OA
HETATM   33  H   UNK N   1      21.647  17.221   5.170  0.00  0.00     0.210 HD
ENDBRANCH  19  32
BRANCH  16  34
HETATM   34  O   UNK N   1      25.552  14.121   9.627  0.00  0.00    -0.395 OA
HETATM   35  H   UNK N   1      25.496  14.830  10.288  0.00  0.00     0.210 HD
ENDBRANCH  16  34
BRANCH  15  36
HETATM   36  O   UNK N   1      19.965  11.670  12.033  0.00  0.00    -0.396 OA
HETATM   37  H   UNK N   1      19.268  11.145  11.611  0.00  0.00     0.210 HD
ENDBRANCH  15  36
TORSDOF 9
ENDMDL
MODEL 6
REMARK VINA RESULT:      -7.4      8.802     13.391
REMARK  9 active torsions:
REMARK  status: ('A' for Active; 'I' for Inactive)
REMARK    1  A    between atoms: C_15  and  O_16 
REMARK    2  A    between atoms: C_17  and  O_18 
REMARK    3  A    between atoms: C_20  and  C_21 
REMARK    4  A    between atoms: C_20  and  C_22 
REMARK    5  A    between atoms: C_27  and  C_21 
REMARK       I    between atoms: C_22  and  N_29 
REMARK    6  A    between atoms: C_24  and  C_27 
REMARK    7  A    between atoms: C_25  and  O_26 
REMARK    8  A    between atoms: N_29  and  C_30 
REMARK    9  A    between atoms: C_30  and  C_31 
ROOT
HETATM    1  C   UNK N   1      35.979  13.788  16.953  0.00  0.00     0.012 C 
HETATM    2  C   UNK N   1      35.200  14.017  18.249  0.00  0.00     0.032 C 
HETATM    3  C   UNK N   1      35.116  11.520  18.617  0.00  0.00     0.037 C 
HETATM    4  C   UNK N   1      35.642   9.928  16.731  0.00  0.00     0.037 C 
HETATM    5  C   UNK N   1      35.616  12.437  16.312  0.00  0.00    -0.036 C 
HETATM    6  C   UNK N   1      36.187  13.327  14.004  0.00  0.00     0.038 C 
HETATM    7  C   UNK N   1      36.926   9.374  12.357  0.00  0.00     0.006 C 
HETATM    8  C   UNK N   1      37.375   9.766  10.937  0.00  0.00     0.006 C 
HETATM    9  C   UNK N   1      34.120  12.447  15.952  0.00  0.00     0.016 C 
HETATM   10  C   UNK N   1      36.463  12.215  15.036  0.00  0.00     0.003 C 
HETATM   11  C   UNK N   1      36.183  10.807  14.423  0.00  0.00     0.024 C 
HETATM   12  C   UNK N   1      37.033  10.671  13.144  0.00  0.00     0.003 C 
HETATM   13  C   UNK N   1      36.690  11.750  12.104  0.00  0.00    -0.010 C 
HETATM   14  C   UNK N   1      35.207  11.667  11.681  0.00  0.00     0.018 C 
HETATM   15  C   UNK N   1      35.446  12.881  19.239  0.00  0.00     0.118 C 
HETATM   16  C   UNK N   1      36.470   9.697  15.457  0.00  0.00     0.123 C 
HETATM   17  C   UNK N   1      35.928  11.312  17.334  0.00  0.00    -0.001 C 
HETATM   18  C   UNK N   1      37.609  11.286  10.960  0.00  0.00     0.000 C 
HETATM   19  C   UNK N   1      36.982  13.137  12.711  0.00  0.00     0.127 C 
ENDROOT
BRANCH  18  20
HETATM   20  C   UNK N   1      37.509  11.957   9.568  0.00  0.00    -0.013 C 
HETATM   21  C   UNK N   1      38.494  13.088   9.353  0.00  0.00     0.010 C 
BRANCH  20  22
HETATM   22  C   UNK N   1      36.118  12.342   9.050  0.00  0.00     0.014 C 
BRANCH  22  23
HETATM   23  C   UNK N   1      36.130  13.628   8.216  0.00  0.00     0.103 C 
BRANCH  23  24
HETATM   24  C   UNK N   1      35.175  14.646   8.763  0.00  0.00     0.218 C 
HETATM   25  N   UNK N   1      35.158  15.881   8.216  0.00  0.00    -0.351 N 
HETATM   26  H   UNK N   1      35.679  16.042   7.396  0.00  0.00     0.163 HD
HETATM   27  O   UNK N   1      34.497  14.387   9.749  0.00  0.00    -0.274 OA
BRANCH  25  28
HETATM   28  C   UNK N   1      34.409  16.972   8.782  0.00  0.00     0.235 C 
BRANCH  28  29
HETATM   29  C   UNK N   1      34.580  18.190   7.949  0.00  0.00     0.191 C 
HETATM   30  O   UNK N   1      34.248  18.165   6.645  0.00  0.00    -0.647 OA
HETATM   31  O   UNK N   1      35.010  19.215   8.449  0.00  0.00    -0.647 OA
ENDBRANCH  28  29
ENDBRANCH  25  28
ENDBRANCH  23  24
ENDBRANCH  22  23
ENDBRANCH  20  22
ENDBRANCH  18  20
BRANCH  19  32
HETATM   32  O   UNK N   1      36.634  14.162  11.833  0.00  0.00    -0.395 OA
HETATM   33  H   UNK N   1      35.779  14.612  11.923  0.00  0.00     0.210 HD
ENDBRANCH  19  32
BRANCH  16  34
HETATM   34  O   UNK N   1      37.829   9.633  15.780  0.00  0.00    -0.395 OA
HETATM   35  H   UNK N   1      38.713   9.981  15.980  0.00  0.00     0.210 HD
ENDBRANCH  16  34
BRANCH  15  36
HETATM   36  O   UNK N   1      34.655  13.080  20.368  0.00  0.00    -0.396 OA
HETATM   37  H   UNK N   1      34.924  12.859  21.273  0.00  0.00     0.210 HD
ENDBRANCH  15  36
TORSDOF 9
ENDMDL
MODEL 7
REMARK VINA RESULT:      -7.4      6.030      7.909
REMARK  9 active torsions:
REMARK  status: ('A' for Active; 'I' for Inactive)
REMARK    1  A    between atoms: C_15  and  O_16 
REMARK    2  A    between atoms: C_17  and  O_18 
REMARK    3  A    between atoms: C_20  and  C_21 
REMARK    4  A    between atoms: C_20  and  C_22 
REMARK    5  A    between atoms: C_27  and  C_21 
REMARK       I    between atoms: C_22  and  N_29 
REMARK    6  A    between atoms: C_24  and  C_27 
REMARK    7  A    between atoms: C_25  and  O_26 
REMARK    8  A    between atoms: N_29  and  C_30 
REMARK    9  A    between atoms: C_30  and  C_31 
ROOT
HETATM    1  C   UNK N   1      21.804  12.534   9.499  0.00  0.00     0.012 C 
HETATM    2  C   UNK N   1      22.331  11.898  10.786  0.00  0.00     0.032 C 
HETATM    3  C   UNK N   1      24.661  12.670  10.190  0.00  0.00     0.037 C 
HETATM    4  C   UNK N   1      25.199  13.429   7.845  0.00  0.00     0.037 C 
HETATM    5  C   UNK N   1      22.879  12.544   8.398  0.00  0.00    -0.036 C 
HETATM    6  C   UNK N   1      21.095  12.493   6.592  0.00  0.00     0.038 C 
HETATM    7  C   UNK N   1      23.697  14.242   3.582  0.00  0.00     0.006 C 
HETATM    8  C   UNK N   1      22.701  14.352   2.414  0.00  0.00     0.006 C 
HETATM    9  C   UNK N   1      23.262  11.091   8.068  0.00  0.00     0.016 C 
HETATM   10  C   UNK N   1      22.330  13.243   7.131  0.00  0.00     0.003 C 
HETATM   11  C   UNK N   1      23.435  13.354   6.035  0.00  0.00     0.024 C 
HETATM   12  C   UNK N   1      22.809  14.029   4.798  0.00  0.00     0.003 C 
HETATM   13  C   UNK N   1      21.624  13.224   4.239  0.00  0.00    -0.010 C 
HETATM   14  C   UNK N   1      22.062  11.805   3.816  0.00  0.00     0.018 C 
HETATM   15  C   UNK N   1      23.583  12.623  11.277  0.00  0.00     0.118 C 
HETATM   16  C   UNK N   1      24.665  14.114   6.577  0.00  0.00     0.123 C 
HETATM   17  C   UNK N   1      24.109  13.331   8.923  0.00  0.00    -0.001 C 
HETATM   18  C   UNK N   1      21.306  14.086   3.005  0.00  0.00     0.000 C 
HETATM   19  C   UNK N   1      20.530  13.131   5.322  0.00  0.00     0.127 C 
ENDROOT
BRANCH  18  20
HETATM   20  C   UNK N   1      20.268  13.596   1.966  0.00  0.00    -0.013 C 
HETATM   21  C   UNK N   1      20.867  12.830   0.805  0.00  0.00     0.010 C 
BRANCH  20  22
HETATM   22  C   UNK N   1      19.213  14.594   1.472  0.00  0.00     0.014 C 
BRANCH  22  23
HETATM   23  C   UNK N   1      19.720  15.475   0.325  0.00  0.00     0.103 C 
BRANCH  23  24
HETATM   24  C   UNK N   1      19.949  16.886   0.775  0.00  0.00     0.218 C 
HETATM   25  N   UNK N   1      19.601  17.231   2.034  0.00  0.00    -0.351 N 
HETATM   26  H   UNK N   1      19.323  16.522   2.659  0.00  0.00     0.163 HD
HETATM   27  O   UNK N   1      20.355  17.726  -0.017  0.00  0.00    -0.274 OA
BRANCH  25  28
HETATM   28  C   UNK N   1      19.617  18.593   2.500  0.00  0.00     0.235 C 
BRANCH  28  29
HETATM   29  C   UNK N   1      20.724  18.783   3.471  0.00  0.00     0.191 C 
HETATM   30  O   UNK N   1      20.754  19.878   4.252  0.00  0.00    -0.647 OA
HETATM   31  O   UNK N   1      21.598  17.938   3.571  0.00  0.00    -0.647 OA
ENDBRANCH  28  29
ENDBRANCH  25  28
ENDBRANCH  23  24
ENDBRANCH  22  23
ENDBRANCH  20  22
ENDBRANCH  18  20
BRANCH  19  32
HETATM   32  O   UNK N   1      19.450  12.361   4.893  0.00  0.00    -0.395 OA
HETATM   33  H   UNK N   1      19.323  12.186   3.947  0.00  0.00     0.210 HD
ENDBRANCH  19  32
BRANCH  16  34
HETATM   34  O   UNK N   1      24.363  15.451   6.853  0.00  0.00    -0.395 OA
HETATM   35  H   UNK N   1      24.173  16.381   6.648  0.00  0.00     0.210 HD
ENDBRANCH  16  34
BRANCH  15  36
HETATM   36  O   UNK N   1      24.081  11.964  12.399  0.00  0.00    -0.396 OA
HETATM   37  H   UNK N   1      24.994  11.653  12.493  0.00  0.00     0.210 HD
ENDBRANCH  15  36
TORSDOF 9
ENDMDL
MODEL 8
REMARK VINA RESULT:      -7.3      6.746     11.816
REMARK  9 active torsions:
REMARK  status: ('A' for Active; 'I' for Inactive)
REMARK    1  A    between atoms: C_15  and  O_16 
REMARK    2  A    between atoms: C_17  and  O_18 
REMARK    3  A    between atoms: C_20  and  C_21 
REMARK    4  A    between atoms: C_20  and  C_22 
REMARK    5  A    between atoms: C_27  and  C_21 
REMARK       I    between atoms: C_22  and  N_29 
REMARK    6  A    between atoms: C_24  and  C_27 
REMARK    7  A    between atoms: C_25  and  O_26 
REMARK    8  A    between atoms: N_29  and  C_30 
REMARK    9  A    between atoms: C_30  and  C_31 
ROOT
HETATM    1  C   UNK N   1      34.006  15.251   4.418  0.00  0.00     0.012 C 
HETATM    2  C   UNK N   1      33.003  15.512   3.293  0.00  0.00     0.032 C 
HETATM    3  C   UNK N   1      32.203  17.575   4.511  0.00  0.00     0.037 C 
HETATM    4  C   UNK N   1      32.779  17.932   6.942  0.00  0.00     0.037 C 
HETATM    5  C   UNK N   1      33.492  15.794   5.764  0.00  0.00    -0.036 C 
HETATM    6  C   UNK N   1      34.842  14.057   7.032  0.00  0.00     0.038 C 
HETATM    7  C   UNK N   1      34.962  16.410  10.684  0.00  0.00     0.006 C 
HETATM    8  C   UNK N   1      35.843  15.494  11.551  0.00  0.00     0.006 C 
HETATM    9  C   UNK N   1      32.192  15.058   6.129  0.00  0.00     0.016 C 
HETATM   10  C   UNK N   1      34.555  15.563   6.866  0.00  0.00     0.003 C 
HETATM   11  C   UNK N   1      34.098  16.194   8.218  0.00  0.00     0.024 C 
HETATM   12  C   UNK N   1      35.185  15.897   9.269  0.00  0.00     0.003 C 
HETATM   13  C   UNK N   1      35.403  14.388   9.466  0.00  0.00    -0.010 C 
HETATM   14  C   UNK N   1      34.107  13.693   9.937  0.00  0.00     0.018 C 
HETATM   15  C   UNK N   1      32.693  17.003   3.177  0.00  0.00     0.118 C 
HETATM   16  C   UNK N   1      33.820  17.703   8.048  0.00  0.00     0.123 C 
HETATM   17  C   UNK N   1      33.238  17.317   5.611  0.00  0.00    -0.001 C 
HETATM   18  C   UNK N   1      36.438  14.438  10.604  0.00  0.00     0.000 C 
HETATM   19  C   UNK N   1      35.869  13.774   8.130  0.00  0.00     0.127 C 
ENDROOT
BRANCH  18  20
HETATM   20  C   UNK N   1      36.871  13.132  11.313  0.00  0.00    -0.013 C 
HETATM   21  C   UNK N   1      36.668  13.145  12.814  0.00  0.00     0.010 C 
BRANCH  20  22
HETATM   22  C   UNK N   1      38.237  12.533  10.954  0.00  0.00     0.014 C 
BRANCH  22  23
HETATM   23  C   UNK N   1      39.063  13.445  10.040  0.00  0.00     0.103 C 
BRANCH  23  24
HETATM   24  C   UNK N   1      39.256  12.834   8.684  0.00  0.00     0.218 C 
HETATM   25  N   UNK N   1      39.631  13.631   7.660  0.00  0.00    -0.351 N 
HETATM   26  H   UNK N   1      39.888  14.561   7.854  0.00  0.00     0.163 HD
HETATM   27  O   UNK N   1      38.986  11.655   8.496  0.00  0.00    -0.274 OA
BRANCH  25  28
HETATM   28  C   UNK N   1      39.671  13.176   6.295  0.00  0.00     0.235 C 
BRANCH  28  29
HETATM   29  C   UNK N   1      38.446  13.615   5.579  0.00  0.00     0.191 C 
HETATM   30  O   UNK N   1      38.199  14.927   5.411  0.00  0.00    -0.647 OA
HETATM   31  O   UNK N   1      37.671  12.787   5.132  0.00  0.00    -0.647 OA
ENDBRANCH  28  29
ENDBRANCH  25  28
ENDBRANCH  23  24
ENDBRANCH  22  23
ENDBRANCH  20  22
ENDBRANCH  18  20
BRANCH  19  32
HETATM   32  O   UNK N   1      36.027  12.393   8.231  0.00  0.00    -0.395 OA
HETATM   33  H   UNK N   1      35.406  11.797   7.782  0.00  0.00     0.210 HD
ENDBRANCH  19  32
BRANCH  16  34
HETATM   34  O   UNK N   1      34.990  18.411   7.752  0.00  0.00    -0.395 OA
HETATM   35  H   UNK N   1      35.888  18.747   7.901  0.00  0.00     0.210 HD
ENDBRANCH  16  34
BRANCH  15  36
HETATM   36  O   UNK N   1      31.715  17.190   2.203  0.00  0.00    -0.396 OA
HETATM   37  H   UNK N   1      31.543  18.031   1.752  0.00  0.00     0.210 HD
ENDBRANCH  15  36
TORSDOF 9
ENDMDL
MODEL 9
REMARK VINA RESULT:      -7.2      4.549      7.789
REMARK  9 active torsions:
REMARK  status: ('A' for Active; 'I' for Inactive)
REMARK    1  A    between atoms: C_15  and  O_16 
REMARK    2  A    between atoms: C_17  and  O_18 
REMARK    3  A    between atoms: C_20  and  C_21 
REMARK    4  A    between atoms: C_20  and  C_22 
REMARK    5  A    between atoms: C_27  and  C_21 
REMARK       I    between atoms: C_22  and  N_29 
REMARK    6  A    between atoms: C_24  and  C_27 
REMARK    7  A    between atoms: C_25  and  O_26 
REMARK    8  A    between atoms: N_29  and  C_30 
REMARK    9  A    between atoms: C_30  and  C_31 
ROOT
HETATM    1  C   UNK N   1      34.568  12.010  10.873  0.00  0.00     0.012 C 
HETATM    2  C   UNK N   1      35.530  11.099  11.637  0.00  0.00     0.032 C 
HETATM    3  C   UNK N   1      36.936  13.112  12.228  0.00  0.00     0.037 C 
HETATM    4  C   UNK N   1      36.636  15.292  10.994  0.00  0.00     0.037 C 
HETATM    5  C   UNK N   1      35.294  13.243  10.307  0.00  0.00    -0.036 C 
HETATM    6  C   UNK N   1      33.608  13.426   8.417  0.00  0.00     0.038 C 
HETATM    7  C   UNK N   1      34.364  17.658   7.779  0.00  0.00     0.006 C 
HETATM    8  C   UNK N   1      33.325  17.942   6.680  0.00  0.00     0.006 C 
HETATM    9  C   UNK N   1      36.367  12.770   9.310  0.00  0.00     0.016 C 
HETATM   10  C   UNK N   1      34.282  14.168   9.589  0.00  0.00     0.003 C 
HETATM   11  C   UNK N   1      34.978  15.474   9.093  0.00  0.00     0.024 C 
HETATM   12  C   UNK N   1      33.920  16.326   8.365  0.00  0.00     0.003 C 
HETATM   13  C   UNK N   1      33.314  15.589   7.158  0.00  0.00    -0.010 C 
HETATM   14  C   UNK N   1      34.401  15.222   6.124  0.00  0.00     0.018 C 
HETATM   15  C   UNK N   1      36.225  11.864  12.761  0.00  0.00     0.118 C 
HETATM   16  C   UNK N   1      35.643  16.217  10.271  0.00  0.00     0.123 C 
HETATM   17  C   UNK N   1      35.942  14.014  11.487  0.00  0.00    -0.001 C 
HETATM   18  C   UNK N   1      32.406  16.709   6.621  0.00  0.00     0.000 C 
HETATM   19  C   UNK N   1      32.615  14.308   7.658  0.00  0.00     0.127 C 
ENDROOT
BRANCH  18  20
HETATM   20  C   UNK N   1      31.681  16.532   5.264  0.00  0.00    -0.013 C 
HETATM   21  C   UNK N   1      32.105  17.524   4.201  0.00  0.00     0.010 C 
BRANCH  20  22
HETATM   22  C   UNK N   1      30.157  16.366   5.276  0.00  0.00     0.014 C 
BRANCH  22  23
HETATM   23  C   UNK N   1      29.413  17.699   5.145  0.00  0.00     0.103 C 
BRANCH  23  24
HETATM   24  C   UNK N   1      28.733  18.078   6.427  0.00  0.00     0.218 C 
HETATM   25  N   UNK N   1      28.867  17.266   7.498  0.00  0.00    -0.351 N 
HETATM   26  H   UNK N   1      29.504  16.517   7.446  0.00  0.00     0.163 HD
HETATM   27  O   UNK N   1      27.996  19.054   6.467  0.00  0.00    -0.274 OA
BRANCH  25  28
HETATM   28  C   UNK N   1      28.114  17.449   8.711  0.00  0.00     0.235 C 
BRANCH  28  29
HETATM   29  C   UNK N   1      29.040  17.607   9.862  0.00  0.00     0.191 C 
HETATM   30  O   UNK N   1      29.692  18.769  10.046  0.00  0.00    -0.647 OA
HETATM   31  O   UNK N   1      29.199  16.687  10.646  0.00  0.00    -0.647 OA
ENDBRANCH  28  29
ENDBRANCH  25  28
ENDBRANCH  23  24
ENDBRANCH  22  23
ENDBRANCH  20  22
ENDBRANCH  18  20
BRANCH  19  32
HETATM   32  O   UNK N   1      32.095  13.565   6.600  0.00  0.00    -0.395 OA
HETATM   33  H   UNK N   1      32.667  13.305   5.860  0.00  0.00     0.210 HD
ENDBRANCH  19  32
BRANCH  16  34
HETATM   34  O   UNK N   1      34.693  16.695  11.180  0.00  0.00    -0.395 OA
HETATM   35  H   UNK N   1      34.247  16.781  12.037  0.00  0.00     0.210 HD
ENDBRANCH  16  34
BRANCH  15  36
HETATM   36  O   UNK N   1      37.153  11.027  13.376  0.00  0.00    -0.396 OA
HETATM   37  H   UNK N   1      36.979  10.109  13.634  0.00  0.00     0.210 HD
ENDBRANCH  15  36
TORSDOF 9
ENDMDL
