REMARK  21 active torsions:
REMARK  status: ('A' for Active; 'I' for Inactive)
REMARK    1  A    between atoms: C_4  and  C_1 
REMARK    2  A    between atoms: O_19  and  C_1 
REMARK    3  A    between atoms: C_5  and  C_2 
REMARK    4  A    between atoms: O_20  and  C_2 
REMARK    5  A    between atoms: C_6  and  C_3 
REMARK    6  A    between atoms: O_32  and  C_3 
REMARK    7  A    between atoms: C_7  and  O_21 
REMARK    8  A    between atoms: C_8  and  O_22 
REMARK    9  A    between atoms: C_9  and  O_23 
REMARK   10  A    between atoms: C_10  and  O_24 
REMARK   11  A    between atoms: C_11  and  O_25 
REMARK   12  A    between atoms: C_12  and  O_26 
REMARK   13  A    between atoms: C_13  and  O_27 
REMARK   14  A    between atoms: C_14  and  O_36 
REMARK   15  A    between atoms: C_15  and  O_37 
REMARK   16  A    between atoms: C_16  and  O_28 
REMARK   17  A    between atoms: C_17  and  O_37 
REMARK   18  A    between atoms: C_18  and  O_36 
REMARK   19  A    between atoms: P_38  and  O_29 
REMARK   20  A    between atoms: P_38  and  O_30 
REMARK   21  A    between atoms: P_38  and  O_32 
ROOT
HETATM    1  C   UNK N   1      -6.839   0.344   0.073  0.00  0.00     0.179 C 
HETATM    2  C   UNK N   1      -8.101   1.192   0.333  0.00  0.00     0.181 C 
HETATM    3  C   UNK N   1      -6.591   2.949  -0.720  0.00  0.00     0.205 C 
HETATM    4  C   UNK N   1      -8.068   2.564  -0.386  0.00  0.00     0.189 C 
HETATM    5  C   UNK N   1      -5.632   2.420   0.389  0.00  0.00     0.292 C 
HETATM    6  O   UNK N   1      -5.646   0.995   0.514  0.00  0.00    -0.348 OA
ENDROOT
BRANCH   4   7
HETATM    7  O   UNK N   1      -8.767   3.451   0.480  0.00  0.00    -0.348 OA
BRANCH   7   8
HETATM    8  C   UNK N   1      -8.704   4.812   0.102  0.00  0.00     0.292 C 
HETATM    9  C   UNK N   1     -10.043   5.479   0.477  0.00  0.00     0.204 C 
HETATM   10  C   UNK N   1      -9.947   6.983   0.188  0.00  0.00     0.183 C 
HETATM   11  C   UNK N   1      -8.730   7.570   0.915  0.00  0.00     0.180 C 
HETATM   12  C   UNK N   1      -7.478   6.771   0.488  0.00  0.00     0.180 C 
HETATM   13  O   UNK N   1      -7.641   5.407   0.828  0.00  0.00    -0.348 OA
BRANCH   9  14
HETATM   14  O   UNK N   1     -10.309   5.270   1.835  0.00  0.00    -0.388 OA
HETATM   15  H   UNK N   1     -10.527   5.358   2.776  0.00  0.00     0.210 HD
ENDBRANCH   9  14
BRANCH  10  16
HETATM   16  O   UNK N   1     -11.117   7.631   0.593  0.00  0.00    -0.390 OA
HETATM   17  H   UNK N   1     -11.134   8.559   0.874  0.00  0.00     0.210 HD
ENDBRANCH  10  16
BRANCH  11  18
HETATM   18  O   UNK N   1      -8.599   8.921   0.584  0.00  0.00    -0.390 OA
HETATM   19  H   UNK N   1      -7.741   9.311   0.354  0.00  0.00     0.210 HD
ENDBRANCH  11  18
BRANCH  12  20
HETATM   20  C   UNK N   1      -6.214   7.258   1.204  0.00  0.00     0.215 C 
BRANCH  20  21
HETATM   21  O   UNK N   1      -5.946   8.606   0.935  0.00  0.00    -0.294 OA
BRANCH  21  22
HETATM   22  P   UNK N   1      -4.880   8.685  -0.450  0.00  0.00     0.390 P 
HETATM   23  O   UNK N   1      -4.634   7.261  -1.024  0.00  0.00    -0.632 OA
BRANCH  22  24
HETATM   24  O   UNK N   1      -5.606   9.615  -1.721  0.00  0.00    -0.307 OA
HETATM   25  H   UNK N   1      -5.359  10.227  -2.432  0.00  0.00     0.222 HD
ENDBRANCH  22  24
BRANCH  22  26
HETATM   26  O   UNK N   1      -3.331   9.338  -0.021  0.00  0.00    -0.307 OA
HETATM   27  H   UNK N   1      -2.582   8.770   0.219  0.00  0.00     0.222 HD
ENDBRANCH  22  26
ENDBRANCH  21  22
ENDBRANCH  20  21
ENDBRANCH  12  20
ENDBRANCH   7   8
ENDBRANCH   4   7
BRANCH   2  28
HETATM   28  O   UNK N   1      -9.273   0.506   0.005  0.00  0.00    -0.390 OA
HETATM   29  H   UNK N   1     -10.092   0.973  -0.222  0.00  0.00     0.210 HD
ENDBRANCH   2  28
BRANCH   3  30
HETATM   30  O   UNK N   1      -6.271   2.352  -1.944  0.00  0.00    -0.388 OA
HETATM   31  H   UNK N   1      -6.518   1.952  -2.793  0.00  0.00     0.210 HD
ENDBRANCH   3  30
BRANCH   1  32
HETATM   32  C   UNK N   1      -6.966  -0.968   0.844  0.00  0.00     0.198 C 
BRANCH  32  33
HETATM   33  O   UNK N   1      -5.841  -1.768   0.634  0.00  0.00    -0.398 OA
HETATM   34  H   UNK N   1      -5.931  -2.722   0.488  0.00  0.00     0.209 HD
ENDBRANCH  32  33
ENDBRANCH   1  32
BRANCH   5  35
HETATM   35  O   UNK N   1      -4.280   2.882   0.366  0.00  0.00    -0.348 OA
BRANCH  35  36
HETATM   36  C   UNK N   1      -3.644   3.023  -0.902  0.00  0.00     0.189 C 
HETATM   37  C   UNK N   1      -2.417   3.939  -0.751  0.00  0.00     0.181 C 
HETATM   38  C   UNK N   1      -1.297   3.277   0.095  0.00  0.00     0.179 C 
HETATM   39  O   UNK N   1      -0.912   2.013  -0.438  0.00  0.00    -0.349 OA
HETATM   40  C   UNK N   1      -2.000   1.110  -0.593  0.00  0.00     0.288 C 
HETATM   41  C   UNK N   1      -3.111   1.692  -1.481  0.00  0.00     0.204 C 
BRANCH  37  42
HETATM   42  O   UNK N   1      -2.785   5.177  -0.218  0.00  0.00    -0.390 OA
HETATM   43  H   UNK N   1      -2.169   5.828   0.152  0.00  0.00     0.210 HD
ENDBRANCH  37  42
BRANCH  38  44
HETATM   44  C   UNK N   1      -1.597   3.165   1.596  0.00  0.00     0.198 C 
BRANCH  44  45
HETATM   45  O   UNK N   1      -1.679   4.427   2.186  0.00  0.00    -0.398 OA
HETATM   46  H   UNK N   1      -0.948   4.915   2.596  0.00  0.00     0.209 HD
ENDBRANCH  44  45
ENDBRANCH  38  44
BRANCH  40  47
HETATM   47  O   UNK N   1      -2.495   0.698   0.650  0.00  0.00    -0.369 OA
HETATM   48  H   UNK N   1      -2.914   0.852   1.511  0.00  0.00     0.212 HD
ENDBRANCH  40  47
BRANCH  41  49
HETATM   49  O   UNK N   1      -4.123   0.752  -1.668  0.00  0.00    -0.388 OA
HETATM   50  H   UNK N   1      -5.041   1.034  -1.797  0.00  0.00     0.210 HD
ENDBRANCH  41  49
ENDBRANCH  35  36
ENDBRANCH   5  35
TORSDOF 21
