MODEL 1
REMARK VINA RESULT:      -7.0      0.000      0.000
REMARK  13 active torsions:
REMARK  status: ('A' for Active; 'I' for Inactive)
REMARK    1  A    between atoms: C_10  and  C_8 
REMARK    2  A    between atoms: C_12  and  C_8 
REMARK    3  A    between atoms: C_11  and  C_9 
REMARK    4  A    between atoms: O_31  and  C_9 
REMARK    5  A    between atoms: C_16  and  C_11 
REMARK    6  A    between atoms: C_11  and  N_20 
REMARK    7  A    between atoms: C_12  and  O_24 
REMARK    8  A    between atoms: C_15  and  C_13 
REMARK    9  A    between atoms: C_18  and  C_13 
REMARK   10  A    between atoms: C_13  and  N_21 
REMARK   11  A    between atoms: C_14  and  C_17 
REMARK   12  A    between atoms: O_29  and  C_17 
REMARK   13  A    between atoms: O_31  and  C_18 
ROOT
HETATM    1  C   UNK N   1      20.564  15.887   4.894  0.00  0.00     0.215 C 
ENDROOT
BRANCH   1   2
HETATM    2  C   UNK N   1      20.190  15.788   3.390  0.00  0.00     0.173 C 
HETATM    3  N   UNK N   1      21.323  15.957   2.470  0.00  0.00    -0.392 N 
HETATM    4  C   UNK N   1      20.940  15.339   1.197  0.00  0.00     0.194 C 
HETATM    5  H   UNK N   1      22.209  16.418   2.676  0.00  0.00     0.155 HD
HETATM    6  C   UNK N   1      20.441  13.944   1.575  0.00  0.00     0.033 C 
HETATM    7  C   UNK N   1      19.705  13.222   0.459  0.00  0.00     0.029 C 
HETATM    8  C   UNK N   1      21.627  13.089   1.974  0.00  0.00     0.029 C 
HETATM    9  S   UNK N   1      19.365  14.188   3.016  0.00  0.00    -0.130 SA
BRANCH   4  10
HETATM   10  C   UNK N   1      19.922  16.181   0.432  0.00  0.00     0.164 C 
HETATM   11  O   UNK N   1      20.250  17.212  -0.131  0.00  0.00    -0.648 OA
BRANCH  10  12
HETATM   12  O   UNK N   1      18.646  15.759   0.325  0.00  0.00    -0.775 OA
HETATM   13  H   UNK N   1      17.952  16.381   0.230  0.00  0.00     0.167 HD
ENDBRANCH  10  12
ENDBRANCH   4  10
ENDBRANCH   1   2
BRANCH   1  14
HETATM   14  C   UNK N   1      21.344  17.107   5.422  0.00  0.00     0.284 C 
HETATM   15  O   UNK N   1      21.478  17.183   6.636  0.00  0.00    -0.263 OA
BRANCH  14  16
HETATM   16  O   UNK N   1      21.827  18.150   4.684  0.00  0.00    -0.317 OA
BRANCH  16  17
HETATM   17  C   UNK N   1      21.170  19.272   4.229  0.00  0.00     0.214 C 
BRANCH  17  18
HETATM   18  C   UNK N   1      21.017  19.316   2.699  0.00  0.00     0.201 C 
BRANCH  18  19
HETATM   19  C   UNK N   1      21.619  20.523   2.025  0.00  0.00     0.198 C 
HETATM   20  O   UNK N   1      21.478  20.671   0.821  0.00  0.00    -0.646 OA
HETATM   21  O   UNK N   1      22.305  21.444   2.728  0.00  0.00    -0.646 OA
ENDBRANCH  18  19
BRANCH  18  22
HETATM   22  N   UNK N   1      19.613  19.228   2.343  0.00  0.00    -0.416 N 
HETATM   23  H   UNK N   1      18.712  19.464   1.926  0.00  0.00     0.150 HD
HETATM   24  H   UNK N   1      19.362  18.366   2.828  0.00  0.00     0.150 HD
ENDBRANCH  18  22
ENDBRANCH  17  18
ENDBRANCH  16  17
ENDBRANCH  14  16
ENDBRANCH   1  14
BRANCH   1  25
HETATM   25  N   UNK N   1      21.080  14.638   5.456  0.00  0.00    -0.358 N 
HETATM   26  C   UNK N   1      20.771  14.100   6.588  0.00  0.00     0.116 C 
ATOM     27  HN  UNK N   1      21.762  14.135   4.889  1.00  0.00     0.162 HD
BRANCH  26  28
HETATM   28  C   UNK N   1      21.315  12.735   6.938  0.00  0.00     0.122 C 
BRANCH  28  29
HETATM   29  C   UNK N   1      22.080  12.579   8.230  0.00  0.00    -0.051 A 
HETATM   30  C   UNK N   1      21.380  12.690   9.440  0.00  0.00     0.007 A 
HETATM   31  C   UNK N   1      22.057  12.607  10.663  0.00  0.00     0.001 A 
HETATM   32  C   UNK N   1      23.442  12.420  10.684  0.00  0.00     0.000 A 
HETATM   33  C   UNK N   1      24.146  12.303   9.483  0.00  0.00     0.001 A 
HETATM   34  C   UNK N   1      23.465  12.378   8.262  0.00  0.00     0.007 A 
ENDBRANCH  28  29
ENDBRANCH  26  28
BRANCH  26  35
HETATM   35  O   UNK N   1      19.894  14.691   7.421  0.00  0.00    -0.349 OA
ATOM     36  HO  UNK N   1      20.156  15.472   7.894  1.00  0.00     0.219 HD
ENDBRANCH  26  35
ENDBRANCH   1  25
TORSDOF 13
ENDMDL
MODEL 2
REMARK VINA RESULT:      -7.0     14.108     16.717
REMARK  13 active torsions:
REMARK  status: ('A' for Active; 'I' for Inactive)
REMARK    1  A    between atoms: C_10  and  C_8 
REMARK    2  A    between atoms: C_12  and  C_8 
REMARK    3  A    between atoms: C_11  and  C_9 
REMARK    4  A    between atoms: O_31  and  C_9 
REMARK    5  A    between atoms: C_16  and  C_11 
REMARK    6  A    between atoms: C_11  and  N_20 
REMARK    7  A    between atoms: C_12  and  O_24 
REMARK    8  A    between atoms: C_15  and  C_13 
REMARK    9  A    between atoms: C_18  and  C_13 
REMARK   10  A    between atoms: C_13  and  N_21 
REMARK   11  A    between atoms: C_14  and  C_17 
REMARK   12  A    between atoms: O_29  and  C_17 
REMARK   13  A    between atoms: O_31  and  C_18 
ROOT
HETATM    1  C   UNK N   1      35.889  14.705  10.766  0.00  0.00     0.215 C 
ENDROOT
BRANCH   1   2
HETATM    2  C   UNK N   1      36.886  14.029   9.786  0.00  0.00     0.173 C 
HETATM    3  N   UNK N   1      38.254  13.897  10.306  0.00  0.00    -0.392 N 
HETATM    4  C   UNK N   1      38.903  12.827   9.543  0.00  0.00     0.194 C 
HETATM    5  H   UNK N   1      38.673  14.446  11.056  0.00  0.00     0.155 HD
HETATM    6  C   UNK N   1      37.926  11.653   9.606  0.00  0.00     0.033 C 
HETATM    7  C   UNK N   1      38.239  10.529   8.635  0.00  0.00     0.029 C 
HETATM    8  C   UNK N   1      37.945  11.072  11.006  0.00  0.00     0.029 C 
HETATM    9  S   UNK N   1      36.290  12.367   9.275  0.00  0.00    -0.130 SA
BRANCH   4  10
HETATM   10  C   UNK N   1      39.261  13.267   8.125  0.00  0.00     0.164 C 
HETATM   11  O   UNK N   1      40.365  13.048   7.655  0.00  0.00    -0.648 OA
BRANCH  10  12
HETATM   12  O   UNK N   1      38.330  13.862   7.353  0.00  0.00    -0.775 OA
HETATM   13  H   UNK N   1      38.105  13.493   6.522  0.00  0.00     0.167 HD
ENDBRANCH  10  12
ENDBRANCH   4  10
ENDBRANCH   1   2
BRANCH   1  14
HETATM   14  C   UNK N   1      35.181  16.017  10.374  0.00  0.00     0.284 C 
HETATM   15  O   UNK N   1      35.807  17.051  10.564  0.00  0.00    -0.263 OA
BRANCH  14  16
HETATM   16  O   UNK N   1      33.901  16.149   9.916  0.00  0.00    -0.317 OA
BRANCH  16  17
HETATM   17  C   UNK N   1      33.382  15.837   8.679  0.00  0.00     0.214 C 
BRANCH  17  18
HETATM   18  C   UNK N   1      32.859  17.060   7.906  0.00  0.00     0.201 C 
BRANCH  18  19
HETATM   19  C   UNK N   1      33.918  17.911   7.252  0.00  0.00     0.198 C 
HETATM   20  O   UNK N   1      34.566  18.692   7.933  0.00  0.00    -0.646 OA
HETATM   21  O   UNK N   1      34.167  17.822   5.932  0.00  0.00    -0.646 OA
ENDBRANCH  18  19
BRANCH  18  22
HETATM   22  N   UNK N   1      32.063  17.894   8.789  0.00  0.00    -0.416 N 
HETATM   23  H   UNK N   1      31.826  18.592   9.494  0.00  0.00     0.150 HD
HETATM   24  H   UNK N   1      31.128  17.567   8.543  0.00  0.00     0.150 HD
ENDBRANCH  18  22
ENDBRANCH  17  18
ENDBRANCH  16  17
ENDBRANCH  14  16
ENDBRANCH   1  14
BRANCH   1  25
HETATM   25  N   UNK N   1      36.360  14.746  12.151  0.00  0.00    -0.358 N 
HETATM   26  C   UNK N   1      35.810  14.199  13.184  0.00  0.00     0.116 C 
ATOM     27  HN  UNK N   1      37.222  15.264  12.320  1.00  0.00     0.162 HD
BRANCH  26  28
HETATM   28  C   UNK N   1      36.519  14.245  14.517  0.00  0.00     0.122 C 
BRANCH  28  29
HETATM   29  C   UNK N   1      36.268  13.127  15.500  0.00  0.00    -0.051 A 
HETATM   30  C   UNK N   1      36.812  11.863  15.229  0.00  0.00     0.007 A 
HETATM   31  C   UNK N   1      36.561  10.784  16.084  0.00  0.00     0.001 A 
HETATM   32  C   UNK N   1      35.755  10.959  17.213  0.00  0.00     0.000 A 
HETATM   33  C   UNK N   1      35.214  12.216  17.493  0.00  0.00     0.001 A 
HETATM   34  C   UNK N   1      35.474  13.295  16.640  0.00  0.00     0.007 A 
ENDBRANCH  28  29
ENDBRANCH  26  28
BRANCH  26  35
HETATM   35  O   UNK N   1      34.662  13.507  13.073  0.00  0.00    -0.349 OA
ATOM     36  HO  UNK N   1      33.842  13.978  12.976  1.00  0.00     0.219 HD
ENDBRANCH  26  35
ENDBRANCH   1  25
TORSDOF 13
ENDMDL
MODEL 3
REMARK VINA RESULT:      -7.0      3.414      6.845
REMARK  13 active torsions:
REMARK  status: ('A' for Active; 'I' for Inactive)
REMARK    1  A    between atoms: C_10  and  C_8 
REMARK    2  A    between atoms: C_12  and  C_8 
REMARK    3  A    between atoms: C_11  and  C_9 
REMARK    4  A    between atoms: O_31  and  C_9 
REMARK    5  A    between atoms: C_16  and  C_11 
REMARK    6  A    between atoms: C_11  and  N_20 
REMARK    7  A    between atoms: C_12  and  O_24 
REMARK    8  A    between atoms: C_15  and  C_13 
REMARK    9  A    between atoms: C_18  and  C_13 
REMARK   10  A    between atoms: C_13  and  N_21 
REMARK   11  A    between atoms: C_14  and  C_17 
REMARK   12  A    between atoms: O_29  and  C_17 
REMARK   13  A    between atoms: O_31  and  C_18 
ROOT
HETATM    1  C   UNK N   1      21.645  19.423   3.788  0.00  0.00     0.215 C 
ENDROOT
BRANCH   1   2
HETATM    2  C   UNK N   1      21.370  18.413   4.934  0.00  0.00     0.173 C 
HETATM    3  N   UNK N   1      20.397  17.364   4.600  0.00  0.00    -0.392 N 
HETATM    4  C   UNK N   1      20.632  16.248   5.521  0.00  0.00     0.194 C 
HETATM    5  H   UNK N   1      19.690  17.404   3.866  0.00  0.00     0.155 HD
HETATM    6  C   UNK N   1      22.134  15.979   5.433  0.00  0.00     0.033 C 
HETATM    7  C   UNK N   1      22.669  15.067   6.523  0.00  0.00     0.029 C 
HETATM    8  C   UNK N   1      22.439  15.330   4.097  0.00  0.00     0.029 C 
HETATM    9  S   UNK N   1      22.924  17.612   5.500  0.00  0.00    -0.130 SA
BRANCH   4  10
HETATM   10  C   UNK N   1      20.134  16.553   6.932  0.00  0.00     0.164 C 
HETATM   11  O   UNK N   1      19.255  15.884   7.450  0.00  0.00    -0.648 OA
BRANCH  10  12
HETATM   12  O   UNK N   1      20.706  17.542   7.647  0.00  0.00    -0.775 OA
HETATM   13  H   UNK N   1      20.198  18.283   7.913  0.00  0.00     0.167 HD
ENDBRANCH  10  12
ENDBRANCH   4  10
ENDBRANCH   1   2
BRANCH   1  14
HETATM   14  C   UNK N   1      20.696  19.500   2.575  0.00  0.00     0.284 C 
HETATM   15  O   UNK N   1      20.519  20.611   2.092  0.00  0.00    -0.263 OA
BRANCH  14  16
HETATM   16  O   UNK N   1      19.971  18.474   2.038  0.00  0.00    -0.317 OA
BRANCH  16  17
HETATM   17  C   UNK N   1      20.262  17.676   0.954  0.00  0.00     0.214 C 
BRANCH  17  18
HETATM   18  C   UNK N   1      19.464  16.362   0.927  0.00  0.00     0.201 C 
BRANCH  18  19
HETATM   19  C   UNK N   1      20.292  15.103   0.980  0.00  0.00     0.198 C 
HETATM   20  O   UNK N   1      19.769  14.054   1.324  0.00  0.00    -0.646 OA
HETATM   21  O   UNK N   1      21.598  15.113   0.650  0.00  0.00    -0.646 OA
ENDBRANCH  18  19
BRANCH  18  22
HETATM   22  N   UNK N   1      18.622  16.323  -0.255  0.00  0.00    -0.416 N 
HETATM   23  H   UNK N   1      17.887  16.570  -0.919  0.00  0.00     0.150 HD
HETATM   24  H   UNK N   1      19.036  15.526  -0.739  0.00  0.00     0.150 HD
ENDBRANCH  18  22
ENDBRANCH  17  18
ENDBRANCH  16  17
ENDBRANCH  14  16
ENDBRANCH   1  14
BRANCH   1  25
HETATM   25  N   UNK N   1      23.047  19.476   3.373  0.00  0.00    -0.358 N 
HETATM   26  C   UNK N   1      23.717  20.514   2.998  0.00  0.00     0.116 C 
ATOM     27  HN  UNK N   1      23.555  18.591   3.382  1.00  0.00     0.162 HD
BRANCH  26  28
HETATM   28  C   UNK N   1      25.198  20.390   2.731  0.00  0.00     0.122 C 
BRANCH  28  29
HETATM   29  C   UNK N   1      26.127  20.221   3.908  0.00  0.00    -0.051 A 
HETATM   30  C   UNK N   1      27.228  19.364   3.774  0.00  0.00     0.007 A 
HETATM   31  C   UNK N   1      28.087  19.134   4.856  0.00  0.00     0.001 A 
HETATM   32  C   UNK N   1      27.844  19.754   6.084  0.00  0.00     0.000 A 
HETATM   33  C   UNK N   1      26.752  20.614   6.225  0.00  0.00     0.001 A 
HETATM   34  C   UNK N   1      25.901  20.848   5.139  0.00  0.00     0.007 A 
ENDBRANCH  28  29
ENDBRANCH  26  28
BRANCH  26  35
HETATM   35  O   UNK N   1      23.137  21.727   2.935  0.00  0.00    -0.349 OA
ATOM     36  HO  UNK N   1      23.477  22.374   2.328  1.00  0.00     0.219 HD
ENDBRANCH  26  35
ENDBRANCH   1  25
TORSDOF 13
ENDMDL
MODEL 4
REMARK VINA RESULT:      -6.9     12.751     15.245
REMARK  13 active torsions:
REMARK  status: ('A' for Active; 'I' for Inactive)
REMARK    1  A    between atoms: C_10  and  C_8 
REMARK    2  A    between atoms: C_12  and  C_8 
REMARK    3  A    between atoms: C_11  and  C_9 
REMARK    4  A    between atoms: O_31  and  C_9 
REMARK    5  A    between atoms: C_16  and  C_11 
REMARK    6  A    between atoms: C_11  and  N_20 
REMARK    7  A    between atoms: C_12  and  O_24 
REMARK    8  A    between atoms: C_15  and  C_13 
REMARK    9  A    between atoms: C_18  and  C_13 
REMARK   10  A    between atoms: C_13  and  N_21 
REMARK   11  A    between atoms: C_14  and  C_17 
REMARK   12  A    between atoms: O_29  and  C_17 
REMARK   13  A    between atoms: O_31  and  C_18 
ROOT
HETATM    1  C   UNK N   1      34.823  14.973  11.221  0.00  0.00     0.215 C 
ENDROOT
BRANCH   1   2
HETATM    2  C   UNK N   1      34.508  13.724  10.355  0.00  0.00     0.173 C 
HETATM    3  N   UNK N   1      33.343  13.875   9.472  0.00  0.00    -0.392 N 
HETATM    4  C   UNK N   1      33.486  12.889   8.397  0.00  0.00     0.194 C 
HETATM    5  H   UNK N   1      32.578  14.541   9.586  0.00  0.00     0.155 HD
HETATM    6  C   UNK N   1      34.903  13.096   7.863  0.00  0.00     0.033 C 
HETATM    7  C   UNK N   1      35.392  11.988   6.947  0.00  0.00     0.029 C 
HETATM    8  C   UNK N   1      34.950  14.395   7.083  0.00  0.00     0.029 C 
HETATM    9  S   UNK N   1      35.958  13.242   9.333  0.00  0.00    -0.130 SA
BRANCH   4  10
HETATM   10  C   UNK N   1      33.200  11.468   8.878  0.00  0.00     0.164 C 
HETATM   11  O   UNK N   1      33.976  10.555   8.647  0.00  0.00    -0.648 OA
BRANCH  10  12
HETATM   12  O   UNK N   1      32.101  11.219   9.615  0.00  0.00    -0.775 OA
HETATM   13  H   UNK N   1      31.598  10.444   9.461  0.00  0.00     0.167 HD
ENDBRANCH  10  12
ENDBRANCH   4  10
ENDBRANCH   1   2
BRANCH   1  14
HETATM   14  C   UNK N   1      35.227  16.302  10.553  0.00  0.00     0.284 C 
HETATM   15  O   UNK N   1      36.363  16.699  10.773  0.00  0.00    -0.263 OA
BRANCH  14  16
HETATM   16  O   UNK N   1      34.422  17.121   9.813  0.00  0.00    -0.317 OA
BRANCH  16  17
HETATM   17  C   UNK N   1      34.694  17.769   8.628  0.00  0.00     0.214 C 
BRANCH  17  18
HETATM   18  C   UNK N   1      33.440  18.059   7.785  0.00  0.00     0.201 C 
BRANCH  18  19
HETATM   19  C   UNK N   1      32.173  17.399   8.267  0.00  0.00     0.198 C 
HETATM   20  O   UNK N   1      31.321  18.072   8.828  0.00  0.00    -0.646 OA
HETATM   21  O   UNK N   1      31.959  16.082   8.084  0.00  0.00    -0.646 OA
ENDBRANCH  18  19
BRANCH  18  22
HETATM   22  N   UNK N   1      33.676  17.675   6.405  0.00  0.00    -0.416 N 
HETATM   23  H   UNK N   1      33.503  17.494   5.416  0.00  0.00     0.150 HD
HETATM   24  H   UNK N   1      34.661  17.414   6.462  0.00  0.00     0.150 HD
ENDBRANCH  18  22
ENDBRANCH  17  18
ENDBRANCH  16  17
ENDBRANCH  14  16
ENDBRANCH   1  14
BRANCH   1  25
HETATM   25  N   UNK N   1      35.660  14.685  12.387  0.00  0.00    -0.358 N 
HETATM   26  C   UNK N   1      35.456  13.796  13.301  0.00  0.00     0.116 C 
ATOM     27  HN  UNK N   1      36.502  15.252  12.489  1.00  0.00     0.162 HD
BRANCH  26  28
HETATM   28  C   UNK N   1      36.506  13.561  14.360  0.00  0.00     0.122 C 
BRANCH  28  29
HETATM   29  C   UNK N   1      36.111  12.807  15.606  0.00  0.00    -0.051 A 
HETATM   30  C   UNK N   1      35.449  13.502  16.628  0.00  0.00     0.007 A 
HETATM   31  C   UNK N   1      35.111  12.857  17.824  0.00  0.00     0.001 A 
HETATM   32  C   UNK N   1      35.442  11.512  18.010  0.00  0.00     0.000 A 
HETATM   33  C   UNK N   1      36.096  10.810  16.995  0.00  0.00     0.001 A 
HETATM   34  C   UNK N   1      36.425  11.456  15.797  0.00  0.00     0.007 A 
ENDBRANCH  28  29
ENDBRANCH  26  28
BRANCH  26  35
HETATM   35  O   UNK N   1      34.366  13.008  13.269  0.00  0.00    -0.349 OA
ATOM     36  HO  UNK N   1      34.448  12.090  13.502  1.00  0.00     0.219 HD
ENDBRANCH  26  35
ENDBRANCH   1  25
TORSDOF 13
ENDMDL
MODEL 5
REMARK VINA RESULT:      -6.8     13.816     16.026
REMARK  13 active torsions:
REMARK  status: ('A' for Active; 'I' for Inactive)
REMARK    1  A    between atoms: C_10  and  C_8 
REMARK    2  A    between atoms: C_12  and  C_8 
REMARK    3  A    between atoms: C_11  and  C_9 
REMARK    4  A    between atoms: O_31  and  C_9 
REMARK    5  A    between atoms: C_16  and  C_11 
REMARK    6  A    between atoms: C_11  and  N_20 
REMARK    7  A    between atoms: C_12  and  O_24 
REMARK    8  A    between atoms: C_15  and  C_13 
REMARK    9  A    between atoms: C_18  and  C_13 
REMARK   10  A    between atoms: C_13  and  N_21 
REMARK   11  A    between atoms: C_14  and  C_17 
REMARK   12  A    between atoms: O_29  and  C_17 
REMARK   13  A    between atoms: O_31  and  C_18 
ROOT
HETATM    1  C   UNK N   1      28.083  24.832  -4.275  0.00  0.00     0.215 C 
ENDROOT
BRANCH   1   2
HETATM    2  C   UNK N   1      29.375  24.126  -3.783  0.00  0.00     0.173 C 
HETATM    3  N   UNK N   1      29.469  22.706  -4.150  0.00  0.00    -0.392 N 
HETATM    4  C   UNK N   1      30.887  22.340  -4.095  0.00  0.00     0.194 C 
HETATM    5  H   UNK N   1      28.693  22.090  -4.396  0.00  0.00     0.155 HD
HETATM    6  C   UNK N   1      31.599  23.409  -4.922  0.00  0.00     0.033 C 
HETATM    7  C   UNK N   1      33.110  23.417  -4.762  0.00  0.00     0.029 C 
HETATM    8  C   UNK N   1      31.291  23.183  -6.388  0.00  0.00     0.029 C 
HETATM    9  S   UNK N   1      30.878  24.989  -4.394  0.00  0.00    -0.130 SA
BRANCH   4  10
HETATM   10  C   UNK N   1      31.394  22.218  -2.660  0.00  0.00     0.164 C 
HETATM   11  O   UNK N   1      30.914  22.888  -1.761  0.00  0.00    -0.648 OA
BRANCH  10  12
HETATM   12  O   UNK N   1      32.354  21.320  -2.362  0.00  0.00    -0.775 OA
HETATM   13  H   UNK N   1      32.479  21.044  -1.475  0.00  0.00     0.167 HD
ENDBRANCH  10  12
ENDBRANCH   4  10
ENDBRANCH   1   2
BRANCH   1  14
HETATM   14  C   UNK N   1      26.856  24.945  -3.348  0.00  0.00     0.284 C 
HETATM   15  O   UNK N   1      26.329  23.894  -3.012  0.00  0.00    -0.263 OA
BRANCH  14  16
HETATM   16  O   UNK N   1      26.251  26.097  -2.932  0.00  0.00    -0.317 OA
BRANCH  16  17
HETATM   17  C   UNK N   1      26.675  27.401  -3.065  0.00  0.00     0.214 C 
BRANCH  17  18
HETATM   18  C   UNK N   1      25.797  28.239  -4.008  0.00  0.00     0.201 C 
BRANCH  18  19
HETATM   19  C   UNK N   1      25.947  27.928  -5.476  0.00  0.00     0.198 C 
HETATM   20  O   UNK N   1      26.886  28.402  -6.097  0.00  0.00    -0.646 OA
HETATM   21  O   UNK N   1      25.067  27.132  -6.113  0.00  0.00    -0.646 OA
ENDBRANCH  18  19
BRANCH  18  22
HETATM   22  N   UNK N   1      26.058  29.652  -3.797  0.00  0.00    -0.416 N 
HETATM   23  H   UNK N   1      26.519  30.561  -3.848  0.00  0.00     0.150 HD
HETATM   24  H   UNK N   1      25.256  29.893  -3.213  0.00  0.00     0.150 HD
ENDBRANCH  18  22
ENDBRANCH  17  18
ENDBRANCH  16  17
ENDBRANCH  14  16
ENDBRANCH   1  14
BRANCH   1  25
HETATM   25  N   UNK N   1      27.691  24.463  -5.636  0.00  0.00    -0.358 N 
HETATM   26  C   UNK N   1      27.961  25.094  -6.730  0.00  0.00     0.116 C 
ATOM     27  HN  UNK N   1      27.143  23.608  -5.732  1.00  0.00     0.162 HD
BRANCH  26  28
HETATM   28  C   UNK N   1      27.578  24.484  -8.057  0.00  0.00     0.122 C 
BRANCH  28  29
HETATM   29  C   UNK N   1      26.866  23.153  -8.054  0.00  0.00    -0.051 A 
HETATM   30  C   UNK N   1      27.628  21.987  -8.219  0.00  0.00     0.007 A 
HETATM   31  C   UNK N   1      27.006  20.734  -8.278  0.00  0.00     0.001 A 
HETATM   32  C   UNK N   1      25.615  20.639  -8.181  0.00  0.00     0.000 A 
HETATM   33  C   UNK N   1      24.849  21.795  -8.011  0.00  0.00     0.001 A 
HETATM   34  C   UNK N   1      25.475  23.046  -7.945  0.00  0.00     0.007 A 
ENDBRANCH  28  29
ENDBRANCH  26  28
BRANCH  26  35
HETATM   35  O   UNK N   1      28.665  26.242  -6.712  0.00  0.00    -0.349 OA
ATOM     36  HO  UNK N   1      29.338  26.365  -6.052  1.00  0.00     0.219 HD
ENDBRANCH  26  35
ENDBRANCH   1  25
TORSDOF 13
ENDMDL
MODEL 6
REMARK VINA RESULT:      -6.8     13.579     15.033
REMARK  13 active torsions:
REMARK  status: ('A' for Active; 'I' for Inactive)
REMARK    1  A    between atoms: C_10  and  C_8 
REMARK    2  A    between atoms: C_12  and  C_8 
REMARK    3  A    between atoms: C_11  and  C_9 
REMARK    4  A    between atoms: O_31  and  C_9 
REMARK    5  A    between atoms: C_16  and  C_11 
REMARK    6  A    between atoms: C_11  and  N_20 
REMARK    7  A    between atoms: C_12  and  O_24 
REMARK    8  A    between atoms: C_15  and  C_13 
REMARK    9  A    between atoms: C_18  and  C_13 
REMARK   10  A    between atoms: C_13  and  N_21 
REMARK   11  A    between atoms: C_14  and  C_17 
REMARK   12  A    between atoms: O_29  and  C_17 
REMARK   13  A    between atoms: O_31  and  C_18 
ROOT
HETATM    1  C   UNK N   1      27.112  24.578  -5.402  0.00  0.00     0.215 C 
ENDROOT
BRANCH   1   2
HETATM    2  C   UNK N   1      26.527  23.487  -6.339  0.00  0.00     0.173 C 
HETATM    3  N   UNK N   1      25.711  24.008  -7.444  0.00  0.00    -0.392 N 
HETATM    4  C   UNK N   1      25.682  22.974  -8.483  0.00  0.00     0.194 C 
HETATM    5  H   UNK N   1      25.249  24.917  -7.481  0.00  0.00     0.155 HD
HETATM    6  C   UNK N   1      27.148  22.601  -8.703  0.00  0.00     0.033 C 
HETATM    7  C   UNK N   1      27.353  21.334  -9.516  0.00  0.00     0.029 C 
HETATM    8  C   UNK N   1      27.840  23.734  -9.432  0.00  0.00     0.029 C 
HETATM    9  S   UNK N   1      27.859  22.432  -7.041  0.00  0.00    -0.130 SA
BRANCH   4  10
HETATM   10  C   UNK N   1      24.788  21.797  -8.100  0.00  0.00     0.164 C 
HETATM   11  O   UNK N   1      25.261  20.706  -7.831  0.00  0.00    -0.648 OA
BRANCH  10  12
HETATM   12  O   UNK N   1      23.455  21.972  -8.002  0.00  0.00    -0.775 OA
HETATM   13  H   UNK N   1      22.976  21.557  -7.312  0.00  0.00     0.167 HD
ENDBRANCH  10  12
ENDBRANCH   4  10
ENDBRANCH   1   2
BRANCH   1  14
HETATM   14  C   UNK N   1      27.473  25.970  -5.960  0.00  0.00     0.284 C 
HETATM   15  O   UNK N   1      28.189  25.989  -6.952  0.00  0.00    -0.263 OA
BRANCH  14  16
HETATM   16  O   UNK N   1      27.148  27.178  -5.413  0.00  0.00    -0.317 OA
BRANCH  16  17
HETATM   17  C   UNK N   1      25.904  27.714  -5.165  0.00  0.00     0.214 C 
BRANCH  17  18
HETATM   18  C   UNK N   1      25.723  28.203  -3.718  0.00  0.00     0.201 C 
BRANCH  18  19
HETATM   19  C   UNK N   1      26.499  29.444  -3.354  0.00  0.00     0.198 C 
HETATM   20  O   UNK N   1      26.378  30.449  -4.038  0.00  0.00    -0.646 OA
HETATM   21  O   UNK N   1      27.318  29.466  -2.286  0.00  0.00    -0.646 OA
ENDBRANCH  18  19
BRANCH  18  22
HETATM   22  N   UNK N   1      26.074  27.140  -2.793  0.00  0.00    -0.416 N 
HETATM   23  H   UNK N   1      26.200  26.634  -1.916  0.00  0.00     0.150 HD
HETATM   24  H   UNK N   1      26.426  26.444  -3.451  0.00  0.00     0.150 HD
ENDBRANCH  18  22
ENDBRANCH  17  18
ENDBRANCH  16  17
ENDBRANCH  14  16
ENDBRANCH   1  14
BRANCH   1  25
HETATM   25  N   UNK N   1      28.144  24.082  -4.492  0.00  0.00    -0.358 N 
HETATM   26  C   UNK N   1      28.035  23.865  -3.224  0.00  0.00     0.116 C 
ATOM     27  HN  UNK N   1      29.055  23.885  -4.907  1.00  0.00     0.162 HD
BRANCH  26  28
HETATM   28  C   UNK N   1      29.182  23.226  -2.476  0.00  0.00     0.122 C 
BRANCH  28  29
HETATM   29  C   UNK N   1      30.305  22.613  -3.275  0.00  0.00    -0.051 A 
HETATM   30  C   UNK N   1      30.231  21.250  -3.596  0.00  0.00     0.007 A 
HETATM   31  C   UNK N   1      31.275  20.624  -4.288  0.00  0.00     0.001 A 
HETATM   32  C   UNK N   1      32.406  21.357  -4.657  0.00  0.00     0.000 A 
HETATM   33  C   UNK N   1      32.486  22.717  -4.346  0.00  0.00     0.001 A 
HETATM   34  C   UNK N   1      31.437  23.341  -3.661  0.00  0.00     0.007 A 
ENDBRANCH  28  29
ENDBRANCH  26  28
BRANCH  26  35
HETATM   35  O   UNK N   1      26.881  24.109  -2.576  0.00  0.00    -0.349 OA
ATOM     36  HO  UNK N   1      26.428  23.392  -2.147  1.00  0.00     0.219 HD
ENDBRANCH  26  35
ENDBRANCH   1  25
TORSDOF 13
ENDMDL
MODEL 7
REMARK VINA RESULT:      -6.8     14.686     16.909
REMARK  13 active torsions:
REMARK  status: ('A' for Active; 'I' for Inactive)
REMARK    1  A    between atoms: C_10  and  C_8 
REMARK    2  A    between atoms: C_12  and  C_8 
REMARK    3  A    between atoms: C_11  and  C_9 
REMARK    4  A    between atoms: O_31  and  C_9 
REMARK    5  A    between atoms: C_16  and  C_11 
REMARK    6  A    between atoms: C_11  and  N_20 
REMARK    7  A    between atoms: C_12  and  O_24 
REMARK    8  A    between atoms: C_15  and  C_13 
REMARK    9  A    between atoms: C_18  and  C_13 
REMARK   10  A    between atoms: C_13  and  N_21 
REMARK   11  A    between atoms: C_14  and  C_17 
REMARK   12  A    between atoms: O_29  and  C_17 
REMARK   13  A    between atoms: O_31  and  C_18 
ROOT
HETATM    1  C   UNK N   1      36.209  13.248  10.662  0.00  0.00     0.215 C 
ENDROOT
BRANCH   1   2
HETATM    2  C   UNK N   1      36.175  11.717  10.406  0.00  0.00     0.173 C 
HETATM    3  N   UNK N   1      36.901  10.918  11.402  0.00  0.00    -0.392 N 
HETATM    4  C   UNK N   1      36.360   9.557  11.339  0.00  0.00     0.194 C 
HETATM    5  H   UNK N   1      37.642  11.247  12.021  0.00  0.00     0.155 HD
HETATM    6  C   UNK N   1      34.844   9.734  11.432  0.00  0.00     0.033 C 
HETATM    7  C   UNK N   1      34.049   8.488  11.083  0.00  0.00     0.029 C 
HETATM    8  C   UNK N   1      34.481  10.132  12.848  0.00  0.00     0.029 C 
HETATM    9  S   UNK N   1      34.447  11.100  10.304  0.00  0.00    -0.130 SA
BRANCH   4  10
HETATM   10  C   UNK N   1      36.827   8.809  10.092  0.00  0.00     0.164 C 
HETATM   11  O   UNK N   1      37.402   7.737  10.177  0.00  0.00    -0.648 OA
BRANCH  10  12
HETATM   12  O   UNK N   1      36.557   9.309   8.870  0.00  0.00    -0.775 OA
HETATM   13  H   UNK N   1      36.278   8.739   8.181  0.00  0.00     0.167 HD
ENDBRANCH  10  12
ENDBRANCH   4  10
ENDBRANCH   1   2
BRANCH   1  14
HETATM   14  C   UNK N   1      36.835  14.198   9.621  0.00  0.00     0.284 C 
HETATM   15  O   UNK N   1      37.961  13.915   9.234  0.00  0.00    -0.263 OA
BRANCH  14  16
HETATM   16  O   UNK N   1      36.297  15.363   9.151  0.00  0.00    -0.317 OA
BRANCH  16  17
HETATM   17  C   UNK N   1      35.012  15.619   8.727  0.00  0.00     0.214 C 
BRANCH  17  18
HETATM   18  C   UNK N   1      34.480  16.991   9.175  0.00  0.00     0.201 C 
BRANCH  18  19
HETATM   19  C   UNK N   1      34.733  18.126   8.215  0.00  0.00     0.198 C 
HETATM   20  O   UNK N   1      34.395  18.012   7.047  0.00  0.00    -0.646 OA
HETATM   21  O   UNK N   1      35.321  19.267   8.625  0.00  0.00    -0.646 OA
ENDBRANCH  18  19
BRANCH  18  22
HETATM   22  N   UNK N   1      35.039  17.335  10.470  0.00  0.00    -0.416 N 
HETATM   23  H   UNK N   1      35.093  17.547  11.467  0.00  0.00     0.150 HD
HETATM   24  H   UNK N   1      36.024  17.424  10.218  0.00  0.00     0.150 HD
ENDBRANCH  18  22
ENDBRANCH  17  18
ENDBRANCH  16  17
ENDBRANCH  14  16
ENDBRANCH   1  14
BRANCH   1  25
HETATM   25  N   UNK N   1      36.610  13.609  12.022  0.00  0.00    -0.358 N 
HETATM   26  C   UNK N   1      35.845  13.765  13.051  0.00  0.00     0.116 C 
ATOM     27  HN  UNK N   1      37.608  13.754  12.177  1.00  0.00     0.162 HD
BRANCH  26  28
HETATM   28  C   UNK N   1      36.461  14.013  14.408  0.00  0.00     0.122 C 
BRANCH  28  29
HETATM   29  C   UNK N   1      36.208  13.008  15.504  0.00  0.00    -0.051 A 
HETATM   30  C   UNK N   1      36.703  11.705  15.345  0.00  0.00     0.007 A 
HETATM   31  C   UNK N   1      36.446  10.724  16.311  0.00  0.00     0.001 A 
HETATM   32  C   UNK N   1      35.683  11.038  17.439  0.00  0.00     0.000 A 
HETATM   33  C   UNK N   1      35.191  12.334  17.608  0.00  0.00     0.001 A 
HETATM   34  C   UNK N   1      35.457  13.314  16.645  0.00  0.00     0.007 A 
ENDBRANCH  28  29
ENDBRANCH  26  28
BRANCH  26  35
HETATM   35  O   UNK N   1      34.511  13.614  12.952  0.00  0.00    -0.349 OA
ATOM     36  HO  UNK N   1      34.144  13.222  12.169  1.00  0.00     0.219 HD
ENDBRANCH  26  35
ENDBRANCH   1  25
TORSDOF 13
ENDMDL
MODEL 8
REMARK VINA RESULT:      -6.8      2.590      3.432
REMARK  13 active torsions:
REMARK  status: ('A' for Active; 'I' for Inactive)
REMARK    1  A    between atoms: C_10  and  C_8 
REMARK    2  A    between atoms: C_12  and  C_8 
REMARK    3  A    between atoms: C_11  and  C_9 
REMARK    4  A    between atoms: O_31  and  C_9 
REMARK    5  A    between atoms: C_16  and  C_11 
REMARK    6  A    between atoms: C_11  and  N_20 
REMARK    7  A    between atoms: C_12  and  O_24 
REMARK    8  A    between atoms: C_15  and  C_13 
REMARK    9  A    between atoms: C_18  and  C_13 
REMARK   10  A    between atoms: C_13  and  N_21 
REMARK   11  A    between atoms: C_14  and  C_17 
REMARK   12  A    between atoms: O_29  and  C_17 
REMARK   13  A    between atoms: O_31  and  C_18 
ROOT
HETATM    1  C   UNK N   1      21.483  16.368   6.099  0.00  0.00     0.215 C 
ENDROOT
BRANCH   1   2
HETATM    2  C   UNK N   1      22.466  15.544   5.225  0.00  0.00     0.173 C 
HETATM    3  N   UNK N   1      22.440  15.883   3.796  0.00  0.00    -0.392 N 
HETATM    4  C   UNK N   1      23.716  15.441   3.224  0.00  0.00     0.194 C 
HETATM    5  H   UNK N   1      21.678  16.340   3.294  0.00  0.00     0.155 HD
HETATM    6  C   UNK N   1      24.782  16.029   4.148  0.00  0.00     0.033 C 
HETATM    7  C   UNK N   1      26.173  15.457   3.937  0.00  0.00     0.029 C 
HETATM    8  C   UNK N   1      24.859  17.525   3.922  0.00  0.00     0.029 C 
HETATM    9  S   UNK N   1      24.192  15.707   5.835  0.00  0.00    -0.130 SA
BRANCH   4  10
HETATM   10  C   UNK N   1      23.784  13.923   3.077  0.00  0.00     0.164 C 
HETATM   11  O   UNK N   1      23.178  13.186   3.837  0.00  0.00    -0.648 OA
BRANCH  10  12
HETATM   12  O   UNK N   1      24.481  13.379   2.059  0.00  0.00    -0.775 OA
HETATM   13  H   UNK N   1      25.359  13.657   1.891  0.00  0.00     0.167 HD
ENDBRANCH  10  12
ENDBRANCH   4  10
ENDBRANCH   1   2
BRANCH   1  14
HETATM   14  C   UNK N   1      21.464  17.907   6.008  0.00  0.00     0.284 C 
HETATM   15  O   UNK N   1      21.151  18.508   7.027  0.00  0.00    -0.263 OA
BRANCH  14  16
HETATM   16  O   UNK N   1      21.677  18.662   4.889  0.00  0.00    -0.317 OA
BRANCH  16  17
HETATM   17  C   UNK N   1      20.781  19.414   4.163  0.00  0.00     0.214 C 
BRANCH  17  18
HETATM   18  C   UNK N   1      20.961  19.282   2.641  0.00  0.00     0.201 C 
BRANCH  18  19
HETATM   19  C   UNK N   1      21.532  20.494   1.951  0.00  0.00     0.198 C 
HETATM   20  O   UNK N   1      22.095  21.353   2.613  0.00  0.00    -0.646 OA
HETATM   21  O   UNK N   1      21.439  20.645   0.616  0.00  0.00    -0.646 OA
ENDBRANCH  18  19
BRANCH  18  22
HETATM   22  N   UNK N   1      19.690  18.943   2.024  0.00  0.00    -0.416 N 
HETATM   23  H   UNK N   1      18.817  18.452   1.834  0.00  0.00     0.150 HD
HETATM   24  H   UNK N   1      19.637  19.678   1.318  0.00  0.00     0.150 HD
ENDBRANCH  18  22
ENDBRANCH  17  18
ENDBRANCH  16  17
ENDBRANCH  14  16
ENDBRANCH   1  14
BRANCH   1  25
HETATM   25  N   UNK N   1      21.406  15.914   7.487  0.00  0.00    -0.358 N 
HETATM   26  C   UNK N   1      20.785  14.876   7.942  0.00  0.00     0.116 C 
ATOM     27  HN  UNK N   1      21.899  16.481   8.177  1.00  0.00     0.162 HD
BRANCH  26  28
HETATM   28  C   UNK N   1      20.930  14.499   9.397  0.00  0.00     0.122 C 
BRANCH  28  29
HETATM   29  C   UNK N   1      22.065  13.586   9.791  0.00  0.00    -0.051 A 
HETATM   30  C   UNK N   1      23.233  13.598   9.014  0.00  0.00     0.007 A 
HETATM   31  C   UNK N   1      24.291  12.730   9.309  0.00  0.00     0.001 A 
HETATM   32  C   UNK N   1      24.185  11.836  10.378  0.00  0.00     0.000 A 
HETATM   33  C   UNK N   1      23.028  11.822  11.160  0.00  0.00     0.001 A 
HETATM   34  C   UNK N   1      21.975  12.697  10.868  0.00  0.00     0.007 A 
ENDBRANCH  28  29
ENDBRANCH  26  28
BRANCH  26  35
HETATM   35  O   UNK N   1      20.089  14.070   7.119  0.00  0.00    -0.349 OA
ATOM     36  HO  UNK N   1      20.417  13.197   6.935  1.00  0.00     0.219 HD
ENDBRANCH  26  35
ENDBRANCH   1  25
TORSDOF 13
ENDMDL
MODEL 9
REMARK VINA RESULT:      -6.7      4.674      8.261
REMARK  13 active torsions:
REMARK  status: ('A' for Active; 'I' for Inactive)
REMARK    1  A    between atoms: C_10  and  C_8 
REMARK    2  A    between atoms: C_12  and  C_8 
REMARK    3  A    between atoms: C_11  and  C_9 
REMARK    4  A    between atoms: O_31  and  C_9 
REMARK    5  A    between atoms: C_16  and  C_11 
REMARK    6  A    between atoms: C_11  and  N_20 
REMARK    7  A    between atoms: C_12  and  O_24 
REMARK    8  A    between atoms: C_15  and  C_13 
REMARK    9  A    between atoms: C_18  and  C_13 
REMARK   10  A    between atoms: C_13  and  N_21 
REMARK   11  A    between atoms: C_14  and  C_17 
REMARK   12  A    between atoms: O_29  and  C_17 
REMARK   13  A    between atoms: O_31  and  C_18 
ROOT
HETATM    1  C   UNK N   1      24.884  15.073   6.506  0.00  0.00     0.215 C 
ENDROOT
BRANCH   1   2
HETATM    2  C   UNK N   1      23.481  15.737   6.478  0.00  0.00     0.173 C 
HETATM    3  N   UNK N   1      23.449  17.062   5.844  0.00  0.00    -0.392 N 
HETATM    4  C   UNK N   1      22.064  17.309   5.431  0.00  0.00     0.194 C 
HETATM    5  H   UNK N   1      24.241  17.693   5.716  0.00  0.00     0.155 HD
HETATM    6  C   UNK N   1      21.661  16.059   4.650  0.00  0.00     0.033 C 
HETATM    7  C   UNK N   1      20.171  15.948   4.379  0.00  0.00     0.029 C 
HETATM    8  C   UNK N   1      22.374  16.063   3.312  0.00  0.00     0.029 C 
HETATM    9  S   UNK N   1      22.252  14.657   5.640  0.00  0.00    -0.130 SA
BRANCH   4  10
HETATM   10  C   UNK N   1      21.157  17.624   6.618  0.00  0.00     0.164 C 
HETATM   11  O   UNK N   1      21.015  18.768   7.019  0.00  0.00    -0.648 OA
BRANCH  10  12
HETATM   12  O   UNK N   1      20.457  16.636   7.208  0.00  0.00    -0.775 OA
HETATM   13  H   UNK N   1      20.605  15.744   6.962  0.00  0.00     0.167 HD
ENDBRANCH  10  12
ENDBRANCH   4  10
ENDBRANCH   1   2
BRANCH   1  14
HETATM   14  C   UNK N   1      25.096  13.734   7.241  0.00  0.00     0.284 C 
HETATM   15  O   UNK N   1      25.482  12.794   6.560  0.00  0.00    -0.263 OA
BRANCH  14  16
HETATM   16  O   UNK N   1      24.818  13.470   8.553  0.00  0.00    -0.317 OA
BRANCH  16  17
HETATM   17  C   UNK N   1      23.757  12.780   9.095  0.00  0.00     0.214 C 
BRANCH  17  18
HETATM   18  C   UNK N   1      24.087  12.101  10.435  0.00  0.00     0.201 C 
BRANCH  18  19
HETATM   19  C   UNK N   1      22.953  12.045  11.427  0.00  0.00     0.198 C 
HETATM   20  O   UNK N   1      23.202  11.960  12.620  0.00  0.00    -0.646 OA
HETATM   21  O   UNK N   1      21.670  12.094  11.022  0.00  0.00    -0.646 OA
ENDBRANCH  18  19
BRANCH  18  22
HETATM   22  N   UNK N   1      25.223  12.761  11.054  0.00  0.00    -0.416 N 
HETATM   23  H   UNK N   1      25.980  13.428  11.204  0.00  0.00     0.150 HD
HETATM   24  H   UNK N   1      25.340  12.173  11.879  0.00  0.00     0.150 HD
ENDBRANCH  18  22
ENDBRANCH  17  18
ENDBRANCH  16  17
ENDBRANCH  14  16
ENDBRANCH   1  14
BRANCH   1  25
HETATM   25  N   UNK N   1      25.974  16.010   6.777  0.00  0.00    -0.358 N 
HETATM   26  C   UNK N   1      27.187  15.953   6.336  0.00  0.00     0.116 C 
ATOM     27  HN  UNK N   1      25.752  16.799   7.384  1.00  0.00     0.162 HD
BRANCH  26  28
HETATM   28  C   UNK N   1      28.139  17.090   6.624  0.00  0.00     0.122 C 
BRANCH  28  29
HETATM   29  C   UNK N   1      27.823  18.451   6.053  0.00  0.00    -0.051 A 
HETATM   30  C   UNK N   1      27.763  19.545   6.927  0.00  0.00     0.007 A 
HETATM   31  C   UNK N   1      27.420  20.817   6.452  0.00  0.00     0.001 A 
HETATM   32  C   UNK N   1      27.126  21.001   5.098  0.00  0.00     0.000 A 
HETATM   33  C   UNK N   1      27.188  19.917   4.220  0.00  0.00     0.001 A 
HETATM   34  C   UNK N   1      27.540  18.648   4.697  0.00  0.00     0.007 A 
ENDBRANCH  28  29
ENDBRANCH  26  28
BRANCH  26  35
HETATM   35  O   UNK N   1      27.589  14.943   5.543  0.00  0.00    -0.349 OA
ATOM     36  HO  UNK N   1      26.962  14.280   5.280  1.00  0.00     0.219 HD
ENDBRANCH  26  35
ENDBRANCH   1  25
TORSDOF 13
ENDMDL
