MODEL 1
REMARK VINA RESULT:      -7.1      0.000      0.000
REMARK  9 active torsions:
REMARK  status: ('A' for Active; 'I' for Inactive)
REMARK    1  A    between atoms: O_42  and  C_3 
REMARK    2  A    between atoms: C_19  and  C_18 
REMARK    3  A    between atoms: N_36  and  C_18 
REMARK    4  A    between atoms: O_39  and  C_19 
REMARK    5  A    between atoms: C_28  and  C_21 
REMARK    6  A    between atoms: C_29  and  C_22 
REMARK    7  A    between atoms: O_41  and  C_25 
REMARK    8  A    between atoms: C_30  and  C_26 
REMARK    9  A    between atoms: O_42  and  C_27 
REMARK       I    between atoms: N_37  and  C_31 
REMARK       I    between atoms: N_38  and  C_31 
ROOT
HETATM    1  C   UNK N   1      32.281  17.287   4.154  0.00  0.00     0.292 C 
HETATM    2  C   UNK N   1      33.290  15.202   5.046  0.00  0.00     0.292 C 
HETATM    3  C   UNK N   1      30.963  16.548   3.856  0.00  0.00     0.158 C 
HETATM    4  C   UNK N   1      32.506  14.610   3.885  0.00  0.00     0.158 C 
HETATM    5  C   UNK N   1      26.877  14.718   2.264  0.00  0.00     0.144 C 
HETATM    6  C   UNK N   1      27.838  13.673   2.883  0.00  0.00     0.156 C 
HETATM    7  C   UNK N   1      28.035  15.724   3.902  0.00  0.00     0.121 C 
HETATM    8  C   UNK N   1      30.122  14.209   3.696  0.00  0.00     0.327 C 
HETATM    9  N   UNK N   1      26.961  15.805   3.207  0.00  0.00    -0.364 N 
ATOM     10  HN  UNK N   1      26.261  16.538   3.308  1.00  0.00     0.162 HD
HETATM   11  N   UNK N   1      33.078  16.646   5.222  0.00  0.00     0.093 N 
HETATM   12  N   UNK N   1      31.142  15.111   3.884  0.00  0.00    -0.330 N 
HETATM   13  N   UNK N   1      28.780  14.545   3.574  0.00  0.00    -0.273 N 
HETATM   14  O   UNK N   1      30.434  13.033   3.538  0.00  0.00    -0.247 OA
ENDROOT
BRANCH   6  15
HETATM   15  C   UNK N   1      28.382  12.727   1.831  0.00  0.00    -0.032 A 
HETATM   16  C   UNK N   1      28.073  11.362   1.900  0.00  0.00     0.011 A 
HETATM   17  C   UNK N   1      28.567  10.478   0.938  0.00  0.00     0.019 A 
HETATM   18  C   UNK N   1      29.376  10.954  -0.098  0.00  0.00     0.011 A 
HETATM   19  C   UNK N   1      29.688  12.313  -0.174  0.00  0.00     0.019 A 
HETATM   20 Br   UNK N   1      30.055   9.745  -1.404  0.00  0.00    -0.051 Br
HETATM   21  C   UNK N   1      29.191  13.199   0.785  0.00  0.00     0.011 A 
ENDBRANCH   6  15
BRANCH   7  22
HETATM   22  C   UNK N   1      28.232  16.644   5.083  0.00  0.00     0.042 A 
HETATM   23  C   UNK N   1      28.607  16.134   6.336  0.00  0.00     0.021 A 
HETATM   24  C   UNK N   1      28.802  16.978   7.433  0.00  0.00     0.038 A 
HETATM   25  C   UNK N   1      28.608  18.350   7.315  0.00  0.00     0.070 A 
HETATM   26  C   UNK N   1      28.151  18.869   6.101  0.00  0.00     0.074 A 
HETATM   27  C   UNK N   1      27.943  18.036   4.987  0.00  0.00     0.085 A 
BRANCH  25  28
HETATM   28  O   UNK N   1      28.863  19.150   8.378  0.00  0.00    -0.356 OA
HETATM   29  C   UNK N   1      29.601  18.743   9.467  0.00  0.00     0.210 C 
ENDBRANCH  25  28
BRANCH  27  30
HETATM   30  O   UNK N   1      27.439  18.557   3.839  0.00  0.00    -0.350 OA
BRANCH  30  31
HETATM   31  C   UNK N   1      27.125  19.890   3.689  0.00  0.00     0.171 C 
HETATM   32  C   UNK N   1      25.702  20.016   3.178  0.00  0.00     0.034 C 
ENDBRANCH  30  31
ENDBRANCH  27  30
ENDBRANCH   7  22
BRANCH   5  33
HETATM   33  C   UNK N   1      25.490  14.184   2.056  0.00  0.00    -0.033 A 
HETATM   34  C   UNK N   1      24.949  13.231   2.931  0.00  0.00     0.011 A 
HETATM   35  C   UNK N   1      23.679  12.701   2.694  0.00  0.00     0.019 A 
HETATM   36  C   UNK N   1      22.950  13.109   1.572  0.00  0.00     0.011 A 
HETATM   37  C   UNK N   1      23.482  14.060   0.698  0.00  0.00     0.019 A 
HETATM   38 Br   UNK N   1      21.236  12.356   1.227  0.00  0.00    -0.051 Br
HETATM   39  C   UNK N   1      24.747  14.601   0.943  0.00  0.00     0.011 A 
ENDBRANCH   5  33
BRANCH  11  40
HETATM   40  C   UNK N   1      32.454  16.829   6.525  0.00  0.00     0.298 C 
BRANCH  40  41
HETATM   41  C   UNK N   1      33.214  17.846   7.356  0.00  0.00     0.194 C 
BRANCH  41  42
HETATM   42  O   UNK N   1      34.498  18.014   6.840  0.00  0.00    -0.399 OA
HETATM   43  H   UNK N   1      34.753  17.571   6.016  0.00  0.00     0.209 HD
ENDBRANCH  41  42
ENDBRANCH  40  41
ENDBRANCH  11  40
TORSDOF 9
ENDMDL
MODEL 2
REMARK VINA RESULT:      -6.7      3.502      7.196
REMARK  9 active torsions:
REMARK  status: ('A' for Active; 'I' for Inactive)
REMARK    1  A    between atoms: O_42  and  C_3 
REMARK    2  A    between atoms: C_19  and  C_18 
REMARK    3  A    between atoms: N_36  and  C_18 
REMARK    4  A    between atoms: O_39  and  C_19 
REMARK    5  A    between atoms: C_28  and  C_21 
REMARK    6  A    between atoms: C_29  and  C_22 
REMARK    7  A    between atoms: O_41  and  C_25 
REMARK    8  A    between atoms: C_30  and  C_26 
REMARK    9  A    between atoms: O_42  and  C_27 
REMARK       I    between atoms: N_37  and  C_31 
REMARK       I    between atoms: N_38  and  C_31 
ROOT
HETATM    1  C   UNK N   1      21.866  16.946   5.616  0.00  0.00     0.292 C 
HETATM    2  C   UNK N   1      20.458  17.386   3.620  0.00  0.00     0.292 C 
HETATM    3  C   UNK N   1      22.890  16.184   4.754  0.00  0.00     0.158 C 
HETATM    4  C   UNK N   1      20.902  15.968   3.291  0.00  0.00     0.158 C 
HETATM    5  C   UNK N   1      26.101  13.330   2.725  0.00  0.00     0.144 C 
HETATM    6  C   UNK N   1      24.983  13.805   1.764  0.00  0.00     0.156 C 
HETATM    7  C   UNK N   1      25.472  15.390   3.356  0.00  0.00     0.121 C 
HETATM    8  C   UNK N   1      23.047  15.188   2.477  0.00  0.00     0.327 C 
HETATM    9  N   UNK N   1      26.431  14.543   3.430  0.00  0.00    -0.364 N 
ATOM     10  HN  UNK N   1      27.310  14.706   3.921  1.00  0.00     0.162 HD
HETATM   11  N   UNK N   1      21.069  17.924   4.844  0.00  0.00     0.093 N 
HETATM   12  N   UNK N   1      22.338  15.833   3.462  0.00  0.00    -0.330 N 
HETATM   13  N   UNK N   1      24.404  14.896   2.539  0.00  0.00    -0.273 N 
HETATM   14  O   UNK N   1      22.415  14.765   1.514  0.00  0.00    -0.247 OA
ENDROOT
BRANCH   6  15
HETATM   15  C   UNK N   1      24.077  12.660   1.358  0.00  0.00    -0.032 A 
HETATM   16  C   UNK N   1      23.804  12.438   0.001  0.00  0.00     0.011 A 
HETATM   17  C   UNK N   1      22.971  11.387  -0.388  0.00  0.00     0.019 A 
HETATM   18  C   UNK N   1      22.403  10.552   0.578  0.00  0.00     0.011 A 
HETATM   19  C   UNK N   1      22.670  10.764   1.933  0.00  0.00     0.019 A 
HETATM   20 Br   UNK N   1      21.260   9.123   0.045  0.00  0.00    -0.051 Br
HETATM   21  C   UNK N   1      23.507  11.814   2.323  0.00  0.00     0.011 A 
ENDBRANCH   6  15
BRANCH   7  22
HETATM   22  C   UNK N   1      25.680  16.800   3.853  0.00  0.00     0.042 A 
HETATM   23  C   UNK N   1      25.328  17.901   3.058  0.00  0.00     0.021 A 
HETATM   24  C   UNK N   1      25.505  19.211   3.513  0.00  0.00     0.038 A 
HETATM   25  C   UNK N   1      26.060  19.457   4.765  0.00  0.00     0.070 A 
HETATM   26  C   UNK N   1      26.498  18.378   5.537  0.00  0.00     0.074 A 
HETATM   27  C   UNK N   1      26.332  17.053   5.094  0.00  0.00     0.085 A 
BRANCH  25  28
HETATM   28  O   UNK N   1      26.165  20.734   5.205  0.00  0.00    -0.356 OA
HETATM   29  C   UNK N   1      27.118  21.143   6.111  0.00  0.00     0.210 C 
ENDBRANCH  25  28
BRANCH  27  30
HETATM   30  O   UNK N   1      26.823  16.028   5.836  0.00  0.00    -0.350 OA
BRANCH  30  31
HETATM   31  C   UNK N   1      26.323  15.683   7.073  0.00  0.00     0.171 C 
HETATM   32  C   UNK N   1      25.520  14.401   6.950  0.00  0.00     0.034 C 
ENDBRANCH  30  31
ENDBRANCH  27  30
ENDBRANCH   7  22
BRANCH   5  33
HETATM   33  C   UNK N   1      27.258  12.698   2.006  0.00  0.00    -0.033 A 
HETATM   34  C   UNK N   1      28.439  13.416   1.776  0.00  0.00     0.011 A 
HETATM   35  C   UNK N   1      29.486  12.834   1.056  0.00  0.00     0.019 A 
HETATM   36  C   UNK N   1      29.350  11.538   0.551  0.00  0.00     0.011 A 
HETATM   37  C   UNK N   1      28.176  10.816   0.779  0.00  0.00     0.019 A 
HETATM   38 Br   UNK N   1      30.761  10.761  -0.465  0.00  0.00    -0.051 Br
HETATM   39  C   UNK N   1      27.134  11.393   1.510  0.00  0.00     0.011 A 
ENDBRANCH   5  33
BRANCH  11  40
HETATM   40  C   UNK N   1      21.880  19.067   4.448  0.00  0.00     0.298 C 
BRANCH  40  41
HETATM   41  C   UNK N   1      21.352  19.693   3.170  0.00  0.00     0.194 C 
BRANCH  41  42
HETATM   42  O   UNK N   1      20.733  20.909   3.459  0.00  0.00    -0.399 OA
HETATM   43  H   UNK N   1      19.987  21.215   2.919  0.00  0.00     0.209 HD
ENDBRANCH  41  42
ENDBRANCH  40  41
ENDBRANCH  11  40
TORSDOF 9
ENDMDL
MODEL 3
REMARK VINA RESULT:      -6.7      2.762      6.789
REMARK  9 active torsions:
REMARK  status: ('A' for Active; 'I' for Inactive)
REMARK    1  A    between atoms: O_42  and  C_3 
REMARK    2  A    between atoms: C_19  and  C_18 
REMARK    3  A    between atoms: N_36  and  C_18 
REMARK    4  A    between atoms: O_39  and  C_19 
REMARK    5  A    between atoms: C_28  and  C_21 
REMARK    6  A    between atoms: C_29  and  C_22 
REMARK    7  A    between atoms: O_41  and  C_25 
REMARK    8  A    between atoms: C_30  and  C_26 
REMARK    9  A    between atoms: O_42  and  C_27 
REMARK       I    between atoms: N_37  and  C_31 
REMARK       I    between atoms: N_38  and  C_31 
ROOT
HETATM    1  C   UNK N   1      24.529  16.442   5.648  0.00  0.00     0.292 C 
HETATM    2  C   UNK N   1      24.174  16.246   3.200  0.00  0.00     0.292 C 
HETATM    3  C   UNK N   1      26.027  16.128   5.479  0.00  0.00     0.158 C 
HETATM    4  C   UNK N   1      25.171  15.112   3.388  0.00  0.00     0.158 C 
HETATM    5  C   UNK N   1      30.567  14.734   5.637  0.00  0.00     0.144 C 
HETATM    6  C   UNK N   1      29.948  14.707   4.217  0.00  0.00     0.156 C 
HETATM    7  C   UNK N   1      29.058  16.390   5.506  0.00  0.00     0.121 C 
HETATM    8  C   UNK N   1      27.567  15.226   3.741  0.00  0.00     0.327 C 
HETATM    9  N   UNK N   1      30.091  15.993   6.152  0.00  0.00    -0.364 N 
ATOM     10  HN  UNK N   1      30.520  16.501   6.925  1.00  0.00     0.162 HD
HETATM   11  N   UNK N   1      23.912  17.007   4.429  0.00  0.00     0.093 N 
HETATM   12  N   UNK N   1      26.306  15.560   4.176  0.00  0.00    -0.330 N 
HETATM   13  N   UNK N   1      28.741  15.496   4.432  0.00  0.00    -0.273 N 
HETATM   14  O   UNK N   1      27.649  14.567   2.710  0.00  0.00    -0.247 OA
ENDROOT
BRANCH   6  15
HETATM   15  C   UNK N   1      29.790  13.288   3.708  0.00  0.00    -0.032 A 
HETATM   16  C   UNK N   1      29.213  12.314   4.534  0.00  0.00     0.011 A 
HETATM   17  C   UNK N   1      29.062  11.003   4.077  0.00  0.00     0.019 A 
HETATM   18  C   UNK N   1      29.489  10.657   2.793  0.00  0.00     0.011 A 
HETATM   19  C   UNK N   1      30.065  11.621   1.962  0.00  0.00     0.019 A 
HETATM   20 Br   UNK N   1      29.289   8.865   2.176  0.00  0.00    -0.051 Br
HETATM   21  C   UNK N   1      30.214  12.935   2.416  0.00  0.00     0.011 A 
ENDBRANCH   6  15
BRANCH   7  22
HETATM   22  C   UNK N   1      28.514  17.778   5.745  0.00  0.00     0.042 A 
HETATM   23  C   UNK N   1      28.346  18.677   4.681  0.00  0.00     0.021 A 
HETATM   24  C   UNK N   1      27.833  19.960   4.889  0.00  0.00     0.038 A 
HETATM   25  C   UNK N   1      27.494  20.388   6.169  0.00  0.00     0.070 A 
HETATM   26  C   UNK N   1      27.733  19.541   7.254  0.00  0.00     0.074 A 
HETATM   27  C   UNK N   1      28.254  18.249   7.065  0.00  0.00     0.085 A 
BRANCH  25  28
HETATM   28  O   UNK N   1      26.942  21.615   6.334  0.00  0.00    -0.356 OA
HETATM   29  C   UNK N   1      26.030  21.904   7.324  0.00  0.00     0.210 C 
ENDBRANCH  25  28
BRANCH  27  30
HETATM   30  O   UNK N   1      28.536  17.471   8.141  0.00  0.00    -0.350 OA
BRANCH  30  31
HETATM   31  C   UNK N   1      29.152  17.947   9.277  0.00  0.00     0.171 C 
HETATM   32  C   UNK N   1      30.593  18.297   8.958  0.00  0.00     0.034 C 
ENDBRANCH  30  31
ENDBRANCH  27  30
ENDBRANCH   7  22
BRANCH   5  33
HETATM   33  C   UNK N   1      32.062  14.595   5.624  0.00  0.00    -0.033 A 
HETATM   34  C   UNK N   1      32.713  13.761   6.544  0.00  0.00     0.011 A 
HETATM   35  C   UNK N   1      34.107  13.684   6.558  0.00  0.00     0.019 A 
HETATM   36  C   UNK N   1      34.858  14.453   5.663  0.00  0.00     0.011 A 
HETATM   37  C   UNK N   1      34.215  15.284   4.743  0.00  0.00     0.019 A 
HETATM   38 Br   UNK N   1      36.760  14.379   5.709  0.00  0.00    -0.051 Br
HETATM   39  C   UNK N   1      32.819  15.350   4.720  0.00  0.00     0.011 A 
ENDBRANCH   5  33
BRANCH  11  40
HETATM   40  C   UNK N   1      24.370  18.369   4.191  0.00  0.00     0.298 C 
BRANCH  40  41
HETATM   41  C   UNK N   1      23.223  19.262   3.755  0.00  0.00     0.194 C 
BRANCH  41  42
HETATM   42  O   UNK N   1      23.713  20.509   3.369  0.00  0.00    -0.399 OA
HETATM   43  H   UNK N   1      23.396  21.313   3.808  0.00  0.00     0.209 HD
ENDBRANCH  41  42
ENDBRANCH  40  41
ENDBRANCH  11  40
TORSDOF 9
ENDMDL
MODEL 4
REMARK VINA RESULT:      -6.7      1.803      2.666
REMARK  9 active torsions:
REMARK  status: ('A' for Active; 'I' for Inactive)
REMARK    1  A    between atoms: O_42  and  C_3 
REMARK    2  A    between atoms: C_19  and  C_18 
REMARK    3  A    between atoms: N_36  and  C_18 
REMARK    4  A    between atoms: O_39  and  C_19 
REMARK    5  A    between atoms: C_28  and  C_21 
REMARK    6  A    between atoms: C_29  and  C_22 
REMARK    7  A    between atoms: O_41  and  C_25 
REMARK    8  A    between atoms: C_30  and  C_26 
REMARK    9  A    between atoms: O_42  and  C_27 
REMARK       I    between atoms: N_37  and  C_31 
REMARK       I    between atoms: N_38  and  C_31 
ROOT
HETATM    1  C   UNK N   1      31.457  16.681   4.181  0.00  0.00     0.292 C 
HETATM    2  C   UNK N   1      31.839  14.906   5.873  0.00  0.00     0.292 C 
HETATM    3  C   UNK N   1      30.068  16.101   3.854  0.00  0.00     0.158 C 
HETATM    4  C   UNK N   1      31.126  14.077   4.815  0.00  0.00     0.158 C 
HETATM    5  C   UNK N   1      25.963  14.496   2.079  0.00  0.00     0.144 C 
HETATM    6  C   UNK N   1      26.568  13.595   3.183  0.00  0.00     0.156 C 
HETATM    7  C   UNK N   1      27.057  15.814   3.528  0.00  0.00     0.121 C 
HETATM    8  C   UNK N   1      28.767  14.015   4.256  0.00  0.00     0.327 C 
HETATM    9  N   UNK N   1      26.143  15.815   2.631  0.00  0.00    -0.364 N 
ATOM     10  HN  UNK N   1      25.613  16.638   2.346  1.00  0.00     0.162 HD
HETATM   11  N   UNK N   1      31.925  16.335   5.540  0.00  0.00     0.093 N 
HETATM   12  N   UNK N   1      29.921  14.754   4.367  0.00  0.00    -0.330 N 
HETATM   13  N   UNK N   1      27.565  14.493   3.752  0.00  0.00    -0.273 N 
HETATM   14  O   UNK N   1      28.834  12.824   4.544  0.00  0.00    -0.247 OA
ENDROOT
BRANCH   6  15
HETATM   15  C   UNK N   1      27.041  12.269   2.621  0.00  0.00    -0.032 A 
HETATM   16  C   UNK N   1      27.869  12.251   1.490  0.00  0.00     0.011 A 
HETATM   17  C   UNK N   1      28.312  11.037   0.961  0.00  0.00     0.019 A 
HETATM   18  C   UNK N   1      27.929   9.833   1.558  0.00  0.00     0.011 A 
HETATM   19  C   UNK N   1      27.106   9.842   2.686  0.00  0.00     0.019 A 
HETATM   20 Br   UNK N   1      28.530   8.179   0.828  0.00  0.00    -0.051 Br
HETATM   21  C   UNK N   1      26.664  11.056   3.219  0.00  0.00     0.011 A 
ENDBRANCH   6  15
BRANCH   7  22
HETATM   22  C   UNK N   1      27.273  17.044   4.377  0.00  0.00     0.042 A 
HETATM   23  C   UNK N   1      27.579  18.280   3.787  0.00  0.00     0.021 A 
HETATM   24  C   UNK N   1      27.769  19.427   4.562  0.00  0.00     0.038 A 
HETATM   25  C   UNK N   1      27.679  19.367   5.950  0.00  0.00     0.070 A 
HETATM   26  C   UNK N   1      27.461  18.131   6.563  0.00  0.00     0.074 A 
HETATM   27  C   UNK N   1      27.273  16.965   5.800  0.00  0.00     0.085 A 
BRANCH  25  28
HETATM   28  O   UNK N   1      27.808  20.506   6.672  0.00  0.00    -0.356 OA
HETATM   29  C   UNK N   1      27.169  21.682   6.346  0.00  0.00     0.210 C 
ENDBRANCH  25  28
BRANCH  27  30
HETATM   30  O   UNK N   1      27.125  15.768   6.423  0.00  0.00    -0.350 OA
BRANCH  30  31
HETATM   31  C   UNK N   1      25.972  15.395   7.080  0.00  0.00     0.171 C 
HETATM   32  C   UNK N   1      25.645  13.953   6.739  0.00  0.00     0.034 C 
ENDBRANCH  30  31
ENDBRANCH  27  30
ENDBRANCH   7  22
BRANCH   5  33
HETATM   33  C   UNK N   1      24.539  14.148   1.756  0.00  0.00    -0.033 A 
HETATM   34  C   UNK N   1      24.221  13.431   0.594  0.00  0.00     0.011 A 
HETATM   35  C   UNK N   1      22.887  13.162   0.278  0.00  0.00     0.019 A 
HETATM   36  C   UNK N   1      21.865  13.623   1.113  0.00  0.00     0.011 A 
HETATM   37  C   UNK N   1      22.175  14.337   2.273  0.00  0.00     0.019 A 
HETATM   38 Br   UNK N   1      20.045  13.292   0.659  0.00  0.00    -0.051 Br
HETATM   39  C   UNK N   1      23.510  14.593   2.597  0.00  0.00     0.011 A 
ENDBRANCH   5  33
BRANCH  11  40
HETATM   40  C   UNK N   1      31.170  17.055   6.556  0.00  0.00     0.298 C 
BRANCH  40  41
HETATM   41  C   UNK N   1      31.266  16.359   7.902  0.00  0.00     0.194 C 
BRANCH  41  42
HETATM   42  O   UNK N   1      31.738  17.251   8.864  0.00  0.00    -0.399 OA
HETATM   43  H   UNK N   1      31.276  18.091   9.017  0.00  0.00     0.209 HD
ENDBRANCH  41  42
ENDBRANCH  40  41
ENDBRANCH  11  40
TORSDOF 9
ENDMDL
MODEL 5
REMARK VINA RESULT:      -6.6      9.092     12.778
REMARK  9 active torsions:
REMARK  status: ('A' for Active; 'I' for Inactive)
REMARK    1  A    between atoms: O_42  and  C_3 
REMARK    2  A    between atoms: C_19  and  C_18 
REMARK    3  A    between atoms: N_36  and  C_18 
REMARK    4  A    between atoms: O_39  and  C_19 
REMARK    5  A    between atoms: C_28  and  C_21 
REMARK    6  A    between atoms: C_29  and  C_22 
REMARK    7  A    between atoms: O_41  and  C_25 
REMARK    8  A    between atoms: C_30  and  C_26 
REMARK    9  A    between atoms: O_42  and  C_27 
REMARK       I    between atoms: N_37  and  C_31 
REMARK       I    between atoms: N_38  and  C_31 
ROOT
HETATM    1  C   UNK N   1      37.027  14.885  10.205  0.00  0.00     0.292 C 
HETATM    2  C   UNK N   1      35.372  16.021  11.664  0.00  0.00     0.292 C 
HETATM    3  C   UNK N   1      36.480  13.506  10.621  0.00  0.00     0.158 C 
HETATM    4  C   UNK N   1      35.709  14.840  12.561  0.00  0.00     0.158 C 
HETATM    5  C   UNK N   1      35.570   9.021  11.897  0.00  0.00     0.144 C 
HETATM    6  C   UNK N   1      34.725  10.076  12.654  0.00  0.00     0.156 C 
HETATM    7  C   UNK N   1      35.208  10.746  10.508  0.00  0.00     0.121 C 
HETATM    8  C   UNK N   1      35.006  12.527  12.373  0.00  0.00     0.327 C 
HETATM    9  N   UNK N   1      35.512   9.501  10.540  0.00  0.00    -0.364 N 
ATOM     10  HN  UNK N   1      35.687   8.928   9.715  1.00  0.00     0.162 HD
HETATM   11  N   UNK N   1      36.035  15.972  10.354  0.00  0.00     0.093 N 
HETATM   12  N   UNK N   1      35.656  13.599  11.808  0.00  0.00    -0.330 N 
HETATM   13  N   UNK N   1      34.953  11.253  11.824  0.00  0.00    -0.273 N 
HETATM   14  O   UNK N   1      34.512  12.692  13.484  0.00  0.00    -0.247 OA
ENDROOT
BRANCH   6  15
HETATM   15  C   UNK N   1      35.111  10.151  14.118  0.00  0.00    -0.032 A 
HETATM   16  C   UNK N   1      36.464  10.145  14.479  0.00  0.00     0.011 A 
HETATM   17  C   UNK N   1      36.835  10.213  15.825  0.00  0.00     0.019 A 
HETATM   18  C   UNK N   1      35.853  10.285  16.816  0.00  0.00     0.011 A 
HETATM   19  C   UNK N   1      34.501  10.292  16.465  0.00  0.00     0.019 A 
HETATM   20 Br   UNK N   1      36.361  10.370  18.651  0.00  0.00    -0.051 Br
HETATM   21  C   UNK N   1      34.129  10.228  15.119  0.00  0.00     0.011 A 
ENDBRANCH   6  15
BRANCH   7  22
HETATM   22  C   UNK N   1      34.897  11.406   9.187  0.00  0.00     0.042 A 
HETATM   23  C   UNK N   1      33.677  12.069   8.983  0.00  0.00     0.021 A 
HETATM   24  C   UNK N   1      33.384  12.693   7.768  0.00  0.00     0.038 A 
HETATM   25  C   UNK N   1      34.292  12.654   6.714  0.00  0.00     0.070 A 
HETATM   26  C   UNK N   1      35.476  11.926   6.865  0.00  0.00     0.074 A 
HETATM   27  C   UNK N   1      35.785  11.287   8.079  0.00  0.00     0.085 A 
BRANCH  25  28
HETATM   28  O   UNK N   1      34.008  13.319   5.568  0.00  0.00    -0.356 OA
HETATM   29  C   UNK N   1      32.937  14.175   5.440  0.00  0.00     0.210 C 
ENDBRANCH  25  28
BRANCH  27  30
HETATM   30  O   UNK N   1      36.912  10.536   8.176  0.00  0.00    -0.350 OA
BRANCH  30  31
HETATM   31  C   UNK N   1      38.162  11.001   7.834  0.00  0.00     0.171 C 
HETATM   32  C   UNK N   1      38.981  11.215   9.095  0.00  0.00     0.034 C 
ENDBRANCH  30  31
ENDBRANCH  27  30
ENDBRANCH   7  22
BRANCH   5  33
HETATM   33  C   UNK N   1      35.058   7.622  12.082  0.00  0.00    -0.033 A 
HETATM   34  C   UNK N   1      35.613   6.777  13.054  0.00  0.00     0.011 A 
HETATM   35  C   UNK N   1      35.166   5.460  13.177  0.00  0.00     0.019 A 
HETATM   36  C   UNK N   1      34.172   4.976  12.320  0.00  0.00     0.011 A 
HETATM   37  C   UNK N   1      33.614   5.814  11.352  0.00  0.00     0.019 A 
HETATM   38 Br   UNK N   1      33.592   3.168  12.462  0.00  0.00    -0.051 Br
HETATM   39  C   UNK N   1      34.052   7.136  11.237  0.00  0.00     0.011 A 
ENDBRANCH   5  33
BRANCH  11  40
HETATM   40  C   UNK N   1      34.986  15.867   9.349  0.00  0.00     0.298 C 
BRANCH  40  41
HETATM   41  C   UNK N   1      34.304  17.206   9.131  0.00  0.00     0.194 C 
BRANCH  41  42
HETATM   42  O   UNK N   1      35.251  18.229   9.155  0.00  0.00    -0.399 OA
HETATM   43  H   UNK N   1      35.690  18.504   8.335  0.00  0.00     0.209 HD
ENDBRANCH  41  42
ENDBRANCH  40  41
ENDBRANCH  11  40
TORSDOF 9
ENDMDL
MODEL 6
REMARK VINA RESULT:      -6.5      9.945     13.312
REMARK  9 active torsions:
REMARK  status: ('A' for Active; 'I' for Inactive)
REMARK    1  A    between atoms: O_42  and  C_3 
REMARK    2  A    between atoms: C_19  and  C_18 
REMARK    3  A    between atoms: N_36  and  C_18 
REMARK    4  A    between atoms: O_39  and  C_19 
REMARK    5  A    between atoms: C_28  and  C_21 
REMARK    6  A    between atoms: C_29  and  C_22 
REMARK    7  A    between atoms: O_41  and  C_25 
REMARK    8  A    between atoms: C_30  and  C_26 
REMARK    9  A    between atoms: O_42  and  C_27 
REMARK       I    between atoms: N_37  and  C_31 
REMARK       I    between atoms: N_38  and  C_31 
ROOT
HETATM    1  C   UNK N   1      39.191   9.428  14.804  0.00  0.00     0.292 C 
HETATM    2  C   UNK N   1      38.621   7.455  13.410  0.00  0.00     0.292 C 
HETATM    3  C   UNK N   1      38.331  10.338  13.906  0.00  0.00     0.158 C 
HETATM    4  C   UNK N   1      38.758   8.494  12.307  0.00  0.00     0.158 C 
HETATM    5  C   UNK N   1      36.269  13.690  11.244  0.00  0.00     0.144 C 
HETATM    6  C   UNK N   1      36.158  12.260  10.657  0.00  0.00     0.156 C 
HETATM    7  C   UNK N   1      36.158  12.242  12.956  0.00  0.00     0.121 C 
HETATM    8  C   UNK N   1      37.226  10.264  11.675  0.00  0.00     0.327 C 
HETATM    9  N   UNK N   1      35.972  13.470  12.637  0.00  0.00    -0.364 N 
ATOM     10  HN  UNK N   1      35.655  14.193  13.282  1.00  0.00     0.162 HD
HETATM   11  N   UNK N   1      38.773   8.010  14.762  0.00  0.00     0.093 N 
HETATM   12  N   UNK N   1      38.016   9.696  12.647  0.00  0.00    -0.330 N 
HETATM   13  N   UNK N   1      36.535  11.460  11.816  0.00  0.00    -0.273 N 
HETATM   14  O   UNK N   1      37.202   9.715  10.579  0.00  0.00    -0.247 OA
ENDROOT
BRANCH   6  15
HETATM   15  C   UNK N   1      36.980  12.114   9.392  0.00  0.00    -0.032 A 
HETATM   16  C   UNK N   1      38.309  12.557   9.374  0.00  0.00     0.011 A 
HETATM   17  C   UNK N   1      39.079  12.430   8.215  0.00  0.00     0.019 A 
HETATM   18  C   UNK N   1      38.523  11.860   7.066  0.00  0.00     0.011 A 
HETATM   19  C   UNK N   1      37.199  11.415   7.076  0.00  0.00     0.019 A 
HETATM   20 Br   UNK N   1      39.573  11.695   5.485  0.00  0.00    -0.051 Br
HETATM   21  C   UNK N   1      36.429  11.539   8.235  0.00  0.00     0.011 A 
ENDBRANCH   6  15
BRANCH   7  22
HETATM   22  C   UNK N   1      35.719  11.748  14.312  0.00  0.00     0.042 A 
HETATM   23  C   UNK N   1      34.928  10.595  14.435  0.00  0.00     0.021 A 
HETATM   24  C   UNK N   1      34.526  10.121  15.687  0.00  0.00     0.038 A 
HETATM   25  C   UNK N   1      34.883  10.798  16.849  0.00  0.00     0.070 A 
HETATM   26  C   UNK N   1      35.597  11.995  16.745  0.00  0.00     0.074 A 
HETATM   27  C   UNK N   1      36.006  12.490  15.494  0.00  0.00     0.085 A 
BRANCH  25  28
HETATM   28  O   UNK N   1      34.530  10.284  18.052  0.00  0.00    -0.356 OA
HETATM   29  C   UNK N   1      35.368  10.281  19.145  0.00  0.00     0.210 C 
ENDBRANCH  25  28
BRANCH  27  30
HETATM   30  O   UNK N   1      36.643  13.687  15.418  0.00  0.00    -0.350 OA
BRANCH  30  31
HETATM   31  C   UNK N   1      36.738  14.561  16.479  0.00  0.00     0.171 C 
HETATM   32  C   UNK N   1      37.479  15.809  16.036  0.00  0.00     0.034 C 
ENDBRANCH  30  31
ENDBRANCH  27  30
ENDBRANCH   7  22
BRANCH   5  33
HETATM   33  C   UNK N   1      35.359  14.672  10.564  0.00  0.00    -0.033 A 
HETATM   34  C   UNK N   1      34.153  14.252   9.987  0.00  0.00     0.011 A 
HETATM   35  C   UNK N   1      33.343  15.166   9.308  0.00  0.00     0.019 A 
HETATM   36  C   UNK N   1      33.744  16.500   9.190  0.00  0.00     0.011 A 
HETATM   37  C   UNK N   1      34.944  16.925   9.765  0.00  0.00     0.019 A 
HETATM   38 Br   UNK N   1      32.660  17.736   8.230  0.00  0.00    -0.051 Br
HETATM   39  C   UNK N   1      35.747  16.014  10.456  0.00  0.00     0.011 A 
ENDBRANCH   5  33
BRANCH  11  40
HETATM   40  C   UNK N   1      37.503   7.815  15.447  0.00  0.00     0.298 C 
BRANCH  40  41
HETATM   41  C   UNK N   1      37.601   8.226  16.905  0.00  0.00     0.194 C 
BRANCH  41  42
HETATM   42  O   UNK N   1      37.257   7.153  17.725  0.00  0.00    -0.399 OA
HETATM   43  H   UNK N   1      37.813   6.358  17.744  0.00  0.00     0.209 HD
ENDBRANCH  41  42
ENDBRANCH  40  41
ENDBRANCH  11  40
TORSDOF 9
ENDMDL
MODEL 7
REMARK VINA RESULT:      -6.4      3.522      7.705
REMARK  9 active torsions:
REMARK  status: ('A' for Active; 'I' for Inactive)
REMARK    1  A    between atoms: O_42  and  C_3 
REMARK    2  A    between atoms: C_19  and  C_18 
REMARK    3  A    between atoms: N_36  and  C_18 
REMARK    4  A    between atoms: O_39  and  C_19 
REMARK    5  A    between atoms: C_28  and  C_21 
REMARK    6  A    between atoms: C_29  and  C_22 
REMARK    7  A    between atoms: O_41  and  C_25 
REMARK    8  A    between atoms: C_30  and  C_26 
REMARK    9  A    between atoms: O_42  and  C_27 
REMARK       I    between atoms: N_37  and  C_31 
REMARK       I    between atoms: N_38  and  C_31 
ROOT
HETATM    1  C   UNK N   1      26.580  19.529   3.481  0.00  0.00     0.292 C 
HETATM    2  C   UNK N   1      26.255  20.059   5.884  0.00  0.00     0.292 C 
HETATM    3  C   UNK N   1      27.437  18.302   3.845  0.00  0.00     0.158 C 
HETATM    4  C   UNK N   1      27.707  19.605   5.934  0.00  0.00     0.158 C 
HETATM    5  C   UNK N   1      30.533  14.731   4.331  0.00  0.00     0.144 C 
HETATM    6  C   UNK N   1      30.102  15.379   5.671  0.00  0.00     0.156 C 
HETATM    7  C   UNK N   1      28.414  15.434   4.112  0.00  0.00     0.121 C 
HETATM    8  C   UNK N   1      28.612  17.358   5.828  0.00  0.00     0.327 C 
HETATM    9  N   UNK N   1      29.280  14.622   3.629  0.00  0.00    -0.364 N 
ATOM     10  HN  UNK N   1      29.106  13.984   2.853  1.00  0.00     0.162 HD
HETATM   11  N   UNK N   1      25.643  19.922   4.556  0.00  0.00     0.093 N 
HETATM   12  N   UNK N   1      27.871  18.348   5.226  0.00  0.00    -0.330 N 
HETATM   13  N   UNK N   1      28.938  16.143   5.240  0.00  0.00    -0.273 N 
HETATM   14  O   UNK N   1      29.089  17.607   6.931  0.00  0.00    -0.247 OA
ENDROOT
BRANCH   6  15
HETATM   15  C   UNK N   1      31.248  16.130   6.319  0.00  0.00    -0.032 A 
HETATM   16  C   UNK N   1      31.467  16.005   7.698  0.00  0.00     0.011 A 
HETATM   17  C   UNK N   1      32.519  16.692   8.309  0.00  0.00     0.019 A 
HETATM   18  C   UNK N   1      33.357  17.509   7.545  0.00  0.00     0.011 A 
HETATM   19  C   UNK N   1      33.147  17.637   6.170  0.00  0.00     0.019 A 
HETATM   20 Br   UNK N   1      34.786  18.449   8.383  0.00  0.00    -0.051 Br
HETATM   21  C   UNK N   1      32.097  16.948   5.557  0.00  0.00     0.011 A 
ENDBRANCH   6  15
BRANCH   7  22
HETATM   22  C   UNK N   1      26.976  15.347   3.659  0.00  0.00     0.042 A 
HETATM   23  C   UNK N   1      26.629  15.575   2.318  0.00  0.00     0.021 A 
HETATM   24  C   UNK N   1      25.303  15.486   1.887  0.00  0.00     0.038 A 
HETATM   25  C   UNK N   1      24.284  15.190   2.786  0.00  0.00     0.070 A 
HETATM   26  C   UNK N   1      24.594  15.044   4.141  0.00  0.00     0.074 A 
HETATM   27  C   UNK N   1      25.922  15.136   4.595  0.00  0.00     0.085 A 
BRANCH  25  28
HETATM   28  O   UNK N   1      23.016  15.050   2.330  0.00  0.00    -0.356 OA
HETATM   29  C   UNK N   1      21.939  15.705   2.885  0.00  0.00     0.210 C 
ENDBRANCH  25  28
BRANCH  27  30
HETATM   30  O   UNK N   1      26.187  15.053   5.924  0.00  0.00    -0.350 OA
BRANCH  30  31
HETATM   31  C   UNK N   1      25.208  15.068   6.892  0.00  0.00     0.171 C 
HETATM   32  C   UNK N   1      25.229  13.753   7.649  0.00  0.00     0.034 C 
ENDBRANCH  30  31
ENDBRANCH  27  30
ENDBRANCH   7  22
BRANCH   5  33
HETATM   33  C   UNK N   1      31.254  13.427   4.520  0.00  0.00    -0.033 A 
HETATM   34  C   UNK N   1      32.652  13.388   4.618  0.00  0.00     0.011 A 
HETATM   35  C   UNK N   1      33.313  12.163   4.737  0.00  0.00     0.019 A 
HETATM   36  C   UNK N   1      32.581  10.972   4.741  0.00  0.00     0.011 A 
HETATM   37  C   UNK N   1      31.188  11.005   4.645  0.00  0.00     0.019 A 
HETATM   38 Br   UNK N   1      33.486   9.301   4.860  0.00  0.00    -0.051 Br
HETATM   39  C   UNK N   1      30.526  12.231   4.541  0.00  0.00     0.011 A 
ENDBRANCH   5  33
BRANCH  11  40
HETATM   40  C   UNK N   1      24.558  18.959   4.684  0.00  0.00     0.298 C 
BRANCH  40  41
HETATM   41  C   UNK N   1      23.510  19.171   3.607  0.00  0.00     0.194 C 
BRANCH  41  42
HETATM   42  O   UNK N   1      23.357  20.534   3.357  0.00  0.00    -0.399 OA
HETATM   43  H   UNK N   1      23.745  20.928   2.560  0.00  0.00     0.209 HD
ENDBRANCH  41  42
ENDBRANCH  40  41
ENDBRANCH  11  40
TORSDOF 9
ENDMDL
MODEL 8
REMARK VINA RESULT:      -6.3      4.627      8.347
REMARK  9 active torsions:
REMARK  status: ('A' for Active; 'I' for Inactive)
REMARK    1  A    between atoms: O_42  and  C_3 
REMARK    2  A    between atoms: C_19  and  C_18 
REMARK    3  A    between atoms: N_36  and  C_18 
REMARK    4  A    between atoms: O_39  and  C_19 
REMARK    5  A    between atoms: C_28  and  C_21 
REMARK    6  A    between atoms: C_29  and  C_22 
REMARK    7  A    between atoms: O_41  and  C_25 
REMARK    8  A    between atoms: C_30  and  C_26 
REMARK    9  A    between atoms: O_42  and  C_27 
REMARK       I    between atoms: N_37  and  C_31 
REMARK       I    between atoms: N_38  and  C_31 
ROOT
HETATM    1  C   UNK N   1      34.444  14.563  10.883  0.00  0.00     0.292 C 
HETATM    2  C   UNK N   1      35.306  16.812  10.284  0.00  0.00     0.292 C 
HETATM    3  C   UNK N   1      33.971  14.335   9.434  0.00  0.00     0.158 C 
HETATM    4  C   UNK N   1      34.039  16.811   9.443  0.00  0.00     0.158 C 
HETATM    5  C   UNK N   1      31.870  13.275   5.307  0.00  0.00     0.144 C 
HETATM    6  C   UNK N   1      32.519  14.681   5.342  0.00  0.00     0.156 C 
HETATM    7  C   UNK N   1      33.673  13.174   6.639  0.00  0.00     0.121 C 
HETATM    8  C   UNK N   1      33.588  15.657   7.359  0.00  0.00     0.327 C 
HETATM    9  N   UNK N   1      32.880  12.458   5.931  0.00  0.00    -0.364 N 
ATOM     10  HN  UNK N   1      32.954  11.447   5.824  1.00  0.00     0.162 HD
HETATM   11  N   UNK N   1      35.546  15.543  10.986  0.00  0.00     0.093 N 
HETATM   12  N   UNK N   1      33.931  15.575   8.688  0.00  0.00    -0.330 N 
HETATM   13  N   UNK N   1      33.352  14.566   6.532  0.00  0.00    -0.273 N 
HETATM   14  O   UNK N   1      33.392  16.777   6.898  0.00  0.00    -0.247 OA
ENDROOT
BRANCH   6  15
HETATM   15  C   UNK N   1      31.472  15.777   5.306  0.00  0.00    -0.032 A 
HETATM   16  C   UNK N   1      30.343  15.684   6.131  0.00  0.00     0.011 A 
HETATM   17  C   UNK N   1      29.370  16.687   6.109  0.00  0.00     0.019 A 
HETATM   18  C   UNK N   1      29.520  17.786   5.260  0.00  0.00     0.011 A 
HETATM   19  C   UNK N   1      30.643  17.887   4.435  0.00  0.00     0.019 A 
HETATM   20 Br   UNK N   1      28.187  19.148   5.227  0.00  0.00    -0.051 Br
HETATM   21  C   UNK N   1      31.619  16.887   4.459  0.00  0.00     0.011 A 
ENDBRANCH   6  15
BRANCH   7  22
HETATM   22  C   UNK N   1      34.921  12.555   7.220  0.00  0.00     0.042 A 
HETATM   23  C   UNK N   1      36.189  13.072   6.916  0.00  0.00     0.021 A 
HETATM   24  C   UNK N   1      37.350  12.514   7.458  0.00  0.00     0.038 A 
HETATM   25  C   UNK N   1      37.278  11.409   8.301  0.00  0.00     0.070 A 
HETATM   26  C   UNK N   1      36.033  10.824   8.549  0.00  0.00     0.074 A 
HETATM   27  C   UNK N   1      34.855  11.369   8.008  0.00  0.00     0.085 A 
BRANCH  25  28
HETATM   28  O   UNK N   1      38.414  10.926   8.860  0.00  0.00    -0.356 OA
HETATM   29  C   UNK N   1      39.631  10.928   8.214  0.00  0.00     0.210 C 
ENDBRANCH  25  28
BRANCH  27  30
HETATM   30  O   UNK N   1      33.667  10.744   8.213  0.00  0.00    -0.350 OA
BRANCH  30  31
HETATM   31  C   UNK N   1      33.067  10.651   9.450  0.00  0.00     0.171 C 
HETATM   32  C   UNK N   1      32.313   9.337   9.544  0.00  0.00     0.034 C 
ENDBRANCH  30  31
ENDBRANCH  27  30
ENDBRANCH   7  22
BRANCH   5  33
HETATM   33  C   UNK N   1      31.492  12.841   3.920  0.00  0.00    -0.033 A 
HETATM   34  C   UNK N   1      32.470  12.668   2.931  0.00  0.00     0.011 A 
HETATM   35  C   UNK N   1      32.099  12.319   1.630  0.00  0.00     0.019 A 
HETATM   36  C   UNK N   1      30.748  12.157   1.309  0.00  0.00     0.011 A 
HETATM   37  C   UNK N   1      29.769  12.326   2.291  0.00  0.00     0.019 A 
HETATM   38 Br   UNK N   1      30.241  11.721  -0.474  0.00  0.00    -0.051 Br
HETATM   39  C   UNK N   1      30.141  12.661   3.596  0.00  0.00     0.011 A 
ENDBRANCH   5  33
BRANCH  11  40
HETATM   40  C   UNK N   1      36.789  14.995  10.460  0.00  0.00     0.298 C 
BRANCH  40  41
HETATM   41  C   UNK N   1      37.166  13.712  11.178  0.00  0.00     0.194 C 
BRANCH  41  42
HETATM   42  O   UNK N   1      38.505  13.410  10.937  0.00  0.00    -0.399 OA
HETATM   43  H   UNK N   1      39.110  14.100  10.623  0.00  0.00     0.209 HD
ENDBRANCH  41  42
ENDBRANCH  40  41
ENDBRANCH  11  40
TORSDOF 9
ENDMDL
MODEL 9
REMARK VINA RESULT:      -6.3      3.406      5.338
REMARK  9 active torsions:
REMARK  status: ('A' for Active; 'I' for Inactive)
REMARK    1  A    between atoms: O_42  and  C_3 
REMARK    2  A    between atoms: C_19  and  C_18 
REMARK    3  A    between atoms: N_36  and  C_18 
REMARK    4  A    between atoms: O_39  and  C_19 
REMARK    5  A    between atoms: C_28  and  C_21 
REMARK    6  A    between atoms: C_29  and  C_22 
REMARK    7  A    between atoms: O_41  and  C_25 
REMARK    8  A    between atoms: C_30  and  C_26 
REMARK    9  A    between atoms: O_42  and  C_27 
REMARK       I    between atoms: N_37  and  C_31 
REMARK       I    between atoms: N_38  and  C_31 
ROOT
HETATM    1  C   UNK N   1      28.971  15.645   1.952  0.00  0.00     0.292 C 
HETATM    2  C   UNK N   1      29.005  13.166   2.070  0.00  0.00     0.292 C 
HETATM    3  C   UNK N   1      27.718  15.693   2.848  0.00  0.00     0.158 C 
HETATM    4  C   UNK N   1      27.501  13.380   1.986  0.00  0.00     0.158 C 
HETATM    5  C   UNK N   1      23.617  16.442   5.125  0.00  0.00     0.144 C 
HETATM    6  C   UNK N   1      23.980  14.945   4.956  0.00  0.00     0.156 C 
HETATM    7  C   UNK N   1      25.853  16.260   5.182  0.00  0.00     0.121 C 
HETATM    8  C   UNK N   1      25.966  14.142   3.701  0.00  0.00     0.327 C 
HETATM    9  N   UNK N   1      24.876  17.018   5.522  0.00  0.00    -0.364 N 
ATOM     10  HN  UNK N   1      24.978  17.908   6.009  1.00  0.00     0.162 HD
HETATM   11  N   UNK N   1      29.773  14.417   2.140  0.00  0.00     0.093 N 
HETATM   12  N   UNK N   1      27.078  14.396   2.934  0.00  0.00    -0.330 N 
HETATM   13  N   UNK N   1      25.384  15.048   4.578  0.00  0.00    -0.273 N 
HETATM   14  O   UNK N   1      25.400  13.067   3.530  0.00  0.00    -0.247 OA
ENDROOT
BRANCH   6  15
HETATM   15  C   UNK N   1      23.033  14.249   3.999  0.00  0.00    -0.032 A 
HETATM   16  C   UNK N   1      22.471  13.016   4.355  0.00  0.00     0.011 A 
HETATM   17  C   UNK N   1      21.597  12.362   3.483  0.00  0.00     0.019 A 
HETATM   18  C   UNK N   1      21.282  12.936   2.249  0.00  0.00     0.011 A 
HETATM   19  C   UNK N   1      21.838  14.165   1.887  0.00  0.00     0.019 A 
HETATM   20 Br   UNK N   1      20.096  12.038   1.059  0.00  0.00    -0.051 Br
HETATM   21  C   UNK N   1      22.709  14.823   2.759  0.00  0.00     0.011 A 
ENDBRANCH   6  15
BRANCH   7  22
HETATM   22  C   UNK N   1      27.246  16.571   5.673  0.00  0.00     0.042 A 
HETATM   23  C   UNK N   1      28.084  15.551   6.148  0.00  0.00     0.021 A 
HETATM   24  C   UNK N   1      29.380  15.825   6.594  0.00  0.00     0.038 A 
HETATM   25  C   UNK N   1      29.866  17.129   6.598  0.00  0.00     0.070 A 
HETATM   26  C   UNK N   1      29.019  18.171   6.211  0.00  0.00     0.074 A 
HETATM   27  C   UNK N   1      27.711  17.915   5.764  0.00  0.00     0.085 A 
BRANCH  25  28
HETATM   28  O   UNK N   1      31.146  17.358   6.979  0.00  0.00    -0.356 OA
HETATM   29  C   UNK N   1      31.508  17.629   8.281  0.00  0.00     0.210 C 
ENDBRANCH  25  28
BRANCH  27  30
HETATM   30  O   UNK N   1      26.890  18.950   5.454  0.00  0.00    -0.350 OA
BRANCH  30  31
HETATM   31  C   UNK N   1      27.333  20.118   4.872  0.00  0.00     0.171 C 
HETATM   32  C   UNK N   1      27.018  21.286   5.789  0.00  0.00     0.034 C 
ENDBRANCH  30  31
ENDBRANCH  27  30
ENDBRANCH   7  22
BRANCH   5  33
HETATM   33  C   UNK N   1      22.499  16.663   6.102  0.00  0.00    -0.033 A 
HETATM   34  C   UNK N   1      22.128  15.660   7.008  0.00  0.00     0.011 A 
HETATM   35  C   UNK N   1      21.049  15.858   7.874  0.00  0.00     0.019 A 
HETATM   36  C   UNK N   1      20.327  17.054   7.826  0.00  0.00     0.011 A 
HETATM   37  C   UNK N   1      20.693  18.059   6.927  0.00  0.00     0.019 A 
HETATM   38 Br   UNK N   1      18.832  17.307   8.978  0.00  0.00    -0.051 Br
HETATM   39  C   UNK N   1      21.781  17.866   6.071  0.00  0.00     0.011 A 
ENDBRANCH   5  33
BRANCH  11  40
HETATM   40  C   UNK N   1      30.455  14.426   3.427  0.00  0.00     0.298 C 
BRANCH  40  41
HETATM   41  C   UNK N   1      31.510  15.515   3.478  0.00  0.00     0.194 C 
BRANCH  41  42
HETATM   42  O   UNK N   1      32.595  15.160   2.677  0.00  0.00    -0.399 OA
HETATM   43  H   UNK N   1      32.455  14.636   1.873  0.00  0.00     0.209 HD
ENDBRANCH  41  42
ENDBRANCH  40  41
ENDBRANCH  11  40
TORSDOF 9
ENDMDL
