REMARK  16 active torsions:
REMARK  status: ('A' for Active; 'I' for Inactive)
REMARK    1  A    between atoms: O_2  and  C_3 
REMARK    2  A    between atoms: C_5  and  C_13 
REMARK    3  A    between atoms: C_7  and  O_8 
REMARK    4  A    between atoms: C_10  and  O_11 
REMARK    5  A    between atoms: C_13  and  C_16 
REMARK       I    between atoms: C_16  and  N_18 
REMARK    6  A    between atoms: C_23  and  C_24 
REMARK    7  A    between atoms: C_24  and  O_26 
REMARK    8  A    between atoms: C_27  and  O_26 
REMARK    9  A    between atoms: C_27  and  C_28 
REMARK   10  A    between atoms: C_27  and  C_37 
REMARK   11  A    between atoms: C_28  and  C_29 
REMARK   12  A    between atoms: C_29  and  C_30 
REMARK   13  A    between atoms: C_30  and  C_31 
REMARK   14  A    between atoms: C_37  and  C_38 
REMARK   15  A    between atoms: C_38  and  C_39 
REMARK   16  A    between atoms: C_39  and  C_40 
ROOT
HETATM    1  C   UNK N   1       5.793  -7.940   0.356  0.00  0.00     0.298 C 
HETATM    2  O   UNK N   1       5.668  -6.935   1.034  0.00  0.00    -0.266 OA
HETATM    3  N   UNK N   1       4.766  -8.848   0.291  0.00  0.00    -0.333 N 
HETATM    4  C   UNK N   1       4.912 -10.113  -0.402  0.00  0.00     0.127 C 
HETATM    5  C   UNK N   1       4.085 -11.186   0.281  0.00  0.00     0.020 C 
HETATM    6  C   UNK N   1       2.633 -10.763   0.172  0.00  0.00     0.004 C 
HETATM    7  C   UNK N   1       2.429  -9.468   0.953  0.00  0.00     0.035 C 
HETATM    8  C   UNK N   1       3.421  -8.350   0.569  0.00  0.00     0.187 C 
ENDROOT
BRANCH   8   9
HETATM    9  C   UNK N   1       2.988  -7.561  -0.650  0.00  0.00     0.282 C 
HETATM   10  O   UNK N   1       2.942  -8.115  -1.738  0.00  0.00    -0.263 OA
BRANCH   9  11
HETATM   11  O   UNK N   1       2.767  -6.224  -0.596  0.00  0.00    -0.314 OA
BRANCH  11  12
HETATM   12  C   UNK N   1       2.538  -5.490   0.549  0.00  0.00     0.132 C 
BRANCH  12  13
HETATM   13  C   UNK N   1       1.310  -5.850   1.378  0.00  0.00     0.033 C 
BRANCH  13  14
HETATM   14  C   UNK N   1       0.062  -6.087   0.513  0.00  0.00     0.007 C 
BRANCH  14  15
HETATM   15  C   UNK N   1       0.015  -5.269  -0.785  0.00  0.00     0.038 C 
BRANCH  15  16
HETATM   16  C   UNK N   1      -0.062  -3.796  -0.552  0.00  0.00    -0.058 A 
HETATM   17  C   UNK N   1      -1.202  -3.231   0.028  0.00  0.00     0.007 A 
HETATM   18  C   UNK N   1      -1.279  -1.848   0.217  0.00  0.00     0.001 A 
HETATM   19  C   UNK N   1      -0.216  -1.027  -0.174  0.00  0.00     0.000 A 
HETATM   20  C   UNK N   1       0.923  -1.589  -0.757  0.00  0.00     0.001 A 
HETATM   21  C   UNK N   1       0.997  -2.971  -0.952  0.00  0.00     0.007 A 
ENDBRANCH  15  16
ENDBRANCH  14  15
ENDBRANCH  13  14
ENDBRANCH  12  13
BRANCH  12  22
HETATM   22  C   UNK N   1       3.731  -4.846   1.220  0.00  0.00     0.033 C 
BRANCH  22  23
HETATM   23  C   UNK N   1       3.729  -3.358   0.910  0.00  0.00     0.007 C 
BRANCH  23  24
HETATM   24  C   UNK N   1       4.307  -3.055  -0.471  0.00  0.00     0.040 C 
BRANCH  24  25
HETATM   25  C   UNK N   1       5.789  -3.233  -0.501  0.00  0.00    -0.043 A 
HETATM   26  C   UNK N   1       6.597  -2.621   0.464  0.00  0.00     0.094 A 
HETATM   27  N   UNK N   1       7.947  -2.778   0.425  0.00  0.00    -0.375 N 
HETATM   28  C   UNK N   1       8.546  -3.509  -0.552  0.00  0.00     0.087 A 
ATOM     29  HN  UNK N   1       8.522  -2.337   1.144  1.00  0.00     0.164 HD
HETATM   30  C   UNK N   1       7.777  -4.122  -1.542  0.00  0.00     0.018 A 
HETATM   31  C   UNK N   1       6.388  -3.986  -1.512  0.00  0.00     0.010 A 
ENDBRANCH  24  25
ENDBRANCH  23  24
ENDBRANCH  22  23
ENDBRANCH  12  22
ENDBRANCH  11  12
ENDBRANCH   9  11
ENDBRANCH   8   9
BRANCH   1  32
HETATM   32  C   UNK N   1       7.009  -8.024  -0.549  0.00  0.00     0.350 C 
HETATM   33  F   UNK N   1       6.895  -8.995  -1.526  0.00  0.00    -0.190 F 
HETATM   34  F   UNK N   1       7.027  -6.831  -1.244  0.00  0.00    -0.190 F 
BRANCH  32  35
HETATM   35  C   UNK N   1       8.334  -8.223   0.117  0.00  0.00     0.028 A 
HETATM   36  C   UNK N   1       8.734  -9.524   0.399  0.00  0.00     0.053 A 
HETATM   37  C   UNK N   1      10.069  -9.834   0.634  0.00  0.00     0.105 A 
HETATM   38  C   UNK N   1      11.048  -8.801   0.618  0.00  0.00     0.135 A 
HETATM   39  C   UNK N   1      10.631  -7.459   0.390  0.00  0.00     0.105 A 
HETATM   40  C   UNK N   1       9.282  -7.198   0.114  0.00  0.00     0.053 A 
BRANCH  37  41
HETATM   41  O   UNK N   1      10.372 -11.147   0.794  0.00  0.00    -0.353 OA
HETATM   42  C   UNK N   1      11.607 -11.701   0.549  0.00  0.00     0.210 C 
ENDBRANCH  37  41
BRANCH  38  43
HETATM   43  O   UNK N   1      12.354  -9.130   0.808  0.00  0.00    -0.351 OA
HETATM   44  C   UNK N   1      13.432  -8.310   0.562  0.00  0.00     0.210 C 
ENDBRANCH  38  43
BRANCH  39  45
HETATM   45  O   UNK N   1      11.534  -6.446   0.402  0.00  0.00    -0.353 OA
HETATM   46  C   UNK N   1      11.208  -5.126   0.191  0.00  0.00     0.210 C 
ENDBRANCH  39  45
ENDBRANCH  32  35
ENDBRANCH   1  32
TORSDOF 16
