MODEL 1
REMARK VINA RESULT:      -8.6      0.000      0.000
REMARK  15 active torsions:
REMARK  status: ('A' for Active; 'I' for Inactive)
REMARK    1  A    between atoms: C_23  and  C_16 
REMARK    2  A    between atoms: O_52  and  C_16 
REMARK    3  A    between atoms: C_20  and  N_39 
REMARK    4  A    between atoms: C_22  and  C_32 
REMARK    5  A    between atoms: C_33  and  C_23 
REMARK    6  A    between atoms: C_23  and  N_43 
REMARK    7  A    between atoms: C_26  and  C_25 
REMARK    8  A    between atoms: C_35  and  C_25 
REMARK    9  A    between atoms: C_25  and  N_46 
REMARK   10  A    between atoms: C_29  and  C_26 
REMARK   11  A    between atoms: C_26  and  O_53 
REMARK   12  A    between atoms: C_27  and  O_54 
REMARK   13  A    between atoms: C_28  and  O_55 
REMARK       I    between atoms: N_43  and  C_32 
REMARK       I    between atoms: N_46  and  C_33 
REMARK   14  A    between atoms: C_34  and  N_48 
REMARK   15  A    between atoms: O_60  and  C_35 
REMARK       I    between atoms: N_40  and  C_36 
REMARK       I    between atoms: N_44  and  C_36 
ROOT
HETATM    1  C   UNK N   1      24.148  16.300   5.588  0.00  0.00     0.241 C 
HETATM    2  N   UNK N   1      25.389  16.273   6.062  0.00  0.00    -0.344 N 
HETATM    3  O   UNK N   1      23.248  16.316   6.412  0.00  0.00    -0.271 OA
HETATM    4  H   UNK N   1      25.536  16.460   7.018  0.00  0.00     0.163 HD
ENDROOT
BRANCH   2   5
HETATM    5  C   UNK N   1      26.487  15.989   5.257  0.00  0.00     0.200 C 
BRANCH   5   6
HETATM    6  C   UNK N   1      27.201  17.316   4.829  0.00  0.00     0.199 C 
BRANCH   6   7
HETATM    7  O   UNK N   1      26.996  17.736   3.514  0.00  0.00    -0.398 OA
HETATM    8  H   UNK N   1      26.124  18.054   3.232  0.00  0.00     0.209 HD
ENDBRANCH   6   7
ENDBRANCH   5   6
BRANCH   5   9
HETATM    9  C   UNK N   1      26.962  14.493   5.532  0.00  0.00     0.243 C 
HETATM   10  N   UNK N   1      27.911  13.877   4.799  0.00  0.00    -0.343 N 
HETATM   11  H   UNK N   1      28.228  12.971   5.022  0.00  0.00     0.163 HD
HETATM   12  O   UNK N   1      26.311  13.788   6.244  0.00  0.00    -0.271 OA
BRANCH  10  13
HETATM   13  C   UNK N   1      28.425  14.583   3.707  0.00  0.00     0.212 C 
BRANCH  13  14
HETATM   14  C   UNK N   1      29.922  14.961   3.801  0.00  0.00     0.167 C 
BRANCH  14  15
HETATM   15  C   UNK N   1      30.790  13.716   3.383  0.00  0.00     0.111 C 
HETATM   16  C   UNK N   1      31.781  13.983   2.312  0.00  0.00     0.165 C 
HETATM   17  C   UNK N   1      32.966  14.621   3.047  0.00  0.00     0.176 C 
HETATM   18  C   UNK N   1      32.823  14.473   4.606  0.00  0.00     0.165 C 
HETATM   19  S   UNK N   1      31.781  13.010   4.764  0.00  0.00    -0.135 SA
BRANCH  16  20
HETATM   20  O   UNK N   1      32.171  12.743   1.784  0.00  0.00    -0.392 OA
HETATM   21  H   UNK N   1      32.543  11.869   1.979  0.00  0.00     0.210 HD
ENDBRANCH  16  20
BRANCH  17  22
HETATM   22  O   UNK N   1      33.189  15.919   2.595  0.00  0.00    -0.391 OA
HETATM   23  H   UNK N   1      33.370  16.582   1.912  0.00  0.00     0.210 HD
ENDBRANCH  17  22
BRANCH  18  24
HETATM   24  N   UNK N   1      32.295  15.638   5.392  0.00  0.00    -0.194 NA
HETATM   25  C   UNK N   1      33.111  16.709   5.267  0.00  0.00     0.075 C 
HETATM   26  C   UNK N   1      33.891  17.095   6.346  0.00  0.00     0.061 C 
HETATM   27  C   UNK N   1      33.867  16.299   7.508  0.00  0.00     0.115 C 
HETATM   28  N   UNK N   1      34.563  16.746   8.494  0.00  0.00    -0.295 N 
HETATM   29  N   UNK N   1      32.982  15.234   7.569  0.00  0.00    -0.294 N 
HETATM   30  C   UNK N   1      34.534  16.497   9.828  0.00  0.00     0.319 C 
ATOM     31  HN  UNK N   1      35.277  17.421   8.219  1.00  0.00     0.172 HD
HETATM   32  N   UNK N   1      35.369  17.188  10.614  0.00  0.00    -0.352 N 
HETATM   33  O   UNK N   1      33.656  15.841  10.351  0.00  0.00    -0.247 OA
HETATM   34  H   UNK N   1      35.085  17.637  11.443  0.00  0.00     0.160 HD
HETATM   35  H   UNK N   1      36.315  17.250  10.350  0.00  0.00     0.160 HD
HETATM   36  C   UNK N   1      32.753  14.292   8.656  0.00  0.00     0.162 C 
HETATM   37  C   UNK N   1      31.970  15.371   6.711  0.00  0.00     0.309 C 
HETATM   38  O   UNK N   1      31.071  16.044   7.198  0.00  0.00    -0.253 OA
ENDBRANCH  18  24
ENDBRANCH  14  15
BRANCH  14  39
HETATM   39  O   UNK N   1      30.203  15.977   2.877  0.00  0.00    -0.392 OA
HETATM   40  H   UNK N   1      29.600  16.613   2.462  0.00  0.00     0.210 HD
ENDBRANCH  14  39
ENDBRANCH  13  14
BRANCH  13  41
HETATM   41  C   UNK N   1      27.522  14.287   2.512  0.00  0.00     0.166 C 
HETATM   42  O   UNK N   1      27.591  13.202   1.938  0.00  0.00    -0.648 OA
BRANCH  41  43
HETATM   43  O   UNK N   1      26.930  15.310   1.854  0.00  0.00    -0.775 OA
HETATM   44  H   UNK N   1      27.309  16.105   1.534  0.00  0.00     0.167 HD
ENDBRANCH  41  43
ENDBRANCH  13  41
ENDBRANCH  10  13
ENDBRANCH   5   9
ENDBRANCH   2   5
BRANCH   1  45
HETATM   45  C   UNK N   1      23.791  16.397   4.084  0.00  0.00     0.176 C 
HETATM   46  C   UNK N   1      22.310  16.790   3.630  0.00  0.00     0.037 C 
HETATM   47  C   UNK N   1      21.417  18.112   3.541  0.00  0.00     0.025 C 
HETATM   48  C   UNK N   1      19.858  17.907   3.682  0.00  0.00     0.161 C 
HETATM   49  N   UNK N   1      19.573  16.560   3.278  0.00  0.00    -0.204 N 
HETATM   50  C   UNK N   1      20.120  16.193   2.078  0.00  0.00     0.175 C 
HETATM   51  O   UNK N   1      19.367  15.624   4.248  0.00  0.00    -0.084 OA
HETATM   52  C   UNK N   1      20.371  17.182   0.973  0.00  0.00     0.102 C 
HETATM   53  O   UNK N   1      20.676  15.123   2.046  0.00  0.00    -0.175 OA
HETATM   54 Fe   UNK N   1      20.175  14.068   3.508  0.00  0.00     0.000 Fe
HETATM   55  O   UNK N   1      21.764  14.334   4.292  0.00  0.00    -0.175 OA
HETATM   56  O   UNK N   1      18.603  13.812   2.553  0.00  0.00    -0.175 OA
HETATM   57  O   UNK N   1      19.706  12.953   5.027  0.00  0.00    -0.084 OA
HETATM   58  O   UNK N   1      20.873  12.624   2.650  0.00  0.00    -0.084 OA
HETATM   59  C   UNK N   1      21.937  13.634   5.261  0.00  0.00     0.175 C 
HETATM   60  C   UNK N   1      23.249  13.716   5.946  0.00  0.00     0.102 C 
HETATM   61  N   UNK N   1      20.926  12.800   5.647  0.00  0.00    -0.204 N 
HETATM   62  C   UNK N   1      21.062  11.931   6.826  0.00  0.00     0.161 C 
HETATM   63  C   UNK N   1      22.514  11.591   7.292  0.00  0.00     0.025 C 
HETATM   64  C   UNK N   1      23.190  10.518   6.414  0.00  0.00     0.036 C 
HETATM   65  C   UNK N   1      24.420  10.855   5.523  0.00  0.00     0.167 C 
HETATM   66  C   UNK N   1      24.113  10.980   4.027  0.00  0.00     0.240 C 
HETATM   67  N   UNK N   1      23.670  12.187   3.575  0.00  0.00    -0.346 N 
HETATM   68  O   UNK N   1      24.539  10.142   3.243  0.00  0.00    -0.271 OA
HETATM   69  C   UNK N   1      24.078  12.866   2.345  0.00  0.00     0.176 C 
HETATM   70  H   UNK N   1      23.005  12.650   4.134  0.00  0.00     0.163 HD
HETATM   71  C   UNK N   1      23.665  12.213   0.986  0.00  0.00     0.037 C 
HETATM   72  C   UNK N   1      23.760  14.366   2.459  0.00  0.00     0.241 C 
HETATM   73  C   UNK N   1      22.261  11.635   0.685  0.00  0.00     0.025 C 
HETATM   74  C   UNK N   1      21.084  12.567   0.289  0.00  0.00     0.161 C 
HETATM   75  N   UNK N   1      20.275  12.805   1.461  0.00  0.00    -0.204 N 
HETATM   76  C   UNK N   1      19.006  13.382   1.463  0.00  0.00     0.175 C 
HETATM   77  C   UNK N   1      18.242  13.655   0.208  0.00  0.00     0.102 C 
HETATM   78  N   UNK N   1      24.134  15.045   3.591  0.00  0.00    -0.346 N 
HETATM   79  O   UNK N   1      23.148  14.933   1.573  0.00  0.00    -0.271 OA
HETATM   80  H   UNK N   1      24.741  14.543   4.180  0.00  0.00     0.163 HD
BRANCH  65  81
HETATM   81  N   UNK N   1      25.412   9.810   5.733  0.00  0.00    -0.418 N 
HETATM   82  H   UNK N   1      25.224   8.848   5.452  0.00  0.00     0.150 HD
HETATM   83  H   UNK N   1      26.305  10.044   6.165  0.00  0.00     0.150 HD
ENDBRANCH  65  81
ENDBRANCH   1  45
TORSDOF 15
ENDMDL
MODEL 2
REMARK VINA RESULT:      -8.3      3.208      6.064
REMARK  15 active torsions:
REMARK  status: ('A' for Active; 'I' for Inactive)
REMARK    1  A    between atoms: C_23  and  C_16 
REMARK    2  A    between atoms: O_52  and  C_16 
REMARK    3  A    between atoms: C_20  and  N_39 
REMARK    4  A    between atoms: C_22  and  C_32 
REMARK    5  A    between atoms: C_33  and  C_23 
REMARK    6  A    between atoms: C_23  and  N_43 
REMARK    7  A    between atoms: C_26  and  C_25 
REMARK    8  A    between atoms: C_35  and  C_25 
REMARK    9  A    between atoms: C_25  and  N_46 
REMARK   10  A    between atoms: C_29  and  C_26 
REMARK   11  A    between atoms: C_26  and  O_53 
REMARK   12  A    between atoms: C_27  and  O_54 
REMARK   13  A    between atoms: C_28  and  O_55 
REMARK       I    between atoms: N_43  and  C_32 
REMARK       I    between atoms: N_46  and  C_33 
REMARK   14  A    between atoms: C_34  and  N_48 
REMARK   15  A    between atoms: O_60  and  C_35 
REMARK       I    between atoms: N_40  and  C_36 
REMARK       I    between atoms: N_44  and  C_36 
ROOT
HETATM    1  C   UNK N   1      23.784  13.946   2.725  0.00  0.00     0.241 C 
HETATM    2  N   UNK N   1      25.071  14.185   2.953  0.00  0.00    -0.344 N 
HETATM    3  O   UNK N   1      23.019  14.883   2.877  0.00  0.00    -0.271 OA
HETATM    4  H   UNK N   1      25.373  15.119   3.037  0.00  0.00     0.163 HD
ENDROOT
BRANCH   2   5
HETATM    5  C   UNK N   1      26.008  13.163   3.076  0.00  0.00     0.200 C 
BRANCH   5   6
HETATM    6  C   UNK N   1      26.789  12.982   1.731  0.00  0.00     0.199 C 
BRANCH   6   7
HETATM    7  O   UNK N   1      27.611  11.857   1.637  0.00  0.00    -0.398 OA
HETATM    8  H   UNK N   1      27.982  11.454   2.437  0.00  0.00     0.209 HD
ENDBRANCH   6   7
ENDBRANCH   5   6
BRANCH   5   9
HETATM    9  C   UNK N   1      26.356  12.959   4.617  0.00  0.00     0.243 C 
HETATM   10  N   UNK N   1      27.452  13.485   5.200  0.00  0.00    -0.343 N 
HETATM   11  H   UNK N   1      27.618  13.391   6.166  0.00  0.00     0.163 HD
HETATM   12  O   UNK N   1      25.779  12.123   5.247  0.00  0.00    -0.271 OA
BRANCH  10  13
HETATM   13  C   UNK N   1      28.344  14.169   4.367  0.00  0.00     0.212 C 
BRANCH  13  14
HETATM   14  C   UNK N   1      28.257  15.712   4.421  0.00  0.00     0.167 C 
BRANCH  14  15
HETATM   15  C   UNK N   1      28.345  16.175   5.925  0.00  0.00     0.111 C 
HETATM   16  C   UNK N   1      29.385  17.196   6.198  0.00  0.00     0.165 C 
HETATM   17  C   UNK N   1      28.732  18.519   5.781  0.00  0.00     0.176 C 
HETATM   18  C   UNK N   1      27.190  18.345   5.530  0.00  0.00     0.165 C 
HETATM   19  S   UNK N   1      26.786  16.921   6.559  0.00  0.00    -0.135 SA
BRANCH  16  20
HETATM   20  O   UNK N   1      29.610  17.203   7.583  0.00  0.00    -0.392 OA
HETATM   21  H   UNK N   1      29.770  17.751   8.368  0.00  0.00     0.210 HD
ENDBRANCH  16  20
BRANCH  17  22
HETATM   22  O   UNK N   1      29.437  19.112   4.736  0.00  0.00    -0.391 OA
HETATM   23  H   UNK N   1      30.189  19.191   4.130  0.00  0.00     0.210 HD
ENDBRANCH  17  22
BRANCH  18  24
HETATM   24  N   UNK N   1      26.706  18.185   4.118  0.00  0.00    -0.194 NA
HETATM   25  C   UNK N   1      26.858  19.337   3.426  0.00  0.00     0.075 C 
HETATM   26  C   UNK N   1      25.738  20.084   3.099  0.00  0.00     0.061 C 
HETATM   27  C   UNK N   1      24.484  19.655   3.578  0.00  0.00     0.115 C 
HETATM   28  N   UNK N   1      23.477  20.355   3.187  0.00  0.00    -0.295 N 
HETATM   29  N   UNK N   1      24.406  18.449   4.255  0.00  0.00    -0.294 N 
HETATM   30  C   UNK N   1      22.146  20.098   3.124  0.00  0.00     0.319 C 
ATOM     31  HN  UNK N   1      23.730  21.287   2.858  1.00  0.00     0.172 HD
HETATM   32  N   UNK N   1      21.350  21.035   2.596  0.00  0.00    -0.352 N 
HETATM   33  O   UNK N   1      21.684  18.993   3.329  0.00  0.00    -0.247 OA
HETATM   34  H   UNK N   1      20.666  20.843   1.914  0.00  0.00     0.160 HD
HETATM   35  H   UNK N   1      21.452  21.964   2.905  0.00  0.00     0.160 HD
HETATM   36  C   UNK N   1      23.237  17.784   4.817  0.00  0.00     0.162 C 
HETATM   37  C   UNK N   1      25.437  17.648   3.978  0.00  0.00     0.309 C 
HETATM   38  O   UNK N   1      25.228  17.001   2.960  0.00  0.00    -0.253 OA
ENDBRANCH  18  24
ENDBRANCH  14  15
BRANCH  14  39
HETATM   39  O   UNK N   1      29.367  16.262   3.765  0.00  0.00    -0.392 OA
HETATM   40  H   UNK N   1      30.264  16.416   4.099  0.00  0.00     0.210 HD
ENDBRANCH  14  39
ENDBRANCH  13  14
BRANCH  13  41
HETATM   41  C   UNK N   1      29.506  13.223   4.076  0.00  0.00     0.166 C 
HETATM   42  O   UNK N   1      30.088  12.655   4.997  0.00  0.00    -0.648 OA
BRANCH  41  43
HETATM   43  O   UNK N   1      30.136  13.289   2.880  0.00  0.00    -0.775 OA
HETATM   44  H   UNK N   1      30.854  13.831   2.619  0.00  0.00     0.167 HD
ENDBRANCH  41  43
ENDBRANCH  13  41
ENDBRANCH  10  13
ENDBRANCH   5   9
ENDBRANCH   2   5
BRANCH   1  45
HETATM   45  C   UNK N   1      23.226  12.596   2.208  0.00  0.00     0.176 C 
HETATM   46  C   UNK N   1      21.728  12.500   1.659  0.00  0.00     0.037 C 
HETATM   47  C   UNK N   1      20.930  12.908   0.336  0.00  0.00     0.025 C 
HETATM   48  C   UNK N   1      19.396  13.231   0.522  0.00  0.00     0.161 C 
HETATM   49  N   UNK N   1      18.959  12.532   1.697  0.00  0.00    -0.204 N 
HETATM   50  C   UNK N   1      19.303  11.207   1.738  0.00  0.00     0.175 C 
HETATM   51  O   UNK N   1      18.825  13.238   2.856  0.00  0.00    -0.084 OA
HETATM   52  C   UNK N   1      19.466  10.381   0.492  0.00  0.00     0.102 C 
HETATM   53  O   UNK N   1      19.769  10.806   2.775  0.00  0.00    -0.175 OA
HETATM   54 Fe   UNK N   1      19.404  11.993   4.174  0.00  0.00     0.000 Fe
HETATM   55  O   UNK N   1      21.103  12.561   4.184  0.00  0.00    -0.175 OA
HETATM   56  O   UNK N   1      17.699  11.262   4.108  0.00  0.00    -0.175 OA
HETATM   57  O   UNK N   1      19.075  13.214   5.648  0.00  0.00    -0.084 OA
HETATM   58  O   UNK N   1      19.867  10.684   5.348  0.00  0.00    -0.084 OA
HETATM   59  C   UNK N   1      21.361  13.270   5.128  0.00  0.00     0.175 C 
HETATM   60  C   UNK N   1      22.759  13.739   5.279  0.00  0.00     0.102 C 
HETATM   61  N   UNK N   1      20.356  13.572   6.003  0.00  0.00    -0.204 N 
HETATM   62  C   UNK N   1      20.595  14.441   7.167  0.00  0.00     0.161 C 
HETATM   63  C   UNK N   1      22.069  14.567   7.667  0.00  0.00     0.025 C 
HETATM   64  C   UNK N   1      22.534  13.340   8.479  0.00  0.00     0.036 C 
HETATM   65  C   UNK N   1      23.647  12.391   7.950  0.00  0.00     0.167 C 
HETATM   66  C   UNK N   1      23.140  11.049   7.409  0.00  0.00     0.240 C 
HETATM   67  N   UNK N   1      22.727  11.010   6.112  0.00  0.00    -0.346 N 
HETATM   68  O   UNK N   1      23.389  10.014   8.013  0.00  0.00    -0.271 OA
HETATM   69  C   UNK N   1      23.005   9.957   5.134  0.00  0.00     0.176 C 
HETATM   70  H   UNK N   1      22.183  11.769   5.799  0.00  0.00     0.163 HD
HETATM   71  C   UNK N   1      22.358   8.555   5.376  0.00  0.00     0.037 C 
HETATM   72  C   UNK N   1      22.817  10.515   3.714  0.00  0.00     0.241 C 
HETATM   73  C   UNK N   1      20.886   8.335   5.804  0.00  0.00     0.025 C 
HETATM   74  C   UNK N   1      19.736   8.390   4.762  0.00  0.00     0.161 C 
HETATM   75  N   UNK N   1      19.121   9.694   4.830  0.00  0.00    -0.204 N 
HETATM   76  C   UNK N   1      17.911  10.048   4.236  0.00  0.00     0.175 C 
HETATM   77  C   UNK N   1      16.998   9.046   3.605  0.00  0.00     0.102 C 
HETATM   78  N   UNK N   1      23.396  11.714   3.383  0.00  0.00    -0.346 N 
HETATM   79  O   UNK N   1      22.128   9.918   2.906  0.00  0.00    -0.271 OA
HETATM   80  H   UNK N   1      24.042  12.046   4.047  0.00  0.00     0.163 HD
BRANCH  65  81
HETATM   81  N   UNK N   1      24.579  12.157   9.043  0.00  0.00    -0.418 N 
HETATM   82  H   UNK N   1      24.289  12.281  10.013  0.00  0.00     0.150 HD
HETATM   83  H   UNK N   1      25.533  11.864   8.836  0.00  0.00     0.150 HD
ENDBRANCH  65  81
ENDBRANCH   1  45
TORSDOF 15
ENDMDL
MODEL 3
REMARK VINA RESULT:      -8.3      3.486      7.731
REMARK  15 active torsions:
REMARK  status: ('A' for Active; 'I' for Inactive)
REMARK    1  A    between atoms: C_23  and  C_16 
REMARK    2  A    between atoms: O_52  and  C_16 
REMARK    3  A    between atoms: C_20  and  N_39 
REMARK    4  A    between atoms: C_22  and  C_32 
REMARK    5  A    between atoms: C_33  and  C_23 
REMARK    6  A    between atoms: C_23  and  N_43 
REMARK    7  A    between atoms: C_26  and  C_25 
REMARK    8  A    between atoms: C_35  and  C_25 
REMARK    9  A    between atoms: C_25  and  N_46 
REMARK   10  A    between atoms: C_29  and  C_26 
REMARK   11  A    between atoms: C_26  and  O_53 
REMARK   12  A    between atoms: C_27  and  O_54 
REMARK   13  A    between atoms: C_28  and  O_55 
REMARK       I    between atoms: N_43  and  C_32 
REMARK       I    between atoms: N_46  and  C_33 
REMARK   14  A    between atoms: C_34  and  N_48 
REMARK   15  A    between atoms: O_60  and  C_35 
REMARK       I    between atoms: N_40  and  C_36 
REMARK       I    between atoms: N_44  and  C_36 
ROOT
HETATM    1  C   UNK N   1      22.830  12.538   6.262  0.00  0.00     0.241 C 
HETATM    2  N   UNK N   1      22.392  13.708   6.716  0.00  0.00    -0.344 N 
HETATM    3  O   UNK N   1      23.888  12.549   5.655  0.00  0.00    -0.271 OA
HETATM    4  H   UNK N   1      23.009  14.476   6.720  0.00  0.00     0.163 HD
ENDROOT
BRANCH   2   5
HETATM    5  C   UNK N   1      21.094  13.885   7.185  0.00  0.00     0.200 C 
BRANCH   5   6
HETATM    6  C   UNK N   1      21.093  13.983   8.748  0.00  0.00     0.199 C 
BRANCH   6   7
HETATM    7  O   UNK N   1      19.843  14.025   9.367  0.00  0.00    -0.398 OA
HETATM    8  H   UNK N   1      19.776  14.011  10.335  0.00  0.00     0.209 HD
ENDBRANCH   6   7
ENDBRANCH   5   6
BRANCH   5   9
HETATM    9  C   UNK N   1      20.198  14.496   6.018  0.00  0.00     0.243 C 
HETATM   10  N   UNK N   1      20.143  15.816   5.747  0.00  0.00    -0.343 N 
HETATM   11  H   UNK N   1      19.625  16.165   4.986  0.00  0.00     0.163 HD
HETATM   12  O   UNK N   1      19.355  13.822   5.506  0.00  0.00    -0.271 OA
BRANCH  10  13
HETATM   13  C   UNK N   1      20.856  16.667   6.598  0.00  0.00     0.212 C 
BRANCH  13  14
HETATM   14  C   UNK N   1      22.098  17.345   5.975  0.00  0.00     0.167 C 
BRANCH  14  15
HETATM   15  C   UNK N   1      21.861  17.522   4.428  0.00  0.00     0.111 C 
HETATM   16  C   UNK N   1      22.089  18.897   3.920  0.00  0.00     0.165 C 
HETATM   17  C   UNK N   1      23.609  18.984   3.743  0.00  0.00     0.176 C 
HETATM   18  C   UNK N   1      24.285  17.569   3.860  0.00  0.00     0.165 C 
HETATM   19  S   UNK N   1      22.945  16.459   3.388  0.00  0.00    -0.135 SA
BRANCH  16  20
HETATM   20  O   UNK N   1      21.467  18.988   2.666  0.00  0.00    -0.392 OA
HETATM   21  H   UNK N   1      21.553  19.287   1.747  0.00  0.00     0.210 HD
ENDBRANCH  16  20
BRANCH  17  22
HETATM   22  O   UNK N   1      24.149  19.966   4.570  0.00  0.00    -0.391 OA
HETATM   23  H   UNK N   1      24.090  20.698   5.203  0.00  0.00     0.210 HD
ENDBRANCH  17  22
BRANCH  18  24
HETATM   24  N   UNK N   1      24.915  17.181   5.166  0.00  0.00    -0.194 NA
HETATM   25  C   UNK N   1      25.944  18.006   5.465  0.00  0.00     0.075 C 
HETATM   26  C   UNK N   1      27.242  17.529   5.374  0.00  0.00     0.061 C 
HETATM   27  C   UNK N   1      27.444  16.223   4.887  0.00  0.00     0.115 C 
HETATM   28  N   UNK N   1      28.665  15.819   4.887  0.00  0.00    -0.295 N 
HETATM   29  N   UNK N   1      26.337  15.429   4.630  0.00  0.00    -0.294 N 
HETATM   30  C   UNK N   1      29.226  14.584   4.841  0.00  0.00     0.319 C 
ATOM     31  HN  UNK N   1      29.348  16.576   4.931  1.00  0.00     0.172 HD
HETATM   32  N   UNK N   1      30.559  14.496   4.923  0.00  0.00    -0.352 N 
HETATM   33  O   UNK N   1      28.571  13.565   4.940  0.00  0.00    -0.247 OA
HETATM   34  H   UNK N   1      31.025  13.873   5.528  0.00  0.00     0.160 HD
HETATM   35  H   UNK N   1      31.102  15.082   4.349  0.00  0.00     0.160 HD
HETATM   36  C   UNK N   1      26.284  14.054   4.153  0.00  0.00     0.162 C 
HETATM   37  C   UNK N   1      25.255  15.844   5.291  0.00  0.00     0.309 C 
HETATM   38  O   UNK N   1      25.228  15.379   6.423  0.00  0.00    -0.253 OA
ENDBRANCH  18  24
ENDBRANCH  14  15
BRANCH  14  39
HETATM   39  O   UNK N   1      22.241  18.633   6.511  0.00  0.00    -0.392 OA
HETATM   40  H   UNK N   1      22.406  18.901   7.428  0.00  0.00     0.210 HD
ENDBRANCH  14  39
ENDBRANCH  13  14
BRANCH  13  41
HETATM   41  C   UNK N   1      19.897  17.109   7.700  0.00  0.00     0.166 C 
HETATM   42  O   UNK N   1      20.307  17.783   8.643  0.00  0.00    -0.648 OA
BRANCH  41  43
HETATM   43  O   UNK N   1      18.714  16.471   7.851  0.00  0.00    -0.775 OA
HETATM   44  H   UNK N   1      18.254  15.926   7.243  0.00  0.00     0.167 HD
ENDBRANCH  41  43
ENDBRANCH  13  41
ENDBRANCH  10  13
ENDBRANCH   5   9
ENDBRANCH   2   5
BRANCH   1  45
HETATM   45  C   UNK N   1      22.130  11.182   6.528  0.00  0.00     0.176 C 
HETATM   46  C   UNK N   1      22.889   9.809   6.222  0.00  0.00     0.037 C 
HETATM   47  C   UNK N   1      24.036   8.921   6.893  0.00  0.00     0.025 C 
HETATM   48  C   UNK N   1      24.901   8.043   5.906  0.00  0.00     0.161 C 
HETATM   49  N   UNK N   1      24.095   7.802   4.743  0.00  0.00    -0.204 N 
HETATM   50  C   UNK N   1      22.832   7.345   5.004  0.00  0.00     0.175 C 
HETATM   51  O   UNK N   1      24.334   8.549   3.627  0.00  0.00    -0.084 OA
HETATM   52  C   UNK N   1      22.511   6.518   6.219  0.00  0.00     0.102 C 
HETATM   53  O   UNK N   1      21.933   7.878   4.402  0.00  0.00    -0.175 OA
HETATM   54 Fe   UNK N   1      22.587   8.814   2.920  0.00  0.00     0.000 Fe
HETATM   55  O   UNK N   1      22.323  10.381   3.747  0.00  0.00    -0.175 OA
HETATM   56  O   UNK N   1      22.738   7.131   2.150  0.00  0.00    -0.175 OA
HETATM   57  O   UNK N   1      23.227   9.825   1.390  0.00  0.00    -0.084 OA
HETATM   58  O   UNK N   1      20.887   8.901   2.279  0.00  0.00    -0.084 OA
HETATM   59  C   UNK N   1      22.470  11.334   3.018  0.00  0.00     0.175 C 
HETATM   60  C   UNK N   1      22.204  12.680   3.578  0.00  0.00     0.102 C 
HETATM   61  N   UNK N   1      22.848  11.106   1.725  0.00  0.00    -0.204 N 
HETATM   62  C   UNK N   1      23.059  12.219   0.786  0.00  0.00     0.161 C 
HETATM   63  C   UNK N   1      22.352  13.571   1.119  0.00  0.00     0.025 C 
HETATM   64  C   UNK N   1      20.848  13.561   0.780  0.00  0.00     0.036 C 
HETATM   65  C   UNK N   1      19.764  13.650   1.893  0.00  0.00     0.167 C 
HETATM   66  C   UNK N   1      19.057  12.328   2.205  0.00  0.00     0.240 C 
HETATM   67  N   UNK N   1      19.658  11.488   3.094  0.00  0.00    -0.346 N 
HETATM   68  O   UNK N   1      17.877  12.181   1.913  0.00  0.00    -0.271 OA
HETATM   69  C   UNK N   1      19.005  10.728   4.161  0.00  0.00     0.176 C 
HETATM   70  H   UNK N   1      20.632  11.381   3.010  0.00  0.00     0.163 HD
HETATM   71  C   UNK N   1      18.034   9.578   3.741  0.00  0.00     0.037 C 
HETATM   72  C   UNK N   1      20.049  10.334   5.220  0.00  0.00     0.241 C 
HETATM   73  C   UNK N   1      18.335   8.543   2.630  0.00  0.00     0.025 C 
HETATM   74  C   UNK N   1      19.242   7.314   2.910  0.00  0.00     0.161 C 
HETATM   75  N   UNK N   1      20.568   7.604   2.417  0.00  0.00    -0.204 N 
HETATM   76  C   UNK N   1      21.592   6.672   2.259  0.00  0.00     0.175 C 
HETATM   77  C   UNK N   1      21.374   5.200   2.407  0.00  0.00     0.102 C 
HETATM   78  N   UNK N   1      20.911  11.288   5.698  0.00  0.00    -0.346 N 
HETATM   79  O   UNK N   1      20.132   9.180   5.599  0.00  0.00    -0.271 OA
HETATM   80  H   UNK N   1      20.676  12.209   5.441  0.00  0.00     0.163 HD
BRANCH  65  81
HETATM   81  N   UNK N   1      18.785  14.641   1.471  0.00  0.00    -0.418 N 
HETATM   82  H   UNK N   1      18.349  15.267   2.149  0.00  0.00     0.150 HD
HETATM   83  H   UNK N   1      18.531  14.711   0.487  0.00  0.00     0.150 HD
ENDBRANCH  65  81
ENDBRANCH   1  45
TORSDOF 15
ENDMDL
MODEL 4
REMARK VINA RESULT:      -8.3      1.235      2.083
REMARK  15 active torsions:
REMARK  status: ('A' for Active; 'I' for Inactive)
REMARK    1  A    between atoms: C_23  and  C_16 
REMARK    2  A    between atoms: O_52  and  C_16 
REMARK    3  A    between atoms: C_20  and  N_39 
REMARK    4  A    between atoms: C_22  and  C_32 
REMARK    5  A    between atoms: C_33  and  C_23 
REMARK    6  A    between atoms: C_23  and  N_43 
REMARK    7  A    between atoms: C_26  and  C_25 
REMARK    8  A    between atoms: C_35  and  C_25 
REMARK    9  A    between atoms: C_25  and  N_46 
REMARK   10  A    between atoms: C_29  and  C_26 
REMARK   11  A    between atoms: C_26  and  O_53 
REMARK   12  A    between atoms: C_27  and  O_54 
REMARK   13  A    between atoms: C_28  and  O_55 
REMARK       I    between atoms: N_43  and  C_32 
REMARK       I    between atoms: N_46  and  C_33 
REMARK   14  A    between atoms: C_34  and  N_48 
REMARK   15  A    between atoms: O_60  and  C_35 
REMARK       I    between atoms: N_40  and  C_36 
REMARK       I    between atoms: N_44  and  C_36 
ROOT
HETATM    1  C   UNK N   1      24.227  16.320   5.273  0.00  0.00     0.241 C 
HETATM    2  N   UNK N   1      25.487  16.436   5.681  0.00  0.00    -0.344 N 
HETATM    3  O   UNK N   1      23.374  16.270   6.144  0.00  0.00    -0.271 OA
HETATM    4  H   UNK N   1      25.662  16.669   6.622  0.00  0.00     0.163 HD
ENDROOT
BRANCH   2   5
HETATM    5  C   UNK N   1      26.566  16.240   4.825  0.00  0.00     0.200 C 
BRANCH   5   6
HETATM    6  C   UNK N   1      26.685  14.726   4.443  0.00  0.00     0.199 C 
BRANCH   6   7
HETATM    7  O   UNK N   1      27.134  14.444   3.152  0.00  0.00    -0.398 OA
HETATM    8  H   UNK N   1      27.356  13.534   2.898  0.00  0.00     0.209 HD
ENDBRANCH   6   7
ENDBRANCH   5   6
BRANCH   5   9
HETATM    9  C   UNK N   1      26.912  17.615   4.099  0.00  0.00     0.243 C 
HETATM   10  N   UNK N   1      27.988  18.364   4.416  0.00  0.00    -0.343 N 
HETATM   11  H   UNK N   1      28.212  19.182   3.916  0.00  0.00     0.163 HD
HETATM   12  O   UNK N   1      26.087  18.147   3.418  0.00  0.00    -0.271 OA
BRANCH  10  13
HETATM   13  C   UNK N   1      28.771  17.924   5.488  0.00  0.00     0.212 C 
BRANCH  13  14
HETATM   14  C   UNK N   1      30.167  17.373   5.114  0.00  0.00     0.167 C 
BRANCH  14  15
HETATM   15  C   UNK N   1      30.005  15.906   4.563  0.00  0.00     0.111 C 
HETATM   16  C   UNK N   1      30.713  15.642   3.287  0.00  0.00     0.165 C 
HETATM   17  C   UNK N   1      32.161  15.372   3.711  0.00  0.00     0.176 C 
HETATM   18  C   UNK N   1      32.279  15.178   5.267  0.00  0.00     0.165 C 
HETATM   19  S   UNK N   1      30.627  14.612   5.714  0.00  0.00    -0.135 SA
BRANCH  16  20
HETATM   20  O   UNK N   1      30.163  14.475   2.736  0.00  0.00    -0.392 OA
HETATM   21  H   UNK N   1      30.196  13.840   2.003  0.00  0.00     0.210 HD
ENDBRANCH  16  20
BRANCH  17  22
HETATM   22  O   UNK N   1      33.023  16.322   3.168  0.00  0.00    -0.391 OA
HETATM   23  H   UNK N   1      33.625  16.661   2.488  0.00  0.00     0.210 HD
ENDBRANCH  17  22
BRANCH  18  24
HETATM   24  N   UNK N   1      32.731  16.341   6.103  0.00  0.00    -0.194 NA
HETATM   25  C   UNK N   1      34.042  16.598   5.897  0.00  0.00     0.075 C 
HETATM   26  C   UNK N   1      34.956  16.289   6.891  0.00  0.00     0.061 C 
HETATM   27  C   UNK N   1      34.492  15.636   8.050  0.00  0.00     0.115 C 
HETATM   28  N   UNK N   1      35.378  15.435   8.961  0.00  0.00    -0.295 N 
HETATM   29  N   UNK N   1      33.129  15.434   8.199  0.00  0.00    -0.294 N 
HETATM   30  C   UNK N   1      35.288  15.179  10.290  0.00  0.00     0.319 C 
ATOM     31  HN  UNK N   1      36.337  15.476   8.615  1.00  0.00     0.172 HD
HETATM   32  N   UNK N   1      36.426  15.079  10.988  0.00  0.00    -0.352 N 
HETATM   33  O   UNK N   1      34.240  15.244  10.900  0.00  0.00    -0.247 OA
HETATM   34  H   UNK N   1      36.581  15.546  11.842  0.00  0.00     0.160 HD
HETATM   35  H   UNK N   1      37.146  14.511  10.631  0.00  0.00     0.160 HD
HETATM   36  C   UNK N   1      32.407  14.815   9.304  0.00  0.00     0.162 C 
HETATM   37  C   UNK N   1      32.410  16.270   7.448  0.00  0.00     0.309 C 
HETATM   38  O   UNK N   1      32.235  17.336   8.024  0.00  0.00    -0.253 OA
ENDBRANCH  18  24
ENDBRANCH  14  15
BRANCH  14  39
HETATM   39  O   UNK N   1      30.703  18.139   4.069  0.00  0.00    -0.392 OA
HETATM   40  H   UNK N   1      30.275  18.817   3.523  0.00  0.00     0.210 HD
ENDBRANCH  14  39
ENDBRANCH  13  14
BRANCH  13  41
HETATM   41  C   UNK N   1      28.255  18.626   6.741  0.00  0.00     0.166 C 
HETATM   42  O   UNK N   1      28.806  18.444   7.825  0.00  0.00    -0.648 OA
BRANCH  41  43
HETATM   43  O   UNK N   1      27.002  19.137   6.751  0.00  0.00    -0.775 OA
HETATM   44  H   UNK N   1      26.234  18.829   6.311  0.00  0.00     0.167 HD
ENDBRANCH  41  43
ENDBRANCH  13  41
ENDBRANCH  10  13
ENDBRANCH   5   9
ENDBRANCH   2   5
BRANCH   1  45
HETATM   45  C   UNK N   1      23.787  16.331   3.788  0.00  0.00     0.176 C 
HETATM   46  C   UNK N   1      22.279  16.690   3.397  0.00  0.00     0.037 C 
HETATM   47  C   UNK N   1      21.371  18.000   3.285  0.00  0.00     0.025 C 
HETATM   48  C   UNK N   1      19.824  17.796   3.525  0.00  0.00     0.161 C 
HETATM   49  N   UNK N   1      19.528  16.426   3.212  0.00  0.00    -0.204 N 
HETATM   50  C   UNK N   1      20.011  15.995   2.006  0.00  0.00     0.175 C 
HETATM   51  O   UNK N   1      19.384  15.545   4.244  0.00  0.00    -0.084 OA
HETATM   52  C   UNK N   1      20.192  16.922   0.835  0.00  0.00     0.102 C 
HETATM   53  O   UNK N   1      20.573  14.929   2.003  0.00  0.00    -0.175 OA
HETATM   54 Fe   UNK N   1      20.163  13.955   3.547  0.00  0.00     0.000 Fe
HETATM   55  O   UNK N   1      21.791  14.272   4.225  0.00  0.00    -0.175 OA
HETATM   56  O   UNK N   1      18.542  13.637   2.698  0.00  0.00    -0.175 OA
HETATM   57  O   UNK N   1      19.789  12.924   5.150  0.00  0.00    -0.084 OA
HETATM   58  O   UNK N   1      20.824  12.469   2.733  0.00  0.00    -0.084 OA
HETATM   59  C   UNK N   1      22.024  13.628   5.220  0.00  0.00     0.175 C 
HETATM   60  C   UNK N   1      23.371  13.756   5.825  0.00  0.00     0.102 C 
HETATM   61  N   UNK N   1      21.042  12.812   5.708  0.00  0.00    -0.204 N 
HETATM   62  C   UNK N   1      21.252  12.012   6.924  0.00  0.00     0.161 C 
HETATM   63  C   UNK N   1      22.730  11.706   7.326  0.00  0.00     0.025 C 
HETATM   64  C   UNK N   1      23.365  10.589   6.472  0.00  0.00     0.036 C 
HETATM   65  C   UNK N   1      24.540  10.881   5.497  0.00  0.00     0.167 C 
HETATM   66  C   UNK N   1      24.149  10.921   4.016  0.00  0.00     0.240 C 
HETATM   67  N   UNK N   1      23.671  12.098   3.523  0.00  0.00    -0.346 N 
HETATM   68  O   UNK N   1      24.538  10.042   3.257  0.00  0.00    -0.271 OA
HETATM   69  C   UNK N   1      24.005  12.709   2.236  0.00  0.00     0.176 C 
HETATM   70  H   UNK N   1      23.035  12.588   4.092  0.00  0.00     0.163 HD
HETATM   71  C   UNK N   1      23.523  11.979   0.940  0.00  0.00     0.037 C 
HETATM   72  C   UNK N   1      23.681  14.212   2.284  0.00  0.00     0.241 C 
HETATM   73  C   UNK N   1      22.108  11.378   0.752  0.00  0.00     0.025 C 
HETATM   74  C   UNK N   1      20.904  12.280   0.371  0.00  0.00     0.161 C 
HETATM   75  N   UNK N   1      20.160  12.579   1.572  0.00  0.00    -0.204 N 
HETATM   76  C   UNK N   1      18.888  13.149   1.613  0.00  0.00     0.175 C 
HETATM   77  C   UNK N   1      18.052  13.347   0.389  0.00  0.00     0.102 C 
HETATM   78  N   UNK N   1      24.113  14.955   3.353  0.00  0.00    -0.346 N 
HETATM   79  O   UNK N   1      23.016  14.725   1.403  0.00  0.00    -0.271 OA
HETATM   80  H   UNK N   1      24.756  14.490   3.935  0.00  0.00     0.163 HD
BRANCH  65  81
HETATM   81  N   UNK N   1      25.551   9.855   5.708  0.00  0.00    -0.418 N 
HETATM   82  H   UNK N   1      25.310   8.966   6.147  0.00  0.00     0.150 HD
HETATM   83  H   UNK N   1      26.512  10.027   5.413  0.00  0.00     0.150 HD
ENDBRANCH  65  81
ENDBRANCH   1  45
TORSDOF 15
ENDMDL
MODEL 5
REMARK VINA RESULT:      -8.2      1.775      2.495
REMARK  15 active torsions:
REMARK  status: ('A' for Active; 'I' for Inactive)
REMARK    1  A    between atoms: C_23  and  C_16 
REMARK    2  A    between atoms: O_52  and  C_16 
REMARK    3  A    between atoms: C_20  and  N_39 
REMARK    4  A    between atoms: C_22  and  C_32 
REMARK    5  A    between atoms: C_33  and  C_23 
REMARK    6  A    between atoms: C_23  and  N_43 
REMARK    7  A    between atoms: C_26  and  C_25 
REMARK    8  A    between atoms: C_35  and  C_25 
REMARK    9  A    between atoms: C_25  and  N_46 
REMARK   10  A    between atoms: C_29  and  C_26 
REMARK   11  A    between atoms: C_26  and  O_53 
REMARK   12  A    between atoms: C_27  and  O_54 
REMARK   13  A    between atoms: C_28  and  O_55 
REMARK       I    between atoms: N_43  and  C_32 
REMARK       I    between atoms: N_46  and  C_33 
REMARK   14  A    between atoms: C_34  and  N_48 
REMARK   15  A    between atoms: O_60  and  C_35 
REMARK       I    between atoms: N_40  and  C_36 
REMARK       I    between atoms: N_44  and  C_36 
ROOT
HETATM    1  C   UNK N   1      24.081  16.456   4.853  0.00  0.00     0.241 C 
HETATM    2  N   UNK N   1      25.168  17.174   5.116  0.00  0.00    -0.344 N 
HETATM    3  O   UNK N   1      23.051  16.800   5.408  0.00  0.00    -0.271 OA
HETATM    4  H   UNK N   1      25.065  18.041   5.572  0.00  0.00     0.163 HD
ENDROOT
BRANCH   2   5
HETATM    5  C   UNK N   1      26.445  16.744   4.770  0.00  0.00     0.200 C 
BRANCH   5   6
HETATM    6  C   UNK N   1      27.032  17.653   3.638  0.00  0.00     0.199 C 
BRANCH   6   7
HETATM    7  O   UNK N   1      28.233  18.305   3.924  0.00  0.00    -0.398 OA
HETATM    8  H   UNK N   1      28.298  19.269   3.841  0.00  0.00     0.209 HD
ENDBRANCH   6   7
ENDBRANCH   5   6
BRANCH   5   9
HETATM    9  C   UNK N   1      27.063  15.916   5.983  0.00  0.00     0.243 C 
HETATM   10  N   UNK N   1      28.017  14.977   5.822  0.00  0.00    -0.343 N 
HETATM   11  H   UNK N   1      28.423  14.517   6.592  0.00  0.00     0.163 HD
HETATM   12  O   UNK N   1      26.519  15.932   7.047  0.00  0.00    -0.271 OA
BRANCH  10  13
HETATM   13  C   UNK N   1      28.403  14.686   4.509  0.00  0.00     0.212 C 
BRANCH  13  14
HETATM   14  C   UNK N   1      29.833  15.127   4.120  0.00  0.00     0.167 C 
BRANCH  14  15
HETATM   15  C   UNK N   1      30.643  13.865   3.640  0.00  0.00     0.111 C 
HETATM   16  C   UNK N   1      31.538  14.108   2.482  0.00  0.00     0.165 C 
HETATM   17  C   UNK N   1      32.792  14.735   3.102  0.00  0.00     0.176 C 
HETATM   18  C   UNK N   1      32.787  14.604   4.669  0.00  0.00     0.165 C 
HETATM   19  S   UNK N   1      31.743  13.157   4.935  0.00  0.00    -0.135 SA
BRANCH  16  20
HETATM   20  O   UNK N   1      31.863  12.858   1.935  0.00  0.00    -0.392 OA
HETATM   21  H   UNK N   1      32.365  12.386   1.251  0.00  0.00     0.210 HD
ENDBRANCH  16  20
BRANCH  17  22
HETATM   22  O   UNK N   1      32.993  16.025   2.619  0.00  0.00    -0.391 OA
HETATM   23  H   UNK N   1      32.991  16.992   2.694  0.00  0.00     0.210 HD
ENDBRANCH  17  22
BRANCH  18  24
HETATM   24  N   UNK N   1      32.347  15.784   5.486  0.00  0.00    -0.194 NA
HETATM   25  C   UNK N   1      33.240  16.794   5.388  0.00  0.00     0.075 C 
HETATM   26  C   UNK N   1      34.047  17.093   6.474  0.00  0.00     0.061 C 
HETATM   27  C   UNK N   1      33.965  16.271   7.615  0.00  0.00     0.115 C 
HETATM   28  N   UNK N   1      34.693  16.639   8.611  0.00  0.00    -0.295 N 
HETATM   29  N   UNK N   1      33.004  15.273   7.651  0.00  0.00    -0.294 N 
HETATM   30  C   UNK N   1      34.646  16.358   9.938  0.00  0.00     0.319 C 
ATOM     31  HN  UNK N   1      35.455  17.266   8.352  1.00  0.00     0.172 HD
HETATM   32  N   UNK N   1      35.530  16.964  10.739  0.00  0.00    -0.352 N 
HETATM   33  O   UNK N   1      33.722  15.755  10.446  0.00  0.00    -0.247 OA
HETATM   34  H   UNK N   1      35.281  17.412  11.581  0.00  0.00     0.160 HD
HETATM   35  H   UNK N   1      36.478  16.963  10.475  0.00  0.00     0.160 HD
HETATM   36  C   UNK N   1      32.706  14.322   8.713  0.00  0.00     0.162 C 
HETATM   37  C   UNK N   1      32.004  15.507   6.799  0.00  0.00     0.309 C 
HETATM   38  O   UNK N   1      31.157  16.232   7.306  0.00  0.00    -0.253 OA
ENDBRANCH  18  24
ENDBRANCH  14  15
BRANCH  14  39
HETATM   39  O   UNK N   1      29.767  16.004   3.028  0.00  0.00    -0.392 OA
HETATM   40  H   UNK N   1      29.256  15.924   2.208  0.00  0.00     0.210 HD
ENDBRANCH  14  39
ENDBRANCH  13  14
BRANCH  13  41
HETATM   41  C   UNK N   1      27.524  13.535   4.026  0.00  0.00     0.166 C 
HETATM   42  O   UNK N   1      27.585  12.436   4.573  0.00  0.00    -0.648 OA
BRANCH  41  43
HETATM   43  O   UNK N   1      26.968  13.593   2.793  0.00  0.00    -0.775 OA
HETATM   44  H   UNK N   1      27.050  14.258   2.138  0.00  0.00     0.167 HD
ENDBRANCH  41  43
ENDBRANCH  13  41
ENDBRANCH  10  13
ENDBRANCH   5   9
ENDBRANCH   2   5
BRANCH   1  45
HETATM   45  C   UNK N   1      24.034  15.285   3.839  0.00  0.00     0.176 C 
HETATM   46  C   UNK N   1      22.724  15.034   2.958  0.00  0.00     0.037 C 
HETATM   47  C   UNK N   1      22.028  15.680   1.673  0.00  0.00     0.025 C 
HETATM   48  C   UNK N   1      20.457  15.540   1.590  0.00  0.00     0.161 C 
HETATM   49  N   UNK N   1      20.098  14.387   2.365  0.00  0.00    -0.204 N 
HETATM   50  C   UNK N   1      20.818  13.257   2.083  0.00  0.00     0.175 C 
HETATM   51  O   UNK N   1      19.600  14.582   3.620  0.00  0.00    -0.084 OA
HETATM   52  C   UNK N   1      21.391  12.990   0.718  0.00  0.00     0.102 C 
HETATM   53  O   UNK N   1      21.238  12.638   3.028  0.00  0.00    -0.175 OA
HETATM   54 Fe   UNK N   1      20.344  13.129   4.597  0.00  0.00     0.000 Fe
HETATM   55  O   UNK N   1      21.773  14.046   5.169  0.00  0.00    -0.175 OA
HETATM   56  O   UNK N   1      18.966  12.083   3.923  0.00  0.00    -0.175 OA
HETATM   57  O   UNK N   1      19.464  13.632   6.253  0.00  0.00    -0.084 OA
HETATM   58  O   UNK N   1      21.018  11.640   5.395  0.00  0.00    -0.084 OA
HETATM   59  C   UNK N   1      21.674  14.414   6.315  0.00  0.00     0.175 C 
HETATM   60  C   UNK N   1      22.830  15.118   6.917  0.00  0.00     0.102 C 
HETATM   61  N   UNK N   1      20.515  14.136   6.985  0.00  0.00    -0.204 N 
HETATM   62  C   UNK N   1      20.319  14.567   8.378  0.00  0.00     0.161 C 
HETATM   63  C   UNK N   1      21.604  14.856   9.218  0.00  0.00     0.025 C 
HETATM   64  C   UNK N   1      22.304  13.571   9.706  0.00  0.00     0.036 C 
HETATM   65  C   UNK N   1      23.713  13.167   9.186  0.00  0.00     0.167 C 
HETATM   66  C   UNK N   1      23.715  12.024   8.165  0.00  0.00     0.240 C 
HETATM   67  N   UNK N   1      23.513  12.349   6.858  0.00  0.00    -0.346 N 
HETATM   68  O   UNK N   1      24.181  10.934   8.469  0.00  0.00    -0.271 OA
HETATM   69  C   UNK N   1      24.228  11.810   5.700  0.00  0.00     0.176 C 
HETATM   70  H   UNK N   1      22.813  13.016   6.672  0.00  0.00     0.163 HD
HETATM   71  C   UNK N   1      24.009  10.302   5.351  0.00  0.00     0.037 C 
HETATM   72  C   UNK N   1      24.073  12.773   4.510  0.00  0.00     0.241 C 
HETATM   73  C   UNK N   1      22.629   9.599   5.343  0.00  0.00     0.025 C 
HETATM   74  C   UNK N   1      21.669   9.743   4.131  0.00  0.00     0.161 C 
HETATM   75  N   UNK N   1      20.685  10.751   4.446  0.00  0.00    -0.204 N 
HETATM   76  C   UNK N   1      19.516  10.991   3.724  0.00  0.00     0.175 C 
HETATM   77  C   UNK N   1      19.045  10.091   2.628  0.00  0.00     0.102 C 
HETATM   78  N   UNK N   1      24.302  14.112   4.699  0.00  0.00    -0.346 N 
HETATM   79  O   UNK N   1      23.715  12.354   3.425  0.00  0.00    -0.271 OA
HETATM   80  H   UNK N   1      24.721  14.332   5.562  0.00  0.00     0.163 HD
BRANCH  65  81
HETATM   81  N   UNK N   1      24.515  12.791  10.341  0.00  0.00    -0.418 N 
HETATM   82  H   UNK N   1      25.493  12.522  10.234  0.00  0.00     0.150 HD
HETATM   83  H   UNK N   1      24.094  12.798  11.270  0.00  0.00     0.150 HD
ENDBRANCH  65  81
ENDBRANCH   1  45
TORSDOF 15
ENDMDL
MODEL 6
REMARK VINA RESULT:      -8.0      5.648     13.279
REMARK  15 active torsions:
REMARK  status: ('A' for Active; 'I' for Inactive)
REMARK    1  A    between atoms: C_23  and  C_16 
REMARK    2  A    between atoms: O_52  and  C_16 
REMARK    3  A    between atoms: C_20  and  N_39 
REMARK    4  A    between atoms: C_22  and  C_32 
REMARK    5  A    between atoms: C_33  and  C_23 
REMARK    6  A    between atoms: C_23  and  N_43 
REMARK    7  A    between atoms: C_26  and  C_25 
REMARK    8  A    between atoms: C_35  and  C_25 
REMARK    9  A    between atoms: C_25  and  N_46 
REMARK   10  A    between atoms: C_29  and  C_26 
REMARK   11  A    between atoms: C_26  and  O_53 
REMARK   12  A    between atoms: C_27  and  O_54 
REMARK   13  A    between atoms: C_28  and  O_55 
REMARK       I    between atoms: N_43  and  C_32 
REMARK       I    between atoms: N_46  and  C_33 
REMARK   14  A    between atoms: C_34  and  N_48 
REMARK   15  A    between atoms: O_60  and  C_35 
REMARK       I    between atoms: N_40  and  C_36 
REMARK       I    between atoms: N_44  and  C_36 
ROOT
HETATM    1  C   UNK N   1      35.604  14.691   5.900  0.00  0.00     0.241 C 
HETATM    2  N   UNK N   1      34.528  15.340   6.330  0.00  0.00    -0.344 N 
HETATM    3  O   UNK N   1      35.540  14.206   4.782  0.00  0.00    -0.271 OA
HETATM    4  H   UNK N   1      33.822  15.569   5.683  0.00  0.00     0.163 HD
ENDROOT
BRANCH   2   5
HETATM    5  C   UNK N   1      34.363  15.707   7.662  0.00  0.00     0.200 C 
BRANCH   5   6
HETATM    6  C   UNK N   1      34.639  17.239   7.837  0.00  0.00     0.199 C 
BRANCH   6   7
HETATM    7  O   UNK N   1      34.187  18.073   6.813  0.00  0.00    -0.398 OA
HETATM    8  H   UNK N   1      33.361  18.570   6.914  0.00  0.00     0.209 HD
ENDBRANCH   6   7
ENDBRANCH   5   6
BRANCH   5   9
HETATM    9  C   UNK N   1      33.424  14.642   8.384  0.00  0.00     0.243 C 
HETATM   10  N   UNK N   1      32.081  14.650   8.270  0.00  0.00    -0.343 N 
HETATM   11  H   UNK N   1      31.525  13.949   8.681  0.00  0.00     0.163 HD
HETATM   12  O   UNK N   1      33.872  13.951   9.249  0.00  0.00    -0.271 OA
BRANCH  10  13
HETATM   13  C   UNK N   1      31.513  15.701   7.543  0.00  0.00     0.212 C 
BRANCH  13  14
HETATM   14  C   UNK N   1      30.938  15.321   6.159  0.00  0.00     0.167 C 
BRANCH  14  15
HETATM   15  C   UNK N   1      31.894  15.880   5.039  0.00  0.00     0.111 C 
HETATM   16  C   UNK N   1      32.045  14.996   3.857  0.00  0.00     0.165 C 
HETATM   17  C   UNK N   1      30.803  15.289   3.008  0.00  0.00     0.176 C 
HETATM   18  C   UNK N   1      30.041  16.564   3.522  0.00  0.00     0.165 C 
HETATM   19  S   UNK N   1      31.350  17.495   4.342  0.00  0.00    -0.135 SA
BRANCH  16  20
HETATM   20  O   UNK N   1      33.192  15.414   3.166  0.00  0.00    -0.392 OA
HETATM   21  H   UNK N   1      34.162  15.411   3.144  0.00  0.00     0.210 HD
ENDBRANCH  16  20
BRANCH  17  22
HETATM   22  O   UNK N   1      30.017  14.148   2.869  0.00  0.00    -0.391 OA
HETATM   23  H   UNK N   1      29.634  13.313   3.180  0.00  0.00     0.210 HD
ENDBRANCH  17  22
BRANCH  18  24
HETATM   24  N   UNK N   1      28.838  16.376   4.400  0.00  0.00    -0.194 NA
HETATM   25  C   UNK N   1      27.818  15.825   3.703  0.00  0.00     0.075 C 
HETATM   26  C   UNK N   1      26.722  16.606   3.376  0.00  0.00     0.061 C 
HETATM   27  C   UNK N   1      26.751  17.975   3.708  0.00  0.00     0.115 C 
HETATM   28  N   UNK N   1      25.678  18.630   3.434  0.00  0.00    -0.295 N 
HETATM   29  N   UNK N   1      27.818  18.459   4.448  0.00  0.00    -0.294 N 
HETATM   30  C   UNK N   1      25.180  19.809   3.884  0.00  0.00     0.319 C 
ATOM     31  HN  UNK N   1      25.084  18.173   2.742  1.00  0.00     0.172 HD
HETATM   32  N   UNK N   1      23.978  20.195   3.438  0.00  0.00    -0.352 N 
HETATM   33  O   UNK N   1      25.672  20.414   4.816  0.00  0.00    -0.247 OA
HETATM   34  H   UNK N   1      23.258  20.515   4.029  0.00  0.00     0.160 HD
HETATM   35  H   UNK N   1      23.805  20.157   2.470  0.00  0.00     0.160 HD
HETATM   36  C   UNK N   1      28.062  19.811   4.933  0.00  0.00     0.162 C 
HETATM   37  C   UNK N   1      28.444  17.492   5.121  0.00  0.00     0.309 C 
HETATM   38  O   UNK N   1      27.896  17.280   6.195  0.00  0.00    -0.253 OA
ENDBRANCH  18  24
ENDBRANCH  14  15
BRANCH  14  39
HETATM   39  O   UNK N   1      30.933  13.926   6.026  0.00  0.00    -0.392 OA
HETATM   40  H   UNK N   1      30.687  13.383   5.261  0.00  0.00     0.210 HD
ENDBRANCH  14  39
ENDBRANCH  13  14
BRANCH  13  41
HETATM   41  C   UNK N   1      31.126  16.786   8.545  0.00  0.00     0.166 C 
HETATM   42  O   UNK N   1      31.421  17.960   8.332  0.00  0.00    -0.648 OA
BRANCH  41  43
HETATM   43  O   UNK N   1      30.805  16.438   9.813  0.00  0.00    -0.775 OA
HETATM   44  H   UNK N   1      31.367  16.163  10.511  0.00  0.00     0.167 HD
ENDBRANCH  41  43
ENDBRANCH  13  41
ENDBRANCH  10  13
ENDBRANCH   5   9
ENDBRANCH   2   5
BRANCH   1  45
HETATM   45  C   UNK N   1      36.935  14.590   6.687  0.00  0.00     0.176 C 
HETATM   46  C   UNK N   1      38.251  14.025   5.977  0.00  0.00     0.037 C 
HETATM   47  C   UNK N   1      39.343  14.547   4.934  0.00  0.00     0.025 C 
HETATM   48  C   UNK N   1      40.032  13.443   4.040  0.00  0.00     0.161 C 
HETATM   49  N   UNK N   1      39.948  12.205   4.761  0.00  0.00    -0.204 N 
HETATM   50  C   UNK N   1      40.366  12.270   6.063  0.00  0.00     0.175 C 
HETATM   51  O   UNK N   1      38.985  11.310   4.397  0.00  0.00    -0.084 OA
HETATM   52  C   UNK N   1      41.422  13.237   6.521  0.00  0.00     0.102 C 
HETATM   53  O   UNK N   1      39.650  11.750   6.882  0.00  0.00    -0.175 OA
HETATM   54 Fe   UNK N   1      38.449  10.570   6.066  0.00  0.00     0.000 Fe
HETATM   55  O   UNK N   1      37.096  11.718   6.314  0.00  0.00    -0.175 OA
HETATM   56  O   UNK N   1      39.920   9.444   5.941  0.00  0.00    -0.175 OA
HETATM   57  O   UNK N   1      37.163   9.360   5.256  0.00  0.00    -0.084 OA
HETATM   58  O   UNK N   1      38.104   9.856   7.703  0.00  0.00    -0.084 OA
HETATM   59  C   UNK N   1      36.015  11.240   6.062  0.00  0.00     0.175 C 
HETATM   60  C   UNK N   1      34.816  12.077   6.302  0.00  0.00     0.102 C 
HETATM   61  N   UNK N   1      35.969   9.956   5.594  0.00  0.00    -0.204 N 
HETATM   62  C   UNK N   1      34.690   9.316   5.252  0.00  0.00     0.161 C 
HETATM   63  C   UNK N   1      33.403   9.905   5.913  0.00  0.00     0.025 C 
HETATM   64  C   UNK N   1      33.234   9.474   7.385  0.00  0.00     0.036 C 
HETATM   65  C   UNK N   1      33.325  10.504   8.547  0.00  0.00     0.167 C 
HETATM   66  C   UNK N   1      34.633  10.455   9.344  0.00  0.00     0.240 C 
HETATM   67  N   UNK N   1      35.691  11.164   8.859  0.00  0.00    -0.346 N 
HETATM   68  O   UNK N   1      34.629  10.060  10.503  0.00  0.00    -0.271 OA
HETATM   69  C   UNK N   1      36.627  11.982   9.633  0.00  0.00     0.176 C 
HETATM   70  H   UNK N   1      35.842  11.121   7.888  0.00  0.00     0.163 HD
HETATM   71  C   UNK N   1      37.584  11.245  10.625  0.00  0.00     0.037 C 
HETATM   72  C   UNK N   1      37.321  12.987   8.698  0.00  0.00     0.241 C 
HETATM   73  C   UNK N   1      38.358   9.947  10.290  0.00  0.00     0.025 C 
HETATM   74  C   UNK N   1      39.677   9.994   9.472  0.00  0.00     0.161 C 
HETATM   75  N   UNK N   1      39.374   9.670   8.098  0.00  0.00    -0.204 N 
HETATM   76  C   UNK N   1      40.313   9.369   7.113  0.00  0.00     0.175 C 
HETATM   77  C   UNK N   1      41.762   9.158   7.418  0.00  0.00     0.102 C 
HETATM   78  N   UNK N   1      36.561  13.728   7.829  0.00  0.00    -0.346 N 
HETATM   79  O   UNK N   1      38.533  13.094   8.704  0.00  0.00    -0.271 OA
HETATM   80  H   UNK N   1      35.592  13.676   7.996  0.00  0.00     0.163 HD
BRANCH  65  81
HETATM   81  N   UNK N   1      32.201  10.260   9.438  0.00  0.00    -0.418 N 
HETATM   82  H   UNK N   1      31.609   9.437   9.320  0.00  0.00     0.150 HD
HETATM   83  H   UNK N   1      32.003  10.918  10.191  0.00  0.00     0.150 HD
ENDBRANCH  65  81
ENDBRANCH   1  45
TORSDOF 15
ENDMDL
MODEL 7
REMARK VINA RESULT:      -8.0      2.087      3.186
REMARK  15 active torsions:
REMARK  status: ('A' for Active; 'I' for Inactive)
REMARK    1  A    between atoms: C_23  and  C_16 
REMARK    2  A    between atoms: O_52  and  C_16 
REMARK    3  A    between atoms: C_20  and  N_39 
REMARK    4  A    between atoms: C_22  and  C_32 
REMARK    5  A    between atoms: C_33  and  C_23 
REMARK    6  A    between atoms: C_23  and  N_43 
REMARK    7  A    between atoms: C_26  and  C_25 
REMARK    8  A    between atoms: C_35  and  C_25 
REMARK    9  A    between atoms: C_25  and  N_46 
REMARK   10  A    between atoms: C_29  and  C_26 
REMARK   11  A    between atoms: C_26  and  O_53 
REMARK   12  A    between atoms: C_27  and  O_54 
REMARK   13  A    between atoms: C_28  and  O_55 
REMARK       I    between atoms: N_43  and  C_32 
REMARK       I    between atoms: N_46  and  C_33 
REMARK   14  A    between atoms: C_34  and  N_48 
REMARK   15  A    between atoms: O_60  and  C_35 
REMARK       I    between atoms: N_40  and  C_36 
REMARK       I    between atoms: N_44  and  C_36 
ROOT
HETATM    1  C   UNK N   1      25.485  15.409   6.427  0.00  0.00     0.241 C 
HETATM    2  N   UNK N   1      26.752  15.469   6.823  0.00  0.00    -0.344 N 
HETATM    3  O   UNK N   1      24.680  14.975   7.234  0.00  0.00    -0.271 OA
HETATM    4  H   UNK N   1      26.956  15.354   7.780  0.00  0.00     0.163 HD
ENDROOT
BRANCH   2   5
HETATM    5  C   UNK N   1      27.800  15.689   5.935  0.00  0.00     0.200 C 
BRANCH   5   6
HETATM    6  C   UNK N   1      28.010  14.431   5.026  0.00  0.00     0.199 C 
BRANCH   6   7
HETATM    7  O   UNK N   1      28.138  14.668   3.656  0.00  0.00    -0.398 OA
HETATM    8  H   UNK N   1      28.930  15.103   3.307  0.00  0.00     0.209 HD
ENDBRANCH   6   7
ENDBRANCH   5   6
BRANCH   5   9
HETATM    9  C   UNK N   1      28.007  17.257   5.751  0.00  0.00     0.243 C 
HETATM   10  N   UNK N   1      28.722  18.011   6.612  0.00  0.00    -0.343 N 
HETATM   11  H   UNK N   1      28.883  18.968   6.449  0.00  0.00     0.163 HD
HETATM   12  O   UNK N   1      27.326  17.857   4.974  0.00  0.00    -0.271 OA
BRANCH  10  13
HETATM   13  C   UNK N   1      29.224  17.368   7.749  0.00  0.00     0.212 C 
BRANCH  13  14
HETATM   14  C   UNK N   1      30.743  17.081   7.737  0.00  0.00     0.167 C 
BRANCH  14  15
HETATM   15  C   UNK N   1      31.141  16.496   6.329  0.00  0.00     0.111 C 
HETATM   16  C   UNK N   1      32.083  17.339   5.554  0.00  0.00     0.165 C 
HETATM   17  C   UNK N   1      33.459  16.996   6.136  0.00  0.00     0.176 C 
HETATM   18  C   UNK N   1      33.393  15.729   7.063  0.00  0.00     0.165 C 
HETATM   19  S   UNK N   1      31.957  14.849   6.418  0.00  0.00    -0.135 SA
BRANCH  16  20
HETATM   20  O   UNK N   1      32.023  16.913   4.218  0.00  0.00    -0.392 OA
HETATM   21  H   UNK N   1      31.472  16.512   3.527  0.00  0.00     0.210 HD
ENDBRANCH  16  20
BRANCH  17  22
HETATM   22  O   UNK N   1      34.047  18.119   6.712  0.00  0.00    -0.391 OA
HETATM   23  H   UNK N   1      34.209  19.072   6.791  0.00  0.00     0.210 HD
ENDBRANCH  17  22
BRANCH  18  24
HETATM   24  N   UNK N   1      33.319  15.930   8.549  0.00  0.00    -0.194 NA
HETATM   25  C   UNK N   1      34.320  16.734   8.974  0.00  0.00     0.075 C 
HETATM   26  C   UNK N   1      35.368  16.185   9.697  0.00  0.00     0.061 C 
HETATM   27  C   UNK N   1      35.392  14.789   9.886  0.00  0.00     0.115 C 
HETATM   28  N   UNK N   1      36.355  14.351  10.618  0.00  0.00    -0.295 N 
HETATM   29  N   UNK N   1      34.314  14.038   9.446  0.00  0.00    -0.294 N 
HETATM   30  C   UNK N   1      36.536  13.194  11.305  0.00  0.00     0.319 C 
ATOM     31  HN  UNK N   1      37.137  15.001  10.699  1.00  0.00     0.172 HD
HETATM   32  N   UNK N   1      37.649  13.067  12.038  0.00  0.00    -0.352 N 
HETATM   33  O   UNK N   1      35.652  12.373  11.447  0.00  0.00    -0.247 OA
HETATM   34  H   UNK N   1      37.649  12.755  12.973  0.00  0.00     0.160 HD
HETATM   35  H   UNK N   1      38.511  13.296  11.623  0.00  0.00     0.160 HD
HETATM   36  C   UNK N   1      34.093  12.601   9.548  0.00  0.00     0.162 C 
HETATM   37  C   UNK N   1      33.211  14.774   9.305  0.00  0.00     0.309 C 
HETATM   38  O   UNK N   1      32.609  14.871  10.366  0.00  0.00    -0.253 OA
ENDBRANCH  18  24
ENDBRANCH  14  15
BRANCH  14  39
HETATM   39  O   UNK N   1      31.444  18.286   7.886  0.00  0.00    -0.392 OA
HETATM   40  H   UNK N   1      32.278  18.565   7.479  0.00  0.00     0.210 HD
ENDBRANCH  14  39
ENDBRANCH  13  14
BRANCH  13  41
HETATM   41  C   UNK N   1      28.246  17.640   8.889  0.00  0.00     0.166 C 
HETATM   42  O   UNK N   1      27.734  16.705   9.502  0.00  0.00    -0.648 OA
BRANCH  41  43
HETATM   43  O   UNK N   1      27.656  18.854   8.987  0.00  0.00    -0.775 OA
HETATM   44  H   UNK N   1      26.755  19.084   8.869  0.00  0.00     0.167 HD
ENDBRANCH  41  43
ENDBRANCH  13  41
ENDBRANCH  10  13
ENDBRANCH   5   9
ENDBRANCH   2   5
BRANCH   1  45
HETATM   45  C   UNK N   1      24.973  15.928   5.059  0.00  0.00     0.176 C 
HETATM   46  C   UNK N   1      23.452  16.388   4.889  0.00  0.00     0.037 C 
HETATM   47  C   UNK N   1      22.553  17.650   5.280  0.00  0.00     0.025 C 
HETATM   48  C   UNK N   1      21.017  17.363   5.509  0.00  0.00     0.161 C 
HETATM   49  N   UNK N   1      20.693  16.183   4.759  0.00  0.00    -0.204 N 
HETATM   50  C   UNK N   1      21.113  16.198   3.456  0.00  0.00     0.175 C 
HETATM   51  O   UNK N   1      20.591  15.000   5.429  0.00  0.00    -0.084 OA
HETATM   52  C   UNK N   1      21.246  17.473   2.669  0.00  0.00     0.102 C 
HETATM   53  O   UNK N   1      21.664  15.202   3.059  0.00  0.00    -0.175 OA
HETATM   54 Fe   UNK N   1      21.320  13.753   4.190  0.00  0.00     0.000 Fe
HETATM   55  O   UNK N   1      22.981  13.829   4.856  0.00  0.00    -0.175 OA
HETATM   56  O   UNK N   1      19.657  13.735   3.363  0.00  0.00    -0.175 OA
HETATM   57  O   UNK N   1      21.013  12.230   5.355  0.00  0.00    -0.084 OA
HETATM   58  O   UNK N   1      21.927  12.643   2.883  0.00  0.00    -0.084 OA
HETATM   59  C   UNK N   1      23.256  12.884   5.556  0.00  0.00     0.175 C 
HETATM   60  C   UNK N   1      24.632  12.805   6.102  0.00  0.00     0.102 C 
HETATM   61  N   UNK N   1      22.291  11.943   5.779  0.00  0.00    -0.204 N 
HETATM   62  C   UNK N   1      22.551  10.773   6.634  0.00  0.00     0.161 C 
HETATM   63  C   UNK N   1      24.044  10.359   6.833  0.00  0.00     0.025 C 
HETATM   64  C   UNK N   1      24.626   9.609   5.617  0.00  0.00     0.036 C 
HETATM   65  C   UNK N   1      25.757  10.229   4.746  0.00  0.00     0.167 C 
HETATM   66  C   UNK N   1      25.295  10.774   3.391  0.00  0.00     0.240 C 
HETATM   67  N   UNK N   1      24.805  12.045   3.357  0.00  0.00    -0.346 N 
HETATM   68  O   UNK N   1      25.638  10.214   2.358  0.00  0.00    -0.271 OA
HETATM   69  C   UNK N   1      25.082  13.065   2.345  0.00  0.00     0.176 C 
HETATM   70  H   UNK N   1      24.202  12.304   4.090  0.00  0.00     0.163 HD
HETATM   71  C   UNK N   1      24.531  12.822   0.902  0.00  0.00     0.037 C 
HETATM   72  C   UNK N   1      24.775  14.456   2.924  0.00  0.00     0.241 C 
HETATM   73  C   UNK N   1      23.104  12.312   0.587  0.00  0.00     0.025 C 
HETATM   74  C   UNK N   1      21.891  13.282   0.600  0.00  0.00     0.161 C 
HETATM   75  N   UNK N   1      21.208  13.142   1.864  0.00  0.00    -0.204 N 
HETATM   76  C   UNK N   1      19.945  13.653   2.161  0.00  0.00     0.175 C 
HETATM   77  C   UNK N   1      19.054  14.254   1.122  0.00  0.00     0.102 C 
HETATM   78  N   UNK N   1      25.265  14.789   4.161  0.00  0.00    -0.346 N 
HETATM   79  O   UNK N   1      24.074  15.237   2.307  0.00  0.00    -0.271 OA
HETATM   80  H   UNK N   1      25.931  14.156   4.515  0.00  0.00     0.163 HD
BRANCH  65  81
HETATM   81  N   UNK N   1      26.766   9.201   4.542  0.00  0.00    -0.418 N 
HETATM   82  H   UNK N   1      26.608   8.243   4.855  0.00  0.00     0.150 HD
HETATM   83  H   UNK N   1      27.643   9.441   4.080  0.00  0.00     0.150 HD
ENDBRANCH  65  81
ENDBRANCH   1  45
TORSDOF 15
ENDMDL
MODEL 8
REMARK VINA RESULT:      -7.9      5.003     12.689
REMARK  15 active torsions:
REMARK  status: ('A' for Active; 'I' for Inactive)
REMARK    1  A    between atoms: C_23  and  C_16 
REMARK    2  A    between atoms: O_52  and  C_16 
REMARK    3  A    between atoms: C_20  and  N_39 
REMARK    4  A    between atoms: C_22  and  C_32 
REMARK    5  A    between atoms: C_33  and  C_23 
REMARK    6  A    between atoms: C_23  and  N_43 
REMARK    7  A    between atoms: C_26  and  C_25 
REMARK    8  A    between atoms: C_35  and  C_25 
REMARK    9  A    between atoms: C_25  and  N_46 
REMARK   10  A    between atoms: C_29  and  C_26 
REMARK   11  A    between atoms: C_26  and  O_53 
REMARK   12  A    between atoms: C_27  and  O_54 
REMARK   13  A    between atoms: C_28  and  O_55 
REMARK       I    between atoms: N_43  and  C_32 
REMARK       I    between atoms: N_46  and  C_33 
REMARK   14  A    between atoms: C_34  and  N_48 
REMARK   15  A    between atoms: O_60  and  C_35 
REMARK       I    between atoms: N_40  and  C_36 
REMARK       I    between atoms: N_44  and  C_36 
ROOT
HETATM    1  C   UNK N   1      34.350  15.533   9.614  0.00  0.00     0.241 C 
HETATM    2  N   UNK N   1      33.479  16.461   9.234  0.00  0.00    -0.344 N 
HETATM    3  O   UNK N   1      35.532  15.821   9.519  0.00  0.00    -0.271 OA
HETATM    4  H   UNK N   1      33.799  17.380   9.086  0.00  0.00     0.163 HD
ENDROOT
BRANCH   2   5
HETATM    5  C   UNK N   1      32.130  16.180   9.039  0.00  0.00     0.200 C 
BRANCH   5   6
HETATM    6  C   UNK N   1      31.625  15.177  10.130  0.00  0.00     0.199 C 
BRANCH   6   7
HETATM    7  O   UNK N   1      30.537  15.592  10.900  0.00  0.00    -0.398 OA
HETATM    8  H   UNK N   1      30.655  15.804  11.839  0.00  0.00     0.209 HD
ENDBRANCH   6   7
ENDBRANCH   5   6
BRANCH   5   9
HETATM    9  C   UNK N   1      31.467  17.363   8.204  0.00  0.00     0.243 C 
HETATM   10  N   UNK N   1      31.559  17.457   6.862  0.00  0.00    -0.343 N 
HETATM   11  H   UNK N   1      31.095  18.167   6.361  0.00  0.00     0.163 HD
HETATM   12  O   UNK N   1      31.076  18.340   8.770  0.00  0.00    -0.271 OA
BRANCH  10  13
HETATM   13  C   UNK N   1      32.345  16.499   6.213  0.00  0.00     0.212 C 
BRANCH  13  14
HETATM   14  C   UNK N   1      31.604  15.218   5.766  0.00  0.00     0.167 C 
BRANCH  14  15
HETATM   15  C   UNK N   1      31.789  15.038   4.212  0.00  0.00     0.111 C 
HETATM   16  C   UNK N   1      31.521  13.667   3.712  0.00  0.00     0.165 C 
HETATM   17  C   UNK N   1      29.994  13.607   3.583  0.00  0.00     0.176 C 
HETATM   18  C   UNK N   1      29.348  15.033   3.721  0.00  0.00     0.165 C 
HETATM   19  S   UNK N   1      30.691  16.120   3.206  0.00  0.00    -0.135 SA
BRANCH  16  20
HETATM   20  O   UNK N   1      32.101  13.565   2.439  0.00  0.00    -0.392 OA
HETATM   21  H   UNK N   1      32.074  13.119   1.578  0.00  0.00     0.210 HD
ENDBRANCH  16  20
BRANCH  17  22
HETATM   22  O   UNK N   1      29.464  12.634   4.427  0.00  0.00    -0.391 OA
HETATM   23  H   UNK N   1      29.475  11.778   4.882  0.00  0.00     0.210 HD
ENDBRANCH  17  22
BRANCH  18  24
HETATM   24  N   UNK N   1      28.766  15.432   5.046  0.00  0.00    -0.194 NA
HETATM   25  C   UNK N   1      27.715  14.643   5.365  0.00  0.00     0.075 C 
HETATM   26  C   UNK N   1      26.434  15.167   5.311  0.00  0.00     0.061 C 
HETATM   27  C   UNK N   1      26.268  16.484   4.841  0.00  0.00     0.115 C 
HETATM   28  N   UNK N   1      25.062  16.933   4.876  0.00  0.00    -0.295 N 
HETATM   29  N   UNK N   1      27.396  17.240   4.561  0.00  0.00    -0.294 N 
HETATM   30  C   UNK N   1      24.547  18.188   4.855  0.00  0.00     0.319 C 
ATOM     31  HN  UNK N   1      24.354  16.201   4.931  1.00  0.00     0.172 HD
HETATM   32  N   UNK N   1      23.220  18.324   4.971  0.00  0.00    -0.352 N 
HETATM   33  O   UNK N   1      25.240  19.181   4.944  0.00  0.00    -0.247 OA
HETATM   34  H   UNK N   1      22.793  18.958   5.593  0.00  0.00     0.160 HD
HETATM   35  H   UNK N   1      22.641  17.763   4.407  0.00  0.00     0.160 HD
HETATM   36  C   UNK N   1      27.487  18.616   4.095  0.00  0.00     0.162 C 
HETATM   37  C   UNK N   1      28.478  16.779   5.191  0.00  0.00     0.309 C 
HETATM   38  O   UNK N   1      28.552  17.233   6.326  0.00  0.00    -0.253 OA
ENDBRANCH  18  24
ENDBRANCH  14  15
BRANCH  14  39
HETATM   39  O   UNK N   1      32.195  14.103   6.375  0.00  0.00    -0.392 OA
HETATM   40  H   UNK N   1      32.900  13.525   6.044  0.00  0.00     0.210 HD
ENDBRANCH  14  39
ENDBRANCH  13  14
BRANCH  13  41
HETATM   41  C   UNK N   1      33.561  17.225   5.642  0.00  0.00     0.166 C 
HETATM   42  O   UNK N   1      34.562  17.396   6.335  0.00  0.00    -0.648 OA
BRANCH  41  43
HETATM   43  O   UNK N   1      33.420  17.998   4.541  0.00  0.00    -0.775 OA
HETATM   44  H   UNK N   1      34.069  18.270   3.922  0.00  0.00     0.167 HD
ENDBRANCH  41  43
ENDBRANCH  13  41
ENDBRANCH  10  13
ENDBRANCH   5   9
ENDBRANCH   2   5
BRANCH   1  45
HETATM   45  C   UNK N   1      33.957  14.169  10.234  0.00  0.00     0.176 C 
HETATM   46  C   UNK N   1      34.931  13.446  11.275  0.00  0.00     0.037 C 
HETATM   47  C   UNK N   1      35.339  13.603  12.812  0.00  0.00     0.025 C 
HETATM   48  C   UNK N   1      36.793  13.122  13.197  0.00  0.00     0.161 C 
HETATM   49  N   UNK N   1      37.182  12.141  12.224  0.00  0.00    -0.204 N 
HETATM   50  C   UNK N   1      36.261  11.152  12.005  0.00  0.00     0.175 C 
HETATM   51  O   UNK N   1      38.023  12.525  11.221  0.00  0.00    -0.084 OA
HETATM   52  C   UNK N   1      35.309  10.690  13.074  0.00  0.00     0.102 C 
HETATM   53  O   UNK N   1      36.028  10.882  10.854  0.00  0.00    -0.175 OA
HETATM   54 Fe   UNK N   1      37.372  11.538   9.730  0.00  0.00     0.000 Fe
HETATM   55  O   UNK N   1      36.294  12.843   9.142  0.00  0.00    -0.175 OA
HETATM   56  O   UNK N   1      38.356  10.098  10.364  0.00  0.00    -0.175 OA
HETATM   57  O   UNK N   1      38.728  12.231   8.524  0.00  0.00    -0.084 OA
HETATM   58  O   UNK N   1      36.736  10.460   8.410  0.00  0.00    -0.084 OA
HETATM   59  C   UNK N   1      36.750  13.448   8.200  0.00  0.00     0.175 C 
HETATM   60  C   UNK N   1      35.911  14.502   7.584  0.00  0.00     0.102 C 
HETATM   61  N   UNK N   1      37.995  13.105   7.753  0.00  0.00    -0.204 N 
HETATM   62  C   UNK N   1      38.619  13.808   6.621  0.00  0.00     0.161 C 
HETATM   63  C   UNK N   1      37.662  14.553   5.636  0.00  0.00     0.025 C 
HETATM   64  C   UNK N   1      36.946  13.598   4.658  0.00  0.00     0.036 C 
HETATM   65  C   UNK N   1      35.407  13.384   4.715  0.00  0.00     0.167 C 
HETATM   66  C   UNK N   1      34.968  12.055   5.340  0.00  0.00     0.240 C 
HETATM   67  N   UNK N   1      34.854  12.006   6.696  0.00  0.00    -0.346 N 
HETATM   68  O   UNK N   1      34.452  11.192   4.641  0.00  0.00    -0.271 OA
HETATM   69  C   UNK N   1      33.785  11.364   7.463  0.00  0.00     0.176 C 
HETATM   70  H   UNK N   1      35.564  12.447   7.215  0.00  0.00     0.163 HD
HETATM   71  C   UNK N   1      33.687   9.805   7.405  0.00  0.00     0.037 C 
HETATM   72  C   UNK N   1      33.746  11.958   8.882  0.00  0.00     0.241 C 
HETATM   73  C   UNK N   1      34.899   8.849   7.518  0.00  0.00     0.025 C 
HETATM   74  C   UNK N   1      35.507   8.493   8.902  0.00  0.00     0.161 C 
HETATM   75  N   UNK N   1      36.672   9.319   9.115  0.00  0.00    -0.204 N 
HETATM   76  C   UNK N   1      37.624   9.129  10.115  0.00  0.00     0.175 C 
HETATM   77  C   UNK N   1      37.650   7.913  10.984  0.00  0.00     0.102 C 
HETATM   78  N   UNK N   1      33.768  13.320   9.038  0.00  0.00    -0.346 N 
HETATM   79  O   UNK N   1      33.736  11.225   9.853  0.00  0.00    -0.271 OA
HETATM   80  H   UNK N   1      33.634  13.824   8.203  0.00  0.00     0.163 HD
BRANCH  65  81
HETATM   81  N   UNK N   1      34.902  13.474   3.353  0.00  0.00    -0.418 N 
HETATM   82  H   UNK N   1      35.440  13.944   2.626  0.00  0.00     0.150 HD
HETATM   83  H   UNK N   1      33.998  13.061   3.123  0.00  0.00     0.150 HD
ENDBRANCH  65  81
ENDBRANCH   1  45
TORSDOF 15
ENDMDL
MODEL 9
REMARK VINA RESULT:      -7.9      1.977      2.869
REMARK  15 active torsions:
REMARK  status: ('A' for Active; 'I' for Inactive)
REMARK    1  A    between atoms: C_23  and  C_16 
REMARK    2  A    between atoms: O_52  and  C_16 
REMARK    3  A    between atoms: C_20  and  N_39 
REMARK    4  A    between atoms: C_22  and  C_32 
REMARK    5  A    between atoms: C_33  and  C_23 
REMARK    6  A    between atoms: C_23  and  N_43 
REMARK    7  A    between atoms: C_26  and  C_25 
REMARK    8  A    between atoms: C_35  and  C_25 
REMARK    9  A    between atoms: C_25  and  N_46 
REMARK   10  A    between atoms: C_29  and  C_26 
REMARK   11  A    between atoms: C_26  and  O_53 
REMARK   12  A    between atoms: C_27  and  O_54 
REMARK   13  A    between atoms: C_28  and  O_55 
REMARK       I    between atoms: N_43  and  C_32 
REMARK       I    between atoms: N_46  and  C_33 
REMARK   14  A    between atoms: C_34  and  N_48 
REMARK   15  A    between atoms: O_60  and  C_35 
REMARK       I    between atoms: N_40  and  C_36 
REMARK       I    between atoms: N_44  and  C_36 
ROOT
HETATM    1  C   UNK N   1      24.000  16.465   5.136  0.00  0.00     0.241 C 
HETATM    2  N   UNK N   1      25.220  16.839   5.507  0.00  0.00    -0.344 N 
HETATM    3  O   UNK N   1      23.066  16.992   5.717  0.00  0.00    -0.271 OA
HETATM    4  H   UNK N   1      25.319  17.640   6.073  0.00  0.00     0.163 HD
ENDROOT
BRANCH   2   5
HETATM    5  C   UNK N   1      26.361  16.141   5.126  0.00  0.00     0.200 C 
BRANCH   5   6
HETATM    6  C   UNK N   1      26.414  14.755   5.853  0.00  0.00     0.199 C 
BRANCH   6   7
HETATM    7  O   UNK N   1      26.930  13.686   5.117  0.00  0.00    -0.398 OA
HETATM    8  H   UNK N   1      26.631  13.529   4.208  0.00  0.00     0.209 HD
ENDBRANCH   6   7
ENDBRANCH   5   6
BRANCH   5   9
HETATM    9  C   UNK N   1      26.865  16.695   3.720  0.00  0.00     0.243 C 
HETATM   10  N   UNK N   1      27.962  17.467   3.584  0.00  0.00    -0.343 N 
HETATM   11  H   UNK N   1      28.286  17.752   2.699  0.00  0.00     0.163 HD
HETATM   12  O   UNK N   1      26.142  16.644   2.771  0.00  0.00    -0.271 OA
BRANCH  10  13
HETATM   13  C   UNK N   1      28.618  17.846   4.760  0.00  0.00     0.212 C 
BRANCH  13  14
HETATM   14  C   UNK N   1      30.063  17.318   4.918  0.00  0.00     0.167 C 
BRANCH  14  15
HETATM   15  C   UNK N   1      30.134  15.850   4.351  0.00  0.00     0.111 C 
HETATM   16  C   UNK N   1      31.130  15.652   3.270  0.00  0.00     0.165 C 
HETATM   17  C   UNK N   1      32.460  15.478   4.012  0.00  0.00     0.176 C 
HETATM   18  C   UNK N   1      32.236  15.274   5.555  0.00  0.00     0.165 C 
HETATM   19  S   UNK N   1      30.569  14.589   5.618  0.00  0.00    -0.135 SA
BRANCH  16  20
HETATM   20  O   UNK N   1      30.802  14.456   2.613  0.00  0.00    -0.392 OA
HETATM   21  H   UNK N   1      30.303  13.625   2.659  0.00  0.00     0.210 HD
ENDBRANCH  16  20
BRANCH  17  22
HETATM   22  O   UNK N   1      33.352  16.492   3.674  0.00  0.00    -0.391 OA
HETATM   23  H   UNK N   1      33.642  17.416   3.631  0.00  0.00     0.210 HD
ENDBRANCH  17  22
BRANCH  18  24
HETATM   24  N   UNK N   1      32.403  16.455   6.466  0.00  0.00    -0.194 NA
HETATM   25  C   UNK N   1      33.603  17.046   6.270  0.00  0.00     0.075 C 
HETATM   26  C   UNK N   1      34.590  16.912   7.233  0.00  0.00     0.061 C 
HETATM   27  C   UNK N   1      34.332  16.088   8.346  0.00  0.00     0.115 C 
HETATM   28  N   UNK N   1      35.263  16.057   9.234  0.00  0.00    -0.295 N 
HETATM   29  N   UNK N   1      33.067  15.541   8.491  0.00  0.00    -0.294 N 
HETATM   30  C   UNK N   1      35.274  15.699  10.543  0.00  0.00     0.319 C 
ATOM     31  HN  UNK N   1      36.172  16.360   8.885  1.00  0.00     0.172 HD
HETATM   32  N   UNK N   1      36.418  15.843  11.223  0.00  0.00    -0.352 N 
HETATM   33  O   UNK N   1      34.258  15.458  11.163  0.00  0.00    -0.247 OA
HETATM   34  H   UNK N   1      36.472  16.276  12.107  0.00  0.00     0.160 HD
HETATM   35  H   UNK N   1      37.248  15.499  10.821  0.00  0.00     0.160 HD
HETATM   36  C   UNK N   1      32.552  14.689   9.555  0.00  0.00     0.162 C 
HETATM   37  C   UNK N   1      32.144  16.217   7.806  0.00  0.00     0.309 C 
HETATM   38  O   UNK N   1      31.723  17.165   8.456  0.00  0.00    -0.253 OA
ENDBRANCH  18  24
ENDBRANCH  14  15
BRANCH  14  39
HETATM   39  O   UNK N   1      30.929  18.095   4.136  0.00  0.00    -0.392 OA
HETATM   40  H   UNK N   1      31.452  18.871   4.387  0.00  0.00     0.210 HD
ENDBRANCH  14  39
ENDBRANCH  13  14
BRANCH  13  41
HETATM   41  C   UNK N   1      27.934  19.111   5.272  0.00  0.00     0.166 C 
HETATM   42  O   UNK N   1      28.185  20.201   4.761  0.00  0.00    -0.648 OA
BRANCH  41  43
HETATM   43  O   UNK N   1      27.356  19.108   6.495  0.00  0.00    -0.775 OA
HETATM   44  H   UNK N   1      26.670  19.653   6.826  0.00  0.00     0.167 HD
ENDBRANCH  41  43
ENDBRANCH  13  41
ENDBRANCH  10  13
ENDBRANCH   5   9
ENDBRANCH   2   5
BRANCH   1  45
HETATM   45  C   UNK N   1      23.705  15.482   3.976  0.00  0.00     0.176 C 
HETATM   46  C   UNK N   1      22.288  15.510   3.236  0.00  0.00     0.037 C 
HETATM   47  C   UNK N   1      21.541  16.420   2.156  0.00  0.00     0.025 C 
HETATM   48  C   UNK N   1      19.965  16.454   2.249  0.00  0.00     0.161 C 
HETATM   49  N   UNK N   1      19.555  15.235   2.886  0.00  0.00    -0.204 N 
HETATM   50  C   UNK N   1      20.100  14.098   2.354  0.00  0.00     0.175 C 
HETATM   51  O   UNK N   1      19.221  15.278   4.207  0.00  0.00    -0.084 OA
HETATM   52  C   UNK N   1      20.488  13.995   0.904  0.00  0.00     0.102 C 
HETATM   53  O   UNK N   1      20.542  13.297   3.139  0.00  0.00    -0.175 OA
HETATM   54 Fe   UNK N   1      19.886  13.619   4.861  0.00  0.00     0.000 Fe
HETATM   55  O   UNK N   1      21.468  14.283   5.379  0.00  0.00    -0.175 OA
HETATM   56  O   UNK N   1      18.328  12.841   4.218  0.00  0.00    -0.175 OA
HETATM   57  O   UNK N   1      19.254  13.939   6.670  0.00  0.00    -0.084 OA
HETATM   58  O   UNK N   1      20.458  11.962   5.343  0.00  0.00    -0.084 OA
HETATM   59  C   UNK N   1      21.536  14.472   6.571  0.00  0.00     0.175 C 
HETATM   60  C   UNK N   1      22.826  14.950   7.122  0.00  0.00     0.102 C 
HETATM   61  N   UNK N   1      20.431  14.211   7.331  0.00  0.00    -0.204 N 
HETATM   62  C   UNK N   1      20.438  14.432   8.786  0.00  0.00     0.161 C 
HETATM   63  C   UNK N   1      21.831  14.451   9.493  0.00  0.00     0.025 C 
HETATM   64  C   UNK N   1      22.419  13.040   9.697  0.00  0.00     0.036 C 
HETATM   65  C   UNK N   1      23.706  12.582   8.953  0.00  0.00     0.167 C 
HETATM   66  C   UNK N   1      23.463  11.623   7.783  0.00  0.00     0.240 C 
HETATM   67  N   UNK N   1      23.162  12.171   6.572  0.00  0.00    -0.346 N 
HETATM   68  O   UNK N   1      23.824  10.456   7.864  0.00  0.00    -0.271 OA
HETATM   69  C   UNK N   1      23.679  11.753   5.268  0.00  0.00     0.176 C 
HETATM   70  H   UNK N   1      22.531  12.926   6.575  0.00  0.00     0.163 HD
HETATM   71  C   UNK N   1      23.245  10.350   4.733  0.00  0.00     0.037 C 
HETATM   72  C   UNK N   1      23.515  12.904   4.261  0.00  0.00     0.241 C 
HETATM   73  C   UNK N   1      21.799   9.802   4.793  0.00  0.00     0.025 C 
HETATM   74  C   UNK N   1      20.739  10.234   3.743  0.00  0.00     0.161 C 
HETATM   75  N   UNK N   1      19.922  11.274   4.322  0.00  0.00    -0.204 N 
HETATM   76  C   UNK N   1      18.720  11.744   3.794  0.00  0.00     0.175 C 
HETATM   77  C   UNK N   1      18.030  11.082   2.645  0.00  0.00     0.102 C 
HETATM   78  N   UNK N   1      23.921  14.166   4.614  0.00  0.00    -0.346 N 
HETATM   79  O   UNK N   1      22.995  12.703   3.179  0.00  0.00    -0.271 OA
HETATM   80  H   UNK N   1      24.453  14.201   5.442  0.00  0.00     0.163 HD
BRANCH  65  81
HETATM   81  N   UNK N   1      24.576  11.948   9.932  0.00  0.00    -0.418 N 
HETATM   82  H   UNK N   1      24.941  11.008   9.776  0.00  0.00     0.150 HD
HETATM   83  H   UNK N   1      24.825  12.449  10.784  0.00  0.00     0.150 HD
ENDBRANCH  65  81
ENDBRANCH   1  45
TORSDOF 15
ENDMDL
