MODEL 1
REMARK VINA RESULT:      -7.7      0.000      0.000
REMARK  21 active torsions:
REMARK  status: ('A' for Active; 'I' for Inactive)
REMARK    1  A    between atoms: C_10  and  C_4 
REMARK    2  A    between atoms: C_11  and  C_4 
REMARK    3  A    between atoms: C_13  and  C_6 
REMARK    4  A    between atoms: O_46  and  C_6 
REMARK    5  A    between atoms: C_14  and  C_7 
REMARK    6  A    between atoms: O_47  and  C_7 
REMARK    7  A    between atoms: C_21  and  C_12 
REMARK    8  A    between atoms: C_16  and  O_37 
REMARK    9  A    between atoms: C_17  and  O_38 
REMARK   10  A    between atoms: C_18  and  O_39 
REMARK   11  A    between atoms: C_19  and  O_40 
REMARK   12  A    between atoms: N_25  and  C_20 
REMARK   13  A    between atoms: N_26  and  C_21 
REMARK   14  A    between atoms: O_41  and  C_21 
REMARK   15  A    between atoms: C_23  and  N_34 
REMARK   16  A    between atoms: C_24  and  N_35 
REMARK   17  A    between atoms: P_51  and  O_43 
REMARK   18  A    between atoms: P_51  and  O_46 
REMARK   19  A    between atoms: P_52  and  O_47 
REMARK   20  A    between atoms: P_51  and  O_50 
REMARK   21  A    between atoms: P_52  and  O_50 
ROOT
HETATM    1  O   UNK N   1      24.086  14.566   4.375  0.00  0.00    -0.631 OA
HETATM    2  P   UNK N   1      24.412  16.082   4.330  0.00  0.00     0.402 P 
ENDROOT
BRANCH   2   3
HETATM    3  O   UNK N   1      24.541  16.523   6.002  0.00  0.00    -0.307 OA
HETATM    4  H   UNK N   1      24.525  17.214   6.683  0.00  0.00     0.222 HD
ENDBRANCH   2   3
BRANCH   2   5
HETATM    5  O   UNK N   1      23.048  16.933   3.624  0.00  0.00    -0.294 OA
BRANCH   5   6
HETATM    6  C   UNK N   1      22.604  17.948   4.489  0.00  0.00     0.215 C 
BRANCH   6   7
HETATM    7  C   UNK N   1      21.316  17.587   5.244  0.00  0.00     0.180 C 
HETATM    8  C   UNK N   1      20.722  16.222   4.907  0.00  0.00     0.182 C 
HETATM    9  C   UNK N   1      19.725  16.150   6.021  0.00  0.00     0.198 C 
HETATM   10  C   UNK N   1      20.568  16.683   7.187  0.00  0.00     0.259 C 
HETATM   11  O   UNK N   1      21.540  17.571   6.636  0.00  0.00    -0.353 OA
BRANCH   8  12
HETATM   12  O   UNK N   1      20.109  16.190   3.652  0.00  0.00    -0.390 OA
HETATM   13  H   UNK N   1      20.495  16.290   2.767  0.00  0.00     0.210 HD
ENDBRANCH   8  12
BRANCH   9  14
HETATM   14  O   UNK N   1      19.178  14.879   6.212  0.00  0.00    -0.388 OA
HETATM   15  H   UNK N   1      18.676  14.250   5.672  0.00  0.00     0.210 HD
ENDBRANCH   9  14
BRANCH  10  16
HETATM   16  N   UNK N   1      21.210  15.653   8.032  0.00  0.00    -0.336 N 
HETATM   17  C   UNK N   1      20.586  15.176   9.147  0.00  0.00     0.094 A 
HETATM   18  C   UNK N   1      21.035  14.009   9.772  0.00  0.00     0.026 A 
HETATM   19  C   UNK N   1      22.122  13.305   9.243  0.00  0.00    -0.034 A 
HETATM   20  C   UNK N   1      22.796  13.831   8.111  0.00  0.00     0.036 A 
HETATM   21  C   UNK N   1      22.308  15.012   7.534  0.00  0.00     0.109 A 
BRANCH  19  22
HETATM   22  C   UNK N   1      22.466  11.951   9.808  0.00  0.00     0.117 C 
BRANCH  22  23
HETATM   23  C   UNK N   1      23.449  11.954  10.930  0.00  0.00     0.127 C 
HETATM   24  C   UNK N   1      22.967  11.905  12.337  0.00  0.00     0.091 C 
HETATM   25  O   UNK N   1      24.635  12.123  10.699  0.00  0.00    -0.298 OA
ENDBRANCH  22  23
ENDBRANCH  19  22
BRANCH  20  26
HETATM   26  C   UNK N   1      23.937  13.151   7.431  0.00  0.00     0.145 C 
BRANCH  26  27
HETATM   27  N   UNK N   1      25.144  13.292   7.840  0.00  0.00    -0.379 N 
HETATM   28  H   UNK N   1      25.794  13.793   7.295  0.00  0.00     0.158 HD
ATOM     29  HN  UNK N   1      25.431  12.885   8.731  1.00  0.00     0.158 HD
ENDBRANCH  26  27
BRANCH  26  30
HETATM   30  O   UNK N   1      23.698  12.348   6.375  0.00  0.00    -0.346 OA
HETATM   31  H   UNK N   1      24.408  12.050   5.841  0.00  0.00     0.219 HD
ENDBRANCH  26  30
ENDBRANCH  20  26
ENDBRANCH  10  16
ENDBRANCH   6   7
ENDBRANCH   5   6
ENDBRANCH   2   5
BRANCH   2  32
HETATM   32  O   UNK N   1      25.983  16.218   3.583  0.00  0.00    -0.188 OA
BRANCH  32  33
HETATM   33  P   UNK N   1      26.838  17.565   4.274  0.00  0.00     0.417 P 
HETATM   34  O   UNK N   1      28.259  17.499   3.654  0.00  0.00    -0.624 OA
HETATM   35  O   UNK N   1      26.161  19.068   3.717  0.00  0.00    -0.624 OA
BRANCH  33  36
HETATM   36  O   UNK N   1      27.064  17.505   6.003  0.00  0.00    -0.287 OA
BRANCH  36  37
HETATM   37  C   UNK N   1      27.569  18.767   6.319  0.00  0.00     0.216 C 
BRANCH  37  38
HETATM   38  C   UNK N   1      28.798  18.712   7.222  0.00  0.00     0.180 C 
HETATM   39  C   UNK N   1      28.526  18.945   8.708  0.00  0.00     0.182 C 
HETATM   40  C   UNK N   1      29.793  18.356   9.248  0.00  0.00     0.198 C 
HETATM   41  C   UNK N   1      29.858  17.079   8.405  0.00  0.00     0.262 C 
HETATM   42  O   UNK N   1      29.401  17.438   7.110  0.00  0.00    -0.353 OA
BRANCH  39  43
HETATM   43  O   UNK N   1      27.435  18.181   9.143  0.00  0.00    -0.390 OA
HETATM   44  H   UNK N   1      26.546  17.996   9.483  0.00  0.00     0.210 HD
ENDBRANCH  39  43
BRANCH  40  45
HETATM   45  O   UNK N   1      29.727  18.114  10.623  0.00  0.00    -0.388 OA
HETATM   46  H   UNK N   1      29.312  18.657  11.312  0.00  0.00     0.210 HD
ENDBRANCH  40  45
BRANCH  41  47
HETATM   47  N   UNK N   1      31.203  16.502   8.304  0.00  0.00    -0.297 N 
HETATM   48  C   UNK N   1      31.758  15.672   9.227  0.00  0.00     0.188 A 
HETATM   49  N   UNK N   1      33.004  15.268   8.852  0.00  0.00    -0.346 N 
HETATM   50  C   UNK N   1      33.208  15.875   7.672  0.00  0.00     0.122 A 
ATOM     51  HN  UNK N   1      33.636  14.643   9.353  1.00  0.00     0.167 HD
HETATM   52  C   UNK N   1      34.302  15.819   6.825  0.00  0.00     0.131 A 
HETATM   53  C   UNK N   1      32.134  16.621   7.344  0.00  0.00     0.142 A 
HETATM   54  N   UNK N   1      34.254  16.545   5.670  0.00  0.00    -0.337 N 
HETATM   55  C   UNK N   1      33.154  17.307   5.358  0.00  0.00     0.183 A 
ATOM     56  HN  UNK N   1      35.048  16.521   5.029  1.00  0.00     0.168 HD
HETATM   57  N   UNK N   1      32.077  17.346   6.203  0.00  0.00    -0.336 N 
ATOM     58  HN  UNK N   1      31.253  17.904   5.977  1.00  0.00     0.168 HD
BRANCH  52  59
HETATM   59  N   UNK N   1      35.428  15.032   7.137  0.00  0.00    -0.383 N 
HETATM   60  H   UNK N   1      36.077  14.785   6.439  0.00  0.00     0.157 HD
HETATM   61  H   UNK N   1      35.566  14.725   8.062  0.00  0.00     0.157 HD
ENDBRANCH  52  59
ENDBRANCH  41  47
ENDBRANCH  37  38
ENDBRANCH  36  37
ENDBRANCH  33  36
ENDBRANCH  32  33
ENDBRANCH   2  32
TORSDOF 21
ENDMDL
MODEL 2
REMARK VINA RESULT:      -7.6      2.812      8.869
REMARK  21 active torsions:
REMARK  status: ('A' for Active; 'I' for Inactive)
REMARK    1  A    between atoms: C_10  and  C_4 
REMARK    2  A    between atoms: C_11  and  C_4 
REMARK    3  A    between atoms: C_13  and  C_6 
REMARK    4  A    between atoms: O_46  and  C_6 
REMARK    5  A    between atoms: C_14  and  C_7 
REMARK    6  A    between atoms: O_47  and  C_7 
REMARK    7  A    between atoms: C_21  and  C_12 
REMARK    8  A    between atoms: C_16  and  O_37 
REMARK    9  A    between atoms: C_17  and  O_38 
REMARK   10  A    between atoms: C_18  and  O_39 
REMARK   11  A    between atoms: C_19  and  O_40 
REMARK   12  A    between atoms: N_25  and  C_20 
REMARK   13  A    between atoms: N_26  and  C_21 
REMARK   14  A    between atoms: O_41  and  C_21 
REMARK   15  A    between atoms: C_23  and  N_34 
REMARK   16  A    between atoms: C_24  and  N_35 
REMARK   17  A    between atoms: P_51  and  O_43 
REMARK   18  A    between atoms: P_51  and  O_46 
REMARK   19  A    between atoms: P_52  and  O_47 
REMARK   20  A    between atoms: P_51  and  O_50 
REMARK   21  A    between atoms: P_52  and  O_50 
ROOT
HETATM    1  O   UNK N   1      21.443  18.624   6.849  0.00  0.00    -0.631 OA
HETATM    2  P   UNK N   1      21.685  17.489   5.820  0.00  0.00     0.402 P 
ENDROOT
BRANCH   2   3
HETATM    3  O   UNK N   1      22.237  16.165   6.793  0.00  0.00    -0.307 OA
HETATM    4  H   UNK N   1      22.627  15.849   7.623  0.00  0.00     0.222 HD
ENDBRANCH   2   3
BRANCH   2   5
HETATM    5  O   UNK N   1      22.980  17.974   4.737  0.00  0.00    -0.294 OA
BRANCH   5   6
HETATM    6  C   UNK N   1      24.125  17.191   4.963  0.00  0.00     0.215 C 
BRANCH   6   7
HETATM    7  C   UNK N   1      25.358  17.673   4.184  0.00  0.00     0.180 C 
HETATM    8  C   UNK N   1      25.946  19.002   4.649  0.00  0.00     0.182 C 
HETATM    9  C   UNK N   1      27.228  18.942   3.879  0.00  0.00     0.198 C 
HETATM   10  C   UNK N   1      27.617  17.474   4.098  0.00  0.00     0.259 C 
HETATM   11  O   UNK N   1      26.409  16.738   4.282  0.00  0.00    -0.353 OA
BRANCH   8  12
HETATM   12  O   UNK N   1      25.165  20.102   4.281  0.00  0.00    -0.390 OA
HETATM   13  H   UNK N   1      25.146  21.001   4.643  0.00  0.00     0.210 HD
ENDBRANCH   8  12
BRANCH   9  14
HETATM   14  O   UNK N   1      28.180  19.878   4.288  0.00  0.00    -0.388 OA
HETATM   15  H   UNK N   1      28.701  20.574   3.857  0.00  0.00     0.210 HD
ENDBRANCH   9  14
BRANCH  10  16
HETATM   16  N   UNK N   1      28.563  17.224   5.207  0.00  0.00    -0.336 N 
HETATM   17  C   UNK N   1      29.897  17.070   4.965  0.00  0.00     0.094 A 
HETATM   18  C   UNK N   1      30.824  17.137   6.009  0.00  0.00     0.026 A 
HETATM   19  C   UNK N   1      30.389  17.383   7.316  0.00  0.00    -0.034 A 
HETATM   20  C   UNK N   1      28.998  17.495   7.568  0.00  0.00     0.036 A 
HETATM   21  C   UNK N   1      28.115  17.408   6.483  0.00  0.00     0.109 A 
BRANCH  19  22
HETATM   22  C   UNK N   1      31.411  17.648   8.393  0.00  0.00     0.117 C 
BRANCH  22  23
HETATM   23  C   UNK N   1      32.538  16.674   8.464  0.00  0.00     0.127 C 
HETATM   24  C   UNK N   1      32.307  15.314   9.023  0.00  0.00     0.091 C 
HETATM   25  O   UNK N   1      33.670  17.033   8.185  0.00  0.00    -0.298 OA
ENDBRANCH  22  23
ENDBRANCH  19  22
BRANCH  20  26
HETATM   26  C   UNK N   1      28.416  17.802   8.909  0.00  0.00     0.145 C 
BRANCH  26  27
HETATM   27  N   UNK N   1      27.598  18.774   9.080  0.00  0.00    -0.379 N 
HETATM   28  H   UNK N   1      27.353  19.058   9.990  0.00  0.00     0.158 HD
ATOM     29  HN  UNK N   1      27.201  19.254   8.271  1.00  0.00     0.158 HD
ENDBRANCH  26  27
BRANCH  26  30
HETATM   30  O   UNK N   1      28.736  17.027   9.964  0.00  0.00    -0.346 OA
HETATM   31  H   UNK N   1      29.391  17.309  10.572  0.00  0.00     0.219 HD
ENDBRANCH  26  30
ENDBRANCH  20  26
ENDBRANCH  10  16
ENDBRANCH   6   7
ENDBRANCH   5   6
ENDBRANCH   2   5
BRANCH   2  32
HETATM   32  O   UNK N   1      20.120  17.095   5.157  0.00  0.00    -0.188 OA
BRANCH  32  33
HETATM   33  P   UNK N   1      19.746  15.433   5.506  0.00  0.00     0.417 P 
HETATM   34  O   UNK N   1      19.669  15.355   7.054  0.00  0.00    -0.624 OA
HETATM   35  O   UNK N   1      18.148  15.036   4.944  0.00  0.00    -0.624 OA
BRANCH  33  36
HETATM   36  O   UNK N   1      20.958  14.273   5.024  0.00  0.00    -0.287 OA
BRANCH  36  37
HETATM   37  C   UNK N   1      20.582  13.103   5.686  0.00  0.00     0.216 C 
BRANCH  37  38
HETATM   38  C   UNK N   1      21.737  12.436   6.428  0.00  0.00     0.180 C 
HETATM   39  C   UNK N   1      23.066  12.406   5.674  0.00  0.00     0.182 C 
HETATM   40  C   UNK N   1      23.966  12.152   6.845  0.00  0.00     0.198 C 
HETATM   41  C   UNK N   1      23.375  13.154   7.840  0.00  0.00     0.262 C 
HETATM   42  O   UNK N   1      21.969  13.125   7.641  0.00  0.00    -0.353 OA
BRANCH  39  43
HETATM   43  O   UNK N   1      23.359  13.661   5.125  0.00  0.00    -0.390 OA
HETATM   44  H   UNK N   1      23.308  14.405   4.505  0.00  0.00     0.210 HD
ENDBRANCH  39  43
BRANCH  40  45
HETATM   45  O   UNK N   1      25.311  12.389   6.546  0.00  0.00    -0.388 OA
HETATM   46  H   UNK N   1      26.085  11.854   6.783  0.00  0.00     0.210 HD
ENDBRANCH  40  45
BRANCH  41  47
HETATM   47  N   UNK N   1      23.675  12.845   9.243  0.00  0.00    -0.297 N 
HETATM   48  C   UNK N   1      24.919  12.878   9.791  0.00  0.00     0.188 A 
HETATM   49  N   UNK N   1      24.888  12.577  11.119  0.00  0.00    -0.346 N 
HETATM   50  C   UNK N   1      23.590  12.353  11.379  0.00  0.00     0.122 A 
ATOM     51  HN  UNK N   1      25.673  12.535  11.769  1.00  0.00     0.167 HD
HETATM   52  C   UNK N   1      22.970  12.018  12.570  0.00  0.00     0.131 A 
HETATM   53  C   UNK N   1      22.861  12.506  10.255  0.00  0.00     0.142 A 
HETATM   54  N   UNK N   1      21.616  11.842  12.560  0.00  0.00    -0.337 N 
HETATM   55  C   UNK N   1      20.892  11.993  11.402  0.00  0.00     0.183 A 
ATOM     56  HN  UNK N   1      21.135  11.595  13.425  1.00  0.00     0.168 HD
HETATM   57  N   UNK N   1      21.519  12.332  10.233  0.00  0.00    -0.336 N 
ATOM     58  HN  UNK N   1      20.989  12.452   9.369  1.00  0.00     0.168 HD
BRANCH  52  59
HETATM   59  N   UNK N   1      23.708  11.871  13.761  0.00  0.00    -0.383 N 
HETATM   60  H   UNK N   1      23.475  12.392  14.564  0.00  0.00     0.157 HD
HETATM   61  H   UNK N   1      24.464  11.242  13.791  0.00  0.00     0.157 HD
ENDBRANCH  52  59
ENDBRANCH  41  47
ENDBRANCH  37  38
ENDBRANCH  36  37
ENDBRANCH  33  36
ENDBRANCH  32  33
ENDBRANCH   2  32
TORSDOF 21
ENDMDL
MODEL 3
REMARK VINA RESULT:      -7.5      7.485     12.671
REMARK  21 active torsions:
REMARK  status: ('A' for Active; 'I' for Inactive)
REMARK    1  A    between atoms: C_10  and  C_4 
REMARK    2  A    between atoms: C_11  and  C_4 
REMARK    3  A    between atoms: C_13  and  C_6 
REMARK    4  A    between atoms: O_46  and  C_6 
REMARK    5  A    between atoms: C_14  and  C_7 
REMARK    6  A    between atoms: O_47  and  C_7 
REMARK    7  A    between atoms: C_21  and  C_12 
REMARK    8  A    between atoms: C_16  and  O_37 
REMARK    9  A    between atoms: C_17  and  O_38 
REMARK   10  A    between atoms: C_18  and  O_39 
REMARK   11  A    between atoms: C_19  and  O_40 
REMARK   12  A    between atoms: N_25  and  C_20 
REMARK   13  A    between atoms: N_26  and  C_21 
REMARK   14  A    between atoms: O_41  and  C_21 
REMARK   15  A    between atoms: C_23  and  N_34 
REMARK   16  A    between atoms: C_24  and  N_35 
REMARK   17  A    between atoms: P_51  and  O_43 
REMARK   18  A    between atoms: P_51  and  O_46 
REMARK   19  A    between atoms: P_52  and  O_47 
REMARK   20  A    between atoms: P_51  and  O_50 
REMARK   21  A    between atoms: P_52  and  O_50 
ROOT
HETATM    1  O   UNK N   1      35.412  14.957   9.057  0.00  0.00    -0.631 OA
HETATM    2  P   UNK N   1      35.596  15.859  10.306  0.00  0.00     0.402 P 
ENDROOT
BRANCH   2   3
HETATM    3  O   UNK N   1      37.285  15.711  10.672  0.00  0.00    -0.307 OA
HETATM    4  H   UNK N   1      38.199  15.629  10.358  0.00  0.00     0.222 HD
ENDBRANCH   2   3
BRANCH   2   5
HETATM    5  O   UNK N   1      34.668  15.182  11.634  0.00  0.00    -0.294 OA
BRANCH   5   6
HETATM    6  C   UNK N   1      35.528  14.719  12.646  0.00  0.00     0.215 C 
BRANCH   6   7
HETATM    7  C   UNK N   1      35.501  13.193  12.819  0.00  0.00     0.180 C 
HETATM    8  C   UNK N   1      36.768  12.580  13.408  0.00  0.00     0.182 C 
HETATM    9  C   UNK N   1      36.229  11.210  13.679  0.00  0.00     0.198 C 
HETATM   10  C   UNK N   1      34.852  11.562  14.257  0.00  0.00     0.259 C 
HETATM   11  O   UNK N   1      34.455  12.806  13.682  0.00  0.00    -0.353 OA
BRANCH   8  12
HETATM   12  O   UNK N   1      37.832  12.555  12.501  0.00  0.00    -0.390 OA
HETATM   13  H   UNK N   1      38.488  11.860  12.331  0.00  0.00     0.210 HD
ENDBRANCH   8  12
BRANCH   9  14
HETATM   14  O   UNK N   1      37.042  10.434  14.506  0.00  0.00    -0.388 OA
HETATM   15  H   UNK N   1      36.905   9.855  15.272  0.00  0.00     0.210 HD
ENDBRANCH   9  14
BRANCH  10  16
HETATM   16  N   UNK N   1      34.774  11.611  15.733  0.00  0.00    -0.336 N 
HETATM   17  C   UNK N   1      34.811  10.465  16.472  0.00  0.00     0.094 A 
HETATM   18  C   UNK N   1      35.041  10.513  17.850  0.00  0.00     0.026 A 
HETATM   19  C   UNK N   1      35.257  11.742  18.482  0.00  0.00    -0.034 A 
HETATM   20  C   UNK N   1      35.169  12.933  17.716  0.00  0.00     0.036 A 
HETATM   21  C   UNK N   1      34.924  12.824  16.340  0.00  0.00     0.109 A 
BRANCH  19  22
HETATM   22  C   UNK N   1      35.698  11.761  19.923  0.00  0.00     0.117 C 
BRANCH  22  23
HETATM   23  C   UNK N   1      36.275  10.486  20.436  0.00  0.00     0.127 C 
HETATM   24  C   UNK N   1      35.488   9.642  21.376  0.00  0.00     0.091 C 
HETATM   25  O   UNK N   1      37.435  10.200  20.188  0.00  0.00    -0.298 OA
ENDBRANCH  22  23
ENDBRANCH  19  22
BRANCH  20  26
HETATM   26  C   UNK N   1      35.423  14.298  18.266  0.00  0.00     0.145 C 
BRANCH  26  27
HETATM   27  N   UNK N   1      36.307  15.074  17.756  0.00  0.00    -0.379 N 
HETATM   28  H   UNK N   1      36.214  15.382  16.825  0.00  0.00     0.158 HD
ATOM     29  HN  UNK N   1      37.106  15.373  18.315  1.00  0.00     0.158 HD
ENDBRANCH  26  27
BRANCH  26  30
HETATM   30  O   UNK N   1      34.692  14.740  19.309  0.00  0.00    -0.346 OA
HETATM   31  H   UNK N   1      34.860  15.587  19.673  0.00  0.00     0.219 HD
ENDBRANCH  26  30
ENDBRANCH  20  26
ENDBRANCH  10  16
ENDBRANCH   6   7
ENDBRANCH   5   6
ENDBRANCH   2   5
BRANCH   2  32
HETATM   32  O   UNK N   1      35.269  17.489   9.779  0.00  0.00    -0.188 OA
BRANCH  32  33
HETATM   33  P   UNK N   1      34.102  17.458   8.491  0.00  0.00     0.417 P 
HETATM   34  O   UNK N   1      33.540  18.903   8.423  0.00  0.00    -0.624 OA
HETATM   35  O   UNK N   1      34.888  17.197   6.961  0.00  0.00    -0.624 OA
BRANCH  33  36
HETATM   36  O   UNK N   1      32.725  16.417   8.749  0.00  0.00    -0.287 OA
BRANCH  36  37
HETATM   37  C   UNK N   1      31.984  16.544   7.573  0.00  0.00     0.216 C 
BRANCH  37  38
HETATM   38  C   UNK N   1      30.477  16.539   7.810  0.00  0.00     0.180 C 
HETATM   39  C   UNK N   1      30.017  17.213   9.102  0.00  0.00     0.182 C 
HETATM   40  C   UNK N   1      28.580  17.419   8.731  0.00  0.00     0.198 C 
HETATM   41  C   UNK N   1      28.760  17.949   7.306  0.00  0.00     0.262 C 
HETATM   42  O   UNK N   1      29.837  17.213   6.744  0.00  0.00    -0.353 OA
BRANCH  39  43
HETATM   43  O   UNK N   1      30.639  18.458   9.266  0.00  0.00    -0.390 OA
HETATM   44  H   UNK N   1      31.039  19.303   9.010  0.00  0.00     0.210 HD
ENDBRANCH  39  43
BRANCH  40  45
HETATM   45  O   UNK N   1      27.932  18.317   9.583  0.00  0.00    -0.388 OA
HETATM   46  H   UNK N   1      27.000  18.329   9.852  0.00  0.00     0.210 HD
ENDBRANCH  40  45
BRANCH  41  47
HETATM   47  N   UNK N   1      27.571  17.795   6.461  0.00  0.00    -0.297 N 
HETATM   48  C   UNK N   1      26.803  16.674   6.405  0.00  0.00     0.188 A 
HETATM   49  N   UNK N   1      25.747  16.832   5.559  0.00  0.00    -0.346 N 
HETATM   50  C   UNK N   1      25.884  18.082   5.087  0.00  0.00     0.122 A 
ATOM     51  HN  UNK N   1      25.017  16.155   5.336  1.00  0.00     0.167 HD
HETATM   52  C   UNK N   1      25.090  18.785   4.198  0.00  0.00     0.131 A 
HETATM   53  C   UNK N   1      26.979  18.660   5.620  0.00  0.00     0.142 A 
HETATM   54  N   UNK N   1      25.460  20.060   3.880  0.00  0.00    -0.337 N 
HETATM   55  C   UNK N   1      26.586  20.628   4.426  0.00  0.00     0.183 A 
ATOM     56  HN  UNK N   1      24.891  20.600   3.226  1.00  0.00     0.168 HD
HETATM   57  N   UNK N   1      27.356  19.922   5.311  0.00  0.00    -0.336 N 
ATOM     58  HN  UNK N   1      28.191  20.337   5.726  1.00  0.00     0.168 HD
BRANCH  52  59
HETATM   59  N   UNK N   1      23.930  18.210   3.642  0.00  0.00    -0.383 N 
HETATM   60  H   UNK N   1      23.833  18.119   2.667  0.00  0.00     0.157 HD
HETATM   61  H   UNK N   1      23.210  17.896   4.236  0.00  0.00     0.157 HD
ENDBRANCH  52  59
ENDBRANCH  41  47
ENDBRANCH  37  38
ENDBRANCH  36  37
ENDBRANCH  33  36
ENDBRANCH  32  33
ENDBRANCH   2  32
TORSDOF 21
ENDMDL
MODEL 4
REMARK VINA RESULT:      -7.4      5.663     10.657
REMARK  21 active torsions:
REMARK  status: ('A' for Active; 'I' for Inactive)
REMARK    1  A    between atoms: C_10  and  C_4 
REMARK    2  A    between atoms: C_11  and  C_4 
REMARK    3  A    between atoms: C_13  and  C_6 
REMARK    4  A    between atoms: O_46  and  C_6 
REMARK    5  A    between atoms: C_14  and  C_7 
REMARK    6  A    between atoms: O_47  and  C_7 
REMARK    7  A    between atoms: C_21  and  C_12 
REMARK    8  A    between atoms: C_16  and  O_37 
REMARK    9  A    between atoms: C_17  and  O_38 
REMARK   10  A    between atoms: C_18  and  O_39 
REMARK   11  A    between atoms: C_19  and  O_40 
REMARK   12  A    between atoms: N_25  and  C_20 
REMARK   13  A    between atoms: N_26  and  C_21 
REMARK   14  A    between atoms: O_41  and  C_21 
REMARK   15  A    between atoms: C_23  and  N_34 
REMARK   16  A    between atoms: C_24  and  N_35 
REMARK   17  A    between atoms: P_51  and  O_43 
REMARK   18  A    between atoms: P_51  and  O_46 
REMARK   19  A    between atoms: P_52  and  O_47 
REMARK   20  A    between atoms: P_51  and  O_50 
REMARK   21  A    between atoms: P_52  and  O_50 
ROOT
HETATM    1  O   UNK N   1      32.715  14.205   4.251  0.00  0.00    -0.631 OA
HETATM    2  P   UNK N   1      34.154  14.061   4.813  0.00  0.00     0.402 P 
ENDROOT
BRANCH   2   3
HETATM    3  O   UNK N   1      35.034  13.340   3.504  0.00  0.00    -0.307 OA
HETATM    4  H   UNK N   1      35.556  12.597   3.163  0.00  0.00     0.222 HD
ENDBRANCH   2   3
BRANCH   2   5
HETATM    5  O   UNK N   1      34.124  12.937   6.162  0.00  0.00    -0.294 OA
BRANCH   5   6
HETATM    6  C   UNK N   1      35.119  13.268   7.097  0.00  0.00     0.215 C 
BRANCH   6   7
HETATM    7  C   UNK N   1      34.688  14.359   8.087  0.00  0.00     0.180 C 
HETATM    8  C   UNK N   1      33.515  13.994   8.993  0.00  0.00     0.182 C 
HETATM    9  C   UNK N   1      33.625  15.142   9.947  0.00  0.00     0.198 C 
HETATM   10  C   UNK N   1      35.145  15.195  10.147  0.00  0.00     0.259 C 
HETATM   11  O   UNK N   1      35.748  14.695   8.955  0.00  0.00    -0.353 OA
BRANCH   8  12
HETATM   12  O   UNK N   1      32.290  13.986   8.320  0.00  0.00    -0.390 OA
HETATM   13  H   UNK N   1      31.398  14.180   8.649  0.00  0.00     0.210 HD
ENDBRANCH   8  12
BRANCH   9  14
HETATM   14  O   UNK N   1      32.874  14.983  11.114  0.00  0.00    -0.388 OA
HETATM   15  H   UNK N   1      33.061  14.738  12.033  0.00  0.00     0.210 HD
ENDBRANCH   9  14
BRANCH  10  16
HETATM   16  N   UNK N   1      35.656  14.483  11.338  0.00  0.00    -0.336 N 
HETATM   17  C   UNK N   1      36.172  15.173  12.396  0.00  0.00     0.094 A 
HETATM   18  C   UNK N   1      36.374  14.545  13.628  0.00  0.00     0.026 A 
HETATM   19  C   UNK N   1      36.025  13.200  13.793  0.00  0.00    -0.034 A 
HETATM   20  C   UNK N   1      35.532  12.476  12.678  0.00  0.00     0.036 A 
HETATM   21  C   UNK N   1      35.363  13.156  11.464  0.00  0.00     0.109 A 
BRANCH  19  22
HETATM   22  C   UNK N   1      36.062  12.595  15.173  0.00  0.00     0.117 C 
BRANCH  22  23
HETATM   23  C   UNK N   1      34.898  12.917  16.049  0.00  0.00     0.127 C 
HETATM   24  C   UNK N   1      35.124  13.319  17.464  0.00  0.00     0.091 C 
HETATM   25  O   UNK N   1      33.762  12.729  15.644  0.00  0.00    -0.298 OA
ENDBRANCH  22  23
ENDBRANCH  19  22
BRANCH  20  26
HETATM   26  C   UNK N   1      35.085  11.052  12.740  0.00  0.00     0.145 C 
BRANCH  26  27
HETATM   27  N   UNK N   1      33.889  10.738  13.079  0.00  0.00    -0.379 N 
HETATM   28  H   UNK N   1      33.226  11.444  13.258  0.00  0.00     0.158 HD
ATOM     29  HN  UNK N   1      33.625   9.756  13.164  1.00  0.00     0.158 HD
ENDBRANCH  26  27
BRANCH  26  30
HETATM   30  O   UNK N   1      35.947  10.071  12.410  0.00  0.00    -0.346 OA
HETATM   31  H   UNK N   1      36.834  10.105  12.710  0.00  0.00     0.219 HD
ENDBRANCH  26  30
ENDBRANCH  20  26
ENDBRANCH  10  16
ENDBRANCH   6   7
ENDBRANCH   5   6
ENDBRANCH   2   5
BRANCH   2  32
HETATM   32  O   UNK N   1      34.740  15.684   5.066  0.00  0.00    -0.188 OA
BRANCH  32  33
HETATM   33  P   UNK N   1      33.406  16.727   5.457  0.00  0.00     0.417 P 
HETATM   34  O   UNK N   1      34.031  17.891   6.271  0.00  0.00    -0.624 OA
HETATM   35  O   UNK N   1      32.764  17.464   4.018  0.00  0.00    -0.624 OA
BRANCH  33  36
HETATM   36  O   UNK N   1      32.179  16.027   6.483  0.00  0.00    -0.287 OA
BRANCH  36  37
HETATM   37  C   UNK N   1      31.715  17.108   7.235  0.00  0.00     0.216 C 
BRANCH  37  38
HETATM   38  C   UNK N   1      30.192  17.177   7.306  0.00  0.00     0.180 C 
HETATM   39  C   UNK N   1      29.604  17.178   8.717  0.00  0.00     0.182 C 
HETATM   40  C   UNK N   1      28.248  17.720   8.379  0.00  0.00     0.198 C 
HETATM   41  C   UNK N   1      28.658  18.856   7.438  0.00  0.00     0.262 C 
HETATM   42  O   UNK N   1      29.751  18.364   6.677  0.00  0.00    -0.353 OA
BRANCH  39  43
HETATM   43  O   UNK N   1      30.278  18.089   9.540  0.00  0.00    -0.390 OA
HETATM   44  H   UNK N   1      30.417  18.888  10.070  0.00  0.00     0.210 HD
ENDBRANCH  39  43
BRANCH  40  45
HETATM   45  O   UNK N   1      27.550  18.154   9.509  0.00  0.00    -0.388 OA
HETATM   46  H   UNK N   1      26.702  17.834   9.855  0.00  0.00     0.210 HD
ENDBRANCH  40  45
BRANCH  41  47
HETATM   47  N   UNK N   1      27.589  19.291   6.532  0.00  0.00    -0.297 N 
HETATM   48  C   UNK N   1      26.980  20.506   6.583  0.00  0.00     0.188 A 
HETATM   49  N   UNK N   1      26.050  20.641   5.598  0.00  0.00    -0.346 N 
HETATM   50  C   UNK N   1      26.094  19.473   4.937  0.00  0.00     0.122 A 
ATOM     51  HN  UNK N   1      25.455  21.448   5.405  1.00  0.00     0.167 HD
HETATM   52  C   UNK N   1      25.371  19.052   3.834  0.00  0.00     0.131 A 
HETATM   53  C   UNK N   1      27.011  18.659   5.498  0.00  0.00     0.142 A 
HETATM   54  N   UNK N   1      25.612  17.797   3.353  0.00  0.00    -0.337 N 
HETATM   55  C   UNK N   1      26.544  16.979   3.945  0.00  0.00     0.183 A 
ATOM     56  HN  UNK N   1      25.093  17.463   2.541  1.00  0.00     0.168 HD
HETATM   57  N   UNK N   1      27.256  17.414   5.030  0.00  0.00    -0.336 N 
ATOM     58  HN  UNK N   1      27.954  16.815   5.474  1.00  0.00     0.168 HD
BRANCH  52  59
HETATM   59  N   UNK N   1      24.422  19.891   3.219  0.00  0.00    -0.383 N 
HETATM   60  H   UNK N   1      24.137  20.728   3.651  0.00  0.00     0.157 HD
HETATM   61  H   UNK N   1      24.039  19.637   2.348  0.00  0.00     0.157 HD
ENDBRANCH  52  59
ENDBRANCH  41  47
ENDBRANCH  37  38
ENDBRANCH  36  37
ENDBRANCH  33  36
ENDBRANCH  32  33
ENDBRANCH   2  32
TORSDOF 21
ENDMDL
MODEL 5
REMARK VINA RESULT:      -7.4      5.593     10.717
REMARK  21 active torsions:
REMARK  status: ('A' for Active; 'I' for Inactive)
REMARK    1  A    between atoms: C_10  and  C_4 
REMARK    2  A    between atoms: C_11  and  C_4 
REMARK    3  A    between atoms: C_13  and  C_6 
REMARK    4  A    between atoms: O_46  and  C_6 
REMARK    5  A    between atoms: C_14  and  C_7 
REMARK    6  A    between atoms: O_47  and  C_7 
REMARK    7  A    between atoms: C_21  and  C_12 
REMARK    8  A    between atoms: C_16  and  O_37 
REMARK    9  A    between atoms: C_17  and  O_38 
REMARK   10  A    between atoms: C_18  and  O_39 
REMARK   11  A    between atoms: C_19  and  O_40 
REMARK   12  A    between atoms: N_25  and  C_20 
REMARK   13  A    between atoms: N_26  and  C_21 
REMARK   14  A    between atoms: O_41  and  C_21 
REMARK   15  A    between atoms: C_23  and  N_34 
REMARK   16  A    between atoms: C_24  and  N_35 
REMARK   17  A    between atoms: P_51  and  O_43 
REMARK   18  A    between atoms: P_51  and  O_46 
REMARK   19  A    between atoms: P_52  and  O_47 
REMARK   20  A    between atoms: P_51  and  O_50 
REMARK   21  A    between atoms: P_52  and  O_50 
ROOT
HETATM    1  O   UNK N   1      33.986  15.574   4.469  0.00  0.00    -0.631 OA
HETATM    2  P   UNK N   1      34.354  15.841   5.952  0.00  0.00     0.402 P 
ENDROOT
BRANCH   2   3
HETATM    3  O   UNK N   1      36.012  15.346   6.058  0.00  0.00    -0.307 OA
HETATM    4  H   UNK N   1      36.782  14.925   5.644  0.00  0.00     0.222 HD
ENDBRANCH   2   3
BRANCH   2   5
HETATM    5  O   UNK N   1      33.384  14.793   6.974  0.00  0.00    -0.294 OA
BRANCH   5   6
HETATM    6  C   UNK N   1      33.059  13.608   6.291  0.00  0.00     0.215 C 
BRANCH   6   7
HETATM    7  C   UNK N   1      33.648  12.347   6.941  0.00  0.00     0.180 C 
HETATM    8  C   UNK N   1      35.152  12.384   7.195  0.00  0.00     0.182 C 
HETATM    9  C   UNK N   1      35.244  11.171   8.067  0.00  0.00     0.198 C 
HETATM   10  C   UNK N   1      34.011  11.372   8.958  0.00  0.00     0.259 C 
HETATM   11  O   UNK N   1      33.055  12.110   8.199  0.00  0.00    -0.353 OA
BRANCH   8  12
HETATM   12  O   UNK N   1      35.905  12.248   6.026  0.00  0.00    -0.390 OA
HETATM   13  H   UNK N   1      36.840  12.445   5.861  0.00  0.00     0.210 HD
ENDBRANCH   8  12
BRANCH   9  14
HETATM   14  O   UNK N   1      36.458  11.052   8.746  0.00  0.00    -0.388 OA
HETATM   15  H   UNK N   1      36.865  10.395   9.333  0.00  0.00     0.210 HD
ENDBRANCH   9  14
BRANCH  10  16
HETATM   16  N   UNK N   1      34.267  12.019  10.262  0.00  0.00    -0.336 N 
HETATM   17  C   UNK N   1      34.406  11.273  11.397  0.00  0.00     0.094 A 
HETATM   18  C   UNK N   1      34.939  11.836  12.560  0.00  0.00     0.026 A 
HETATM   19  C   UNK N   1      35.356  13.171  12.563  0.00  0.00    -0.034 A 
HETATM   20  C   UNK N   1      35.166  13.954  11.396  0.00  0.00     0.036 A 
HETATM   21  C   UNK N   1      34.615  13.339  10.263  0.00  0.00     0.109 A 
BRANCH  19  22
HETATM   22  C   UNK N   1      36.108  13.703  13.757  0.00  0.00     0.117 C 
BRANCH  22  23
HETATM   23  C   UNK N   1      36.080  12.839  14.972  0.00  0.00     0.127 C 
HETATM   24  C   UNK N   1      35.002  13.017  15.982  0.00  0.00     0.091 C 
HETATM   25  O   UNK N   1      37.007  12.079  15.200  0.00  0.00    -0.298 OA
ENDBRANCH  22  23
ENDBRANCH  19  22
BRANCH  20  26
HETATM   26  C   UNK N   1      35.611  15.374  11.263  0.00  0.00     0.145 C 
BRANCH  26  27
HETATM   27  N   UNK N   1      36.804  15.673  10.904  0.00  0.00    -0.379 N 
HETATM   28  H   UNK N   1      37.389  14.984  10.512  0.00  0.00     0.158 HD
ATOM     29  HN  UNK N   1      37.148  16.626  11.023  1.00  0.00     0.158 HD
ENDBRANCH  26  27
BRANCH  26  30
HETATM   30  O   UNK N   1      34.734  16.369  11.502  0.00  0.00    -0.346 OA
HETATM   31  H   UNK N   1      33.948  16.434  10.996  0.00  0.00     0.219 HD
ENDBRANCH  26  30
ENDBRANCH  20  26
ENDBRANCH  10  16
ENDBRANCH   6   7
ENDBRANCH   5   6
ENDBRANCH   2   5
BRANCH   2  32
HETATM   32  O   UNK N   1      34.262  17.569   6.169  0.00  0.00    -0.188 OA
BRANCH  32  33
HETATM   33  P   UNK N   1      34.145  17.934   7.865  0.00  0.00     0.417 P 
HETATM   34  O   UNK N   1      34.622  16.646   8.587  0.00  0.00    -0.624 OA
HETATM   35  O   UNK N   1      35.295  19.163   8.307  0.00  0.00    -0.624 OA
BRANCH  33  36
HETATM   36  O   UNK N   1      32.533  18.248   8.457  0.00  0.00    -0.287 OA
BRANCH  36  37
HETATM   37  C   UNK N   1      32.122  17.020   8.978  0.00  0.00     0.216 C 
BRANCH  37  38
HETATM   38  C   UNK N   1      30.636  16.747   8.767  0.00  0.00     0.180 C 
HETATM   39  C   UNK N   1      29.696  17.471   9.729  0.00  0.00     0.182 C 
HETATM   40  C   UNK N   1      28.435  17.342   8.929  0.00  0.00     0.198 C 
HETATM   41  C   UNK N   1      28.975  17.717   7.546  0.00  0.00     0.262 C 
HETATM   42  O   UNK N   1      30.271  17.144   7.459  0.00  0.00    -0.353 OA
BRANCH  39  43
HETATM   43  O   UNK N   1      30.040  18.825   9.841  0.00  0.00    -0.390 OA
HETATM   44  H   UNK N   1      30.004  19.737  10.168  0.00  0.00     0.210 HD
ENDBRANCH  39  43
BRANCH  40  45
HETATM   45  O   UNK N   1      27.424  18.193   9.384  0.00  0.00    -0.388 OA
HETATM   46  H   UNK N   1      26.797  18.718   8.862  0.00  0.00     0.210 HD
ENDBRANCH  40  45
BRANCH  41  47
HETATM   47  N   UNK N   1      28.151  17.228   6.435  0.00  0.00    -0.297 N 
HETATM   48  C   UNK N   1      28.243  15.984   5.894  0.00  0.00     0.188 A 
HETATM   49  N   UNK N   1      27.330  15.801   4.900  0.00  0.00    -0.346 N 
HETATM   50  C   UNK N   1      26.672  16.970   4.835  0.00  0.00     0.122 A 
ATOM     51  HN  UNK N   1      27.180  14.966   4.334  1.00  0.00     0.167 HD
HETATM   52  C   UNK N   1      25.628  17.354   4.011  0.00  0.00     0.131 A 
HETATM   53  C   UNK N   1      27.165  17.830   5.749  0.00  0.00     0.142 A 
HETATM   54  N   UNK N   1      25.134  18.619   4.151  0.00  0.00    -0.337 N 
HETATM   55  C   UNK N   1      25.657  19.484   5.082  0.00  0.00     0.183 A 
ATOM     56  HN  UNK N   1      24.365  18.927   3.556  1.00  0.00     0.168 HD
HETATM   57  N   UNK N   1      26.685  19.086   5.896  0.00  0.00    -0.336 N 
ATOM     58  HN  UNK N   1      27.076  19.719   6.594  1.00  0.00     0.168 HD
BRANCH  52  59
HETATM   59  N   UNK N   1      25.083  16.468   3.062  0.00  0.00    -0.383 N 
HETATM   60  H   UNK N   1      25.665  15.992   2.426  0.00  0.00     0.157 HD
HETATM   61  H   UNK N   1      24.109  16.324   3.033  0.00  0.00     0.157 HD
ENDBRANCH  52  59
ENDBRANCH  41  47
ENDBRANCH  37  38
ENDBRANCH  36  37
ENDBRANCH  33  36
ENDBRANCH  32  33
ENDBRANCH   2  32
TORSDOF 21
ENDMDL
MODEL 6
REMARK VINA RESULT:      -7.3      5.832     11.223
REMARK  21 active torsions:
REMARK  status: ('A' for Active; 'I' for Inactive)
REMARK    1  A    between atoms: C_10  and  C_4 
REMARK    2  A    between atoms: C_11  and  C_4 
REMARK    3  A    between atoms: C_13  and  C_6 
REMARK    4  A    between atoms: O_46  and  C_6 
REMARK    5  A    between atoms: C_14  and  C_7 
REMARK    6  A    between atoms: O_47  and  C_7 
REMARK    7  A    between atoms: C_21  and  C_12 
REMARK    8  A    between atoms: C_16  and  O_37 
REMARK    9  A    between atoms: C_17  and  O_38 
REMARK   10  A    between atoms: C_18  and  O_39 
REMARK   11  A    between atoms: C_19  and  O_40 
REMARK   12  A    between atoms: N_25  and  C_20 
REMARK   13  A    between atoms: N_26  and  C_21 
REMARK   14  A    between atoms: O_41  and  C_21 
REMARK   15  A    between atoms: C_23  and  N_34 
REMARK   16  A    between atoms: C_24  and  N_35 
REMARK   17  A    between atoms: P_51  and  O_43 
REMARK   18  A    between atoms: P_51  and  O_46 
REMARK   19  A    between atoms: P_52  and  O_47 
REMARK   20  A    between atoms: P_51  and  O_50 
REMARK   21  A    between atoms: P_52  and  O_50 
ROOT
HETATM    1  O   UNK N   1      34.559  18.287   7.032  0.00  0.00    -0.631 OA
HETATM    2  P   UNK N   1      33.803  17.002   6.606  0.00  0.00     0.402 P 
ENDROOT
BRANCH   2   3
HETATM    3  O   UNK N   1      32.575  17.586   5.531  0.00  0.00    -0.307 OA
HETATM    4  H   UNK N   1      31.635  17.746   5.352  0.00  0.00     0.222 HD
ENDBRANCH   2   3
BRANCH   2   5
HETATM    5  O   UNK N   1      33.032  16.304   8.021  0.00  0.00    -0.294 OA
BRANCH   5   6
HETATM    6  C   UNK N   1      33.994  15.973   8.990  0.00  0.00     0.215 C 
BRANCH   6   7
HETATM    7  C   UNK N   1      34.367  14.483   8.998  0.00  0.00     0.180 C 
HETATM    8  C   UNK N   1      35.853  14.181   8.832  0.00  0.00     0.182 C 
HETATM    9  C   UNK N   1      35.809  12.728   9.189  0.00  0.00     0.198 C 
HETATM   10  C   UNK N   1      34.862  12.765  10.395  0.00  0.00     0.259 C 
HETATM   11  O   UNK N   1      33.989  13.880  10.215  0.00  0.00    -0.353 OA
BRANCH   8  12
HETATM   12  O   UNK N   1      36.308  14.386   7.526  0.00  0.00    -0.390 OA
HETATM   13  H   UNK N   1      36.459  15.213   7.042  0.00  0.00     0.210 HD
ENDBRANCH   8  12
BRANCH   9  14
HETATM   14  O   UNK N   1      37.064  12.166   9.434  0.00  0.00    -0.388 OA
HETATM   15  H   UNK N   1      37.423  11.506  10.048  0.00  0.00     0.210 HD
ENDBRANCH   9  14
BRANCH  10  16
HETATM   16  N   UNK N   1      35.517  12.813  11.720  0.00  0.00    -0.336 N 
HETATM   17  C   UNK N   1      35.904  14.002  12.264  0.00  0.00     0.094 A 
HETATM   18  C   UNK N   1      36.240  14.091  13.618  0.00  0.00     0.026 A 
HETATM   19  C   UNK N   1      36.162  12.958  14.435  0.00  0.00    -0.034 A 
HETATM   20  C   UNK N   1      35.804  11.715  13.853  0.00  0.00     0.036 A 
HETATM   21  C   UNK N   1      35.490  11.684  12.487  0.00  0.00     0.109 A 
BRANCH  19  22
HETATM   22  C   UNK N   1      36.334  13.112  15.924  0.00  0.00     0.117 C 
BRANCH  22  23
HETATM   23  C   UNK N   1      35.086  13.391  16.691  0.00  0.00     0.127 C 
HETATM   24  C   UNK N   1      35.169  13.778  18.126  0.00  0.00     0.091 C 
HETATM   25  O   UNK N   1      33.998  13.179  16.181  0.00  0.00    -0.298 OA
ENDBRANCH  22  23
ENDBRANCH  19  22
BRANCH  20  26
HETATM   26  C   UNK N   1      35.643  10.448  14.627  0.00  0.00     0.145 C 
BRANCH  26  27
HETATM   27  N   UNK N   1      34.508  10.094  15.107  0.00  0.00    -0.379 N 
HETATM   28  H   UNK N   1      33.899  10.770  15.481  0.00  0.00     0.158 HD
ATOM     29  HN  UNK N   1      34.237   9.109  15.101  1.00  0.00     0.158 HD
ENDBRANCH  26  27
BRANCH  26  30
HETATM   30  O   UNK N   1      36.707   9.641  14.809  0.00  0.00    -0.346 OA
HETATM   31  H   UNK N   1      37.557  10.010  14.948  0.00  0.00     0.219 HD
ENDBRANCH  26  30
ENDBRANCH  20  26
ENDBRANCH  10  16
ENDBRANCH   6   7
ENDBRANCH   5   6
ENDBRANCH   2   5
BRANCH   2  32
HETATM   32  O   UNK N   1      34.946  16.046   5.698  0.00  0.00    -0.188 OA
BRANCH  32  33
HETATM   33  P   UNK N   1      34.089  14.873   4.743  0.00  0.00     0.417 P 
HETATM   34  O   UNK N   1      35.196  14.014   4.074  0.00  0.00    -0.624 OA
HETATM   35  O   UNK N   1      33.211  13.775   5.768  0.00  0.00    -0.624 OA
BRANCH  33  36
HETATM   36  O   UNK N   1      33.129  15.521   3.438  0.00  0.00    -0.287 OA
BRANCH  36  37
HETATM   37  C   UNK N   1      32.216  14.504   3.157  0.00  0.00     0.216 C 
BRANCH  37  38
HETATM   38  C   UNK N   1      30.767  14.913   3.406  0.00  0.00     0.180 C 
HETATM   39  C   UNK N   1      29.853  13.799   3.917  0.00  0.00     0.182 C 
HETATM   40  C   UNK N   1      28.757  14.662   4.465  0.00  0.00     0.198 C 
HETATM   41  C   UNK N   1      29.602  15.710   5.194  0.00  0.00     0.262 C 
HETATM   42  O   UNK N   1      30.736  15.945   4.373  0.00  0.00    -0.353 OA
BRANCH  39  43
HETATM   43  O   UNK N   1      30.460  13.094   4.965  0.00  0.00    -0.390 OA
HETATM   44  H   UNK N   1      31.016  12.948   5.745  0.00  0.00     0.210 HD
ENDBRANCH  39  43
BRANCH  40  45
HETATM   45  O   UNK N   1      27.893  13.957   5.307  0.00  0.00    -0.388 OA
HETATM   46  H   UNK N   1      27.390  14.286   6.068  0.00  0.00     0.210 HD
ENDBRANCH  40  45
BRANCH  41  47
HETATM   47  N   UNK N   1      28.900  16.977   5.431  0.00  0.00    -0.297 N 
HETATM   48  C   UNK N   1      28.432  17.795   4.451  0.00  0.00     0.188 A 
HETATM   49  N   UNK N   1      27.796  18.883   4.968  0.00  0.00    -0.346 N 
HETATM   50  C   UNK N   1      27.887  18.718   6.298  0.00  0.00     0.122 A 
ATOM     51  HN  UNK N   1      27.349  19.646   4.461  1.00  0.00     0.167 HD
HETATM   52  C   UNK N   1      27.406  19.515   7.323  0.00  0.00     0.131 A 
HETATM   53  C   UNK N   1      28.554  17.581   6.579  0.00  0.00     0.142 A 
HETATM   54  N   UNK N   1      27.640  19.114   8.608  0.00  0.00    -0.337 N 
HETATM   55  C   UNK N   1      28.331  17.957   8.873  0.00  0.00     0.183 A 
ATOM     56  HN  UNK N   1      27.296  19.684   9.381  1.00  0.00     0.168 HD
HETATM   57  N   UNK N   1      28.793  17.176   7.847  0.00  0.00    -0.336 N 
ATOM     58  HN  UNK N   1      29.302  16.311   8.035  1.00  0.00     0.168 HD
BRANCH  52  59
HETATM   59  N   UNK N   1      26.690  20.697   7.055  0.00  0.00    -0.383 N 
HETATM   60  H   UNK N   1      25.716  20.673   6.908  0.00  0.00     0.157 HD
HETATM   61  H   UNK N   1      27.168  21.557   7.014  0.00  0.00     0.157 HD
ENDBRANCH  52  59
ENDBRANCH  41  47
ENDBRANCH  37  38
ENDBRANCH  36  37
ENDBRANCH  33  36
ENDBRANCH  32  33
ENDBRANCH   2  32
TORSDOF 21
ENDMDL
MODEL 7
REMARK VINA RESULT:      -7.2      8.570     13.239
REMARK  21 active torsions:
REMARK  status: ('A' for Active; 'I' for Inactive)
REMARK    1  A    between atoms: C_10  and  C_4 
REMARK    2  A    between atoms: C_11  and  C_4 
REMARK    3  A    between atoms: C_13  and  C_6 
REMARK    4  A    between atoms: O_46  and  C_6 
REMARK    5  A    between atoms: C_14  and  C_7 
REMARK    6  A    between atoms: O_47  and  C_7 
REMARK    7  A    between atoms: C_21  and  C_12 
REMARK    8  A    between atoms: C_16  and  O_37 
REMARK    9  A    between atoms: C_17  and  O_38 
REMARK   10  A    between atoms: C_18  and  O_39 
REMARK   11  A    between atoms: C_19  and  O_40 
REMARK   12  A    between atoms: N_25  and  C_20 
REMARK   13  A    between atoms: N_26  and  C_21 
REMARK   14  A    between atoms: O_41  and  C_21 
REMARK   15  A    between atoms: C_23  and  N_34 
REMARK   16  A    between atoms: C_24  and  N_35 
REMARK   17  A    between atoms: P_51  and  O_43 
REMARK   18  A    between atoms: P_51  and  O_46 
REMARK   19  A    between atoms: P_52  and  O_47 
REMARK   20  A    between atoms: P_51  and  O_50 
REMARK   21  A    between atoms: P_52  and  O_50 
ROOT
HETATM    1  O   UNK N   1      37.752  11.927   9.160  0.00  0.00    -0.631 OA
HETATM    2  P   UNK N   1      37.244  12.136  10.610  0.00  0.00     0.402 P 
ENDROOT
BRANCH   2   3
HETATM    3  O   UNK N   1      38.424  13.198  11.308  0.00  0.00    -0.307 OA
HETATM    4  H   UNK N   1      39.352  13.382  11.525  0.00  0.00     0.222 HD
ENDBRANCH   2   3
BRANCH   2   5
HETATM    5  O   UNK N   1      37.297  10.598  11.455  0.00  0.00    -0.294 OA
BRANCH   5   6
HETATM    6  C   UNK N   1      36.196  10.476  12.320  0.00  0.00     0.215 C 
BRANCH   6   7
HETATM    7  C   UNK N   1      36.181  11.526  13.441  0.00  0.00     0.180 C 
HETATM    8  C   UNK N   1      34.800  12.037  13.840  0.00  0.00     0.182 C 
HETATM    9  C   UNK N   1      35.199  12.755  15.092  0.00  0.00     0.198 C 
HETATM   10  C   UNK N   1      36.171  11.737  15.701  0.00  0.00     0.259 C 
HETATM   11  O   UNK N   1      36.749  11.004  14.622  0.00  0.00    -0.353 OA
BRANCH   8  12
HETATM   12  O   UNK N   1      34.245  12.902  12.893  0.00  0.00    -0.390 OA
HETATM   13  H   UNK N   1      34.557  13.135  12.004  0.00  0.00     0.210 HD
ENDBRANCH   8  12
BRANCH   9  14
HETATM   14  O   UNK N   1      34.123  13.115  15.907  0.00  0.00    -0.388 OA
HETATM   15  H   UNK N   1      34.017  13.555  16.764  0.00  0.00     0.210 HD
ENDBRANCH   9  14
BRANCH  10  16
HETATM   16  N   UNK N   1      35.590  10.826  16.710  0.00  0.00    -0.336 N 
HETATM   17  C   UNK N   1      35.332   9.521  16.405  0.00  0.00     0.094 A 
HETATM   18  C   UNK N   1      35.073   8.590  17.416  0.00  0.00     0.026 A 
HETATM   19  C   UNK N   1      35.098   8.988  18.757  0.00  0.00    -0.034 A 
HETATM   20  C   UNK N   1      35.321  10.355  19.065  0.00  0.00     0.036 A 
HETATM   21  C   UNK N   1      35.562  11.245  18.008  0.00  0.00     0.109 A 
BRANCH  19  22
HETATM   22  C   UNK N   1      35.015   7.939  19.836  0.00  0.00     0.117 C 
BRANCH  22  23
HETATM   23  C   UNK N   1      33.642   7.638  20.336  0.00  0.00     0.127 C 
HETATM   24  C   UNK N   1      32.782   6.671  19.601  0.00  0.00     0.091 C 
HETATM   25  O   UNK N   1      33.181   8.276  21.268  0.00  0.00    -0.298 OA
ENDBRANCH  22  23
ENDBRANCH  19  22
BRANCH  20  26
HETATM   26  C   UNK N   1      35.415  10.891  20.455  0.00  0.00     0.145 C 
BRANCH  26  27
HETATM   27  N   UNK N   1      34.367  11.141  21.150  0.00  0.00    -0.379 N 
HETATM   28  H   UNK N   1      33.673  11.742  20.796  0.00  0.00     0.158 HD
ATOM     29  HN  UNK N   1      34.254  10.717  22.071  1.00  0.00     0.158 HD
ENDBRANCH  26  27
BRANCH  26  30
HETATM   30  O   UNK N   1      36.627  11.097  21.007  0.00  0.00    -0.346 OA
HETATM   31  H   UNK N   1      37.403  10.943  20.505  0.00  0.00     0.219 HD
ENDBRANCH  26  30
ENDBRANCH  20  26
ENDBRANCH  10  16
ENDBRANCH   6   7
ENDBRANCH   5   6
ENDBRANCH   2   5
BRANCH   2  32
HETATM   32  O   UNK N   1      35.726  12.985  10.475  0.00  0.00    -0.188 OA
BRANCH  32  33
HETATM   33  P   UNK N   1      35.978  14.676  10.788  0.00  0.00     0.417 P 
HETATM   34  O   UNK N   1      36.383  14.752  12.284  0.00  0.00    -0.624 OA
HETATM   35  O   UNK N   1      37.360  15.262   9.907  0.00  0.00    -0.624 OA
BRANCH  33  36
HETATM   36  O   UNK N   1      34.568  15.691  10.619  0.00  0.00    -0.287 OA
BRANCH  36  37
HETATM   37  C   UNK N   1      35.044  16.817   9.945  0.00  0.00     0.216 C 
BRANCH  37  38
HETATM   38  C   UNK N   1      34.341  17.059   8.613  0.00  0.00     0.180 C 
HETATM   39  C   UNK N   1      34.789  16.155   7.464  0.00  0.00     0.182 C 
HETATM   40  C   UNK N   1      33.607  16.357   6.566  0.00  0.00     0.198 C 
HETATM   41  C   UNK N   1      32.481  16.225   7.596  0.00  0.00     0.262 C 
HETATM   42  O   UNK N   1      32.951  16.856   8.777  0.00  0.00    -0.353 OA
BRANCH  39  43
HETATM   43  O   UNK N   1      34.841  14.816   7.873  0.00  0.00    -0.390 OA
HETATM   44  H   UNK N   1      35.107  13.884   7.864  0.00  0.00     0.210 HD
ENDBRANCH  39  43
BRANCH  40  45
HETATM   45  O   UNK N   1      33.543  15.405   5.544  0.00  0.00    -0.388 OA
HETATM   46  H   UNK N   1      34.272  14.928   5.118  0.00  0.00     0.210 HD
ENDBRANCH  40  45
BRANCH  41  47
HETATM   47  N   UNK N   1      31.220  16.848   7.179  0.00  0.00    -0.297 N 
HETATM   48  C   UNK N   1      30.773  16.904   5.896  0.00  0.00     0.188 A 
HETATM   49  N   UNK N   1      29.557  17.513   5.815  0.00  0.00    -0.346 N 
HETATM   50  C   UNK N   1      29.264  17.837   7.085  0.00  0.00     0.122 A 
ATOM     51  HN  UNK N   1      28.996  17.681   4.980  1.00  0.00     0.167 HD
HETATM   52  C   UNK N   1      28.145  18.467   7.602  0.00  0.00     0.131 A 
HETATM   53  C   UNK N   1      30.261  17.447   7.904  0.00  0.00     0.142 A 
HETATM   54  N   UNK N   1      28.097  18.682   8.949  0.00  0.00    -0.337 N 
HETATM   55  C   UNK N   1      29.128  18.286   9.766  0.00  0.00     0.183 A 
ATOM     56  HN  UNK N   1      27.283  19.145   9.355  1.00  0.00     0.168 HD
HETATM   57  N   UNK N   1      30.225  17.656   9.240  0.00  0.00    -0.336 N 
ATOM     58  HN  UNK N   1      30.993  17.353   9.840  1.00  0.00     0.168 HD
BRANCH  52  59
HETATM   59  N   UNK N   1      27.082  18.867   6.769  0.00  0.00    -0.383 N 
HETATM   60  H   UNK N   1      27.244  19.108   5.828  0.00  0.00     0.157 HD
HETATM   61  H   UNK N   1      26.167  18.908   7.132  0.00  0.00     0.157 HD
ENDBRANCH  52  59
ENDBRANCH  41  47
ENDBRANCH  37  38
ENDBRANCH  36  37
ENDBRANCH  33  36
ENDBRANCH  32  33
ENDBRANCH   2  32
TORSDOF 21
ENDMDL
MODEL 8
REMARK VINA RESULT:      -7.2      5.540      9.107
REMARK  21 active torsions:
REMARK  status: ('A' for Active; 'I' for Inactive)
REMARK    1  A    between atoms: C_10  and  C_4 
REMARK    2  A    between atoms: C_11  and  C_4 
REMARK    3  A    between atoms: C_13  and  C_6 
REMARK    4  A    between atoms: O_46  and  C_6 
REMARK    5  A    between atoms: C_14  and  C_7 
REMARK    6  A    between atoms: O_47  and  C_7 
REMARK    7  A    between atoms: C_21  and  C_12 
REMARK    8  A    between atoms: C_16  and  O_37 
REMARK    9  A    between atoms: C_17  and  O_38 
REMARK   10  A    between atoms: C_18  and  O_39 
REMARK   11  A    between atoms: C_19  and  O_40 
REMARK   12  A    between atoms: N_25  and  C_20 
REMARK   13  A    between atoms: N_26  and  C_21 
REMARK   14  A    between atoms: O_41  and  C_21 
REMARK   15  A    between atoms: C_23  and  N_34 
REMARK   16  A    between atoms: C_24  and  N_35 
REMARK   17  A    between atoms: P_51  and  O_43 
REMARK   18  A    between atoms: P_51  and  O_46 
REMARK   19  A    between atoms: P_52  and  O_47 
REMARK   20  A    between atoms: P_51  and  O_50 
REMARK   21  A    between atoms: P_52  and  O_50 
ROOT
HETATM    1  O   UNK N   1      35.026  15.649   5.201  0.00  0.00    -0.631 OA
HETATM    2  P   UNK N   1      33.824  16.501   5.684  0.00  0.00     0.402 P 
ENDROOT
BRANCH   2   3
HETATM    3  O   UNK N   1      32.843  15.369   6.557  0.00  0.00    -0.307 OA
HETATM    4  H   UNK N   1      32.708  14.466   6.885  0.00  0.00     0.222 HD
ENDBRANCH   2   3
BRANCH   2   5
HETATM    5  O   UNK N   1      32.928  17.062   4.281  0.00  0.00    -0.294 OA
BRANCH   5   6
HETATM    6  C   UNK N   1      31.569  17.220   4.600  0.00  0.00     0.215 C 
BRANCH   6   7
HETATM    7  C   UNK N   1      30.661  16.169   3.943  0.00  0.00     0.180 C 
HETATM    8  C   UNK N   1      29.765  15.390   4.900  0.00  0.00     0.182 C 
HETATM    9  C   UNK N   1      28.884  14.743   3.877  0.00  0.00     0.198 C 
HETATM   10  C   UNK N   1      28.648  15.922   2.925  0.00  0.00     0.259 C 
HETATM   11  O   UNK N   1      29.790  16.773   3.012  0.00  0.00    -0.353 OA
BRANCH   8  12
HETATM   12  O   UNK N   1      30.467  14.448   5.658  0.00  0.00    -0.390 OA
HETATM   13  H   UNK N   1      30.137  13.722   6.209  0.00  0.00     0.210 HD
ENDBRANCH   8  12
BRANCH   9  14
HETATM   14  O   UNK N   1      27.729  14.164   4.408  0.00  0.00    -0.388 OA
HETATM   15  H   UNK N   1      26.890  14.491   4.768  0.00  0.00     0.210 HD
ENDBRANCH   9  14
BRANCH  10  16
HETATM   16  N   UNK N   1      27.401  16.684   3.150  0.00  0.00    -0.336 N 
HETATM   17  C   UNK N   1      26.188  16.151   2.825  0.00  0.00     0.094 A 
HETATM   18  C   UNK N   1      25.006  16.722   3.304  0.00  0.00     0.026 A 
HETATM   19  C   UNK N   1      25.059  17.841   4.142  0.00  0.00    -0.034 A 
HETATM   20  C   UNK N   1      26.319  18.419   4.439  0.00  0.00     0.036 A 
HETATM   21  C   UNK N   1      27.470  17.809   3.920  0.00  0.00     0.109 A 
BRANCH  19  22
HETATM   22  C   UNK N   1      23.794  18.322   4.806  0.00  0.00     0.117 C 
BRANCH  22  23
HETATM   23  C   UNK N   1      22.867  19.103   3.937  0.00  0.00     0.127 C 
HETATM   24  C   UNK N   1      23.407  20.169   3.051  0.00  0.00     0.091 C 
HETATM   25  O   UNK N   1      21.661  18.955   4.047  0.00  0.00    -0.298 OA
ENDBRANCH  22  23
ENDBRANCH  19  22
BRANCH  20  26
HETATM   26  C   UNK N   1      26.508  19.583   5.354  0.00  0.00     0.145 C 
BRANCH  26  27
HETATM   27  N   UNK N   1      26.394  20.790   4.938  0.00  0.00    -0.379 N 
HETATM   28  H   UNK N   1      26.641  21.540   5.526  0.00  0.00     0.158 HD
ATOM     29  HN  UNK N   1      26.045  20.974   3.997  1.00  0.00     0.158 HD
ENDBRANCH  26  27
BRANCH  26  30
HETATM   30  O   UNK N   1      26.781  19.366   6.656  0.00  0.00    -0.346 OA
HETATM   31  H   UNK N   1      26.242  18.788   7.159  0.00  0.00     0.219 HD
ENDBRANCH  26  30
ENDBRANCH  20  26
ENDBRANCH  10  16
ENDBRANCH   6   7
ENDBRANCH   5   6
ENDBRANCH   2   5
BRANCH   2  32
HETATM   32  O   UNK N   1      34.477  17.669   6.803  0.00  0.00    -0.188 OA
BRANCH  32  33
HETATM   33  P   UNK N   1      34.190  17.133   8.432  0.00  0.00     0.417 P 
HETATM   34  O   UNK N   1      35.200  17.930   9.301  0.00  0.00    -0.624 OA
HETATM   35  O   UNK N   1      32.617  17.640   8.974  0.00  0.00    -0.624 OA
BRANCH  33  36
HETATM   36  O   UNK N   1      34.519  15.446   8.737  0.00  0.00    -0.287 OA
BRANCH  36  37
HETATM   37  C   UNK N   1      34.070  15.249  10.044  0.00  0.00     0.216 C 
BRANCH  37  38
HETATM   38  C   UNK N   1      34.882  14.205  10.805  0.00  0.00     0.180 C 
HETATM   39  C   UNK N   1      36.343  14.075  10.377  0.00  0.00     0.182 C 
HETATM   40  C   UNK N   1      36.859  13.376  11.598  0.00  0.00     0.198 C 
HETATM   41  C   UNK N   1      36.178  14.220  12.679  0.00  0.00     0.262 C 
HETATM   42  O   UNK N   1      34.885  14.530  12.181  0.00  0.00    -0.353 OA
BRANCH  39  43
HETATM   43  O   UNK N   1      36.948  15.334  10.271  0.00  0.00    -0.390 OA
HETATM   44  H   UNK N   1      37.193  16.182   9.870  0.00  0.00     0.210 HD
ENDBRANCH  39  43
BRANCH  40  45
HETATM   45  O   UNK N   1      38.254  13.391  11.673  0.00  0.00    -0.388 OA
HETATM   46  H   UNK N   1      38.845  14.153  11.777  0.00  0.00     0.210 HD
ENDBRANCH  40  45
BRANCH  41  47
HETATM   47  N   UNK N   1      36.052  13.539  13.972  0.00  0.00    -0.297 N 
HETATM   48  C   UNK N   1      36.671  13.935  15.116  0.00  0.00     0.188 A 
HETATM   49  N   UNK N   1      36.343  13.132  16.167  0.00  0.00    -0.346 N 
HETATM   50  C   UNK N   1      35.506  12.223  15.640  0.00  0.00     0.122 A 
ATOM     51  HN  UNK N   1      36.659  13.206  17.133  1.00  0.00     0.167 HD
HETATM   52  C   UNK N   1      34.851  11.166  16.248  0.00  0.00     0.131 A 
HETATM   53  C   UNK N   1      35.335  12.460  14.324  0.00  0.00     0.142 A 
HETATM   54  N   UNK N   1      34.047  10.381  15.473  0.00  0.00    -0.337 N 
HETATM   55  C   UNK N   1      33.894  10.632  14.131  0.00  0.00     0.183 A 
ATOM     56  HN  UNK N   1      33.553   9.595  15.897  1.00  0.00     0.168 HD
HETATM   57  N   UNK N   1      34.542  11.687  13.546  0.00  0.00    -0.336 N 
ATOM     58  HN  UNK N   1      34.430  11.885  12.551  1.00  0.00     0.168 HD
BRANCH  52  59
HETATM   59  N   UNK N   1      34.999  10.910  17.625  0.00  0.00    -0.383 N 
HETATM   60  H   UNK N   1      34.255  10.533  18.149  0.00  0.00     0.157 HD
HETATM   61  H   UNK N   1      35.855  11.110  18.069  0.00  0.00     0.157 HD
ENDBRANCH  52  59
ENDBRANCH  41  47
ENDBRANCH  37  38
ENDBRANCH  36  37
ENDBRANCH  33  36
ENDBRANCH  32  33
ENDBRANCH   2  32
TORSDOF 21
ENDMDL
MODEL 9
REMARK VINA RESULT:      -7.2      4.107     10.391
REMARK  21 active torsions:
REMARK  status: ('A' for Active; 'I' for Inactive)
REMARK    1  A    between atoms: C_10  and  C_4 
REMARK    2  A    between atoms: C_11  and  C_4 
REMARK    3  A    between atoms: C_13  and  C_6 
REMARK    4  A    between atoms: O_46  and  C_6 
REMARK    5  A    between atoms: C_14  and  C_7 
REMARK    6  A    between atoms: O_47  and  C_7 
REMARK    7  A    between atoms: C_21  and  C_12 
REMARK    8  A    between atoms: C_16  and  O_37 
REMARK    9  A    between atoms: C_17  and  O_38 
REMARK   10  A    between atoms: C_18  and  O_39 
REMARK   11  A    between atoms: C_19  and  O_40 
REMARK   12  A    between atoms: N_25  and  C_20 
REMARK   13  A    between atoms: N_26  and  C_21 
REMARK   14  A    between atoms: O_41  and  C_21 
REMARK   15  A    between atoms: C_23  and  N_34 
REMARK   16  A    between atoms: C_24  and  N_35 
REMARK   17  A    between atoms: P_51  and  O_43 
REMARK   18  A    between atoms: P_51  and  O_46 
REMARK   19  A    between atoms: P_52  and  O_47 
REMARK   20  A    between atoms: P_51  and  O_50 
REMARK   21  A    between atoms: P_52  and  O_50 
ROOT
HETATM    1  O   UNK N   1      32.347  14.079   2.508  0.00  0.00    -0.631 OA
HETATM    2  P   UNK N   1      31.841  14.900   3.723  0.00  0.00     0.402 P 
ENDROOT
BRANCH   2   3
HETATM    3  O   UNK N   1      31.218  16.350   3.006  0.00  0.00    -0.307 OA
HETATM    4  H   UNK N   1      30.572  16.778   2.421  0.00  0.00     0.222 HD
ENDBRANCH   2   3
BRANCH   2   5
HETATM    5  O   UNK N   1      33.214  15.315   4.737  0.00  0.00    -0.294 OA
BRANCH   5   6
HETATM    6  C   UNK N   1      33.551  16.670   4.573  0.00  0.00     0.215 C 
BRANCH   6   7
HETATM    7  C   UNK N   1      33.403  17.496   5.859  0.00  0.00     0.180 C 
HETATM    8  C   UNK N   1      32.255  17.080   6.774  0.00  0.00     0.182 C 
HETATM    9  C   UNK N   1      32.644  17.886   7.974  0.00  0.00     0.198 C 
HETATM   10  C   UNK N   1      34.159  17.643   7.994  0.00  0.00     0.259 C 
HETATM   11  O   UNK N   1      34.569  17.407   6.648  0.00  0.00    -0.353 OA
BRANCH   8  12
HETATM   12  O   UNK N   1      31.002  17.451   6.278  0.00  0.00    -0.390 OA
HETATM   13  H   UNK N   1      30.757  18.183   5.690  0.00  0.00     0.210 HD
ENDBRANCH   8  12
BRANCH   9  14
HETATM   14  O   UNK N   1      31.967  17.528   9.142  0.00  0.00    -0.388 OA
HETATM   15  H   UNK N   1      32.221  17.267  10.040  0.00  0.00     0.210 HD
ENDBRANCH   9  14
BRANCH  10  16
HETATM   16  N   UNK N   1      34.619  16.557   8.886  0.00  0.00    -0.336 N 
HETATM   17  C   UNK N   1      35.163  16.839  10.105  0.00  0.00     0.094 A 
HETATM   18  C   UNK N   1      35.318  15.835  11.066  0.00  0.00     0.026 A 
HETATM   19  C   UNK N   1      34.894  14.531  10.791  0.00  0.00    -0.034 A 
HETATM   20  C   UNK N   1      34.372  14.235   9.506  0.00  0.00     0.036 A 
HETATM   21  C   UNK N   1      34.252  15.279   8.578  0.00  0.00     0.109 A 
BRANCH  19  22
HETATM   22  C   UNK N   1      34.884  13.512  11.901  0.00  0.00     0.117 C 
BRANCH  22  23
HETATM   23  C   UNK N   1      36.132  12.708  12.048  0.00  0.00     0.127 C 
HETATM   24  C   UNK N   1      36.120  11.256  11.724  0.00  0.00     0.091 C 
HETATM   25  O   UNK N   1      37.123  13.211  12.552  0.00  0.00    -0.298 OA
ENDBRANCH  22  23
ENDBRANCH  19  22
BRANCH  20  26
HETATM   26  C   UNK N   1      33.846  12.895   9.109  0.00  0.00     0.145 C 
BRANCH  26  27
HETATM   27  N   UNK N   1      32.600  12.607   9.204  0.00  0.00    -0.379 N 
HETATM   28  H   UNK N   1      31.989  12.814   8.460  0.00  0.00     0.158 HD
ATOM     29  HN  UNK N   1      32.243  12.164  10.050  1.00  0.00     0.158 HD
ENDBRANCH  26  27
BRANCH  26  30
HETATM   30  O   UNK N   1      34.692  11.969   8.616  0.00  0.00    -0.346 OA
HETATM   31  H   UNK N   1      35.476  11.754   9.082  0.00  0.00     0.219 HD
ENDBRANCH  26  30
ENDBRANCH  20  26
ENDBRANCH  10  16
ENDBRANCH   6   7
ENDBRANCH   5   6
ENDBRANCH   2   5
BRANCH   2  32
HETATM   32  O   UNK N   1      30.519  13.990   4.406  0.00  0.00    -0.188 OA
BRANCH  32  33
HETATM   33  P   UNK N   1      29.011  14.703   3.915  0.00  0.00     0.417 P 
HETATM   34  O   UNK N   1      29.050  14.698   2.364  0.00  0.00    -0.624 OA
HETATM   35  O   UNK N   1      27.679  13.669   4.345  0.00  0.00    -0.624 OA
BRANCH  33  36
HETATM   36  O   UNK N   1      28.778  16.367   4.387  0.00  0.00    -0.287 OA
BRANCH  36  37
HETATM   37  C   UNK N   1      27.943  16.284   5.503  0.00  0.00     0.216 C 
BRANCH  37  38
HETATM   38  C   UNK N   1      27.043  17.506   5.669  0.00  0.00     0.180 C 
HETATM   39  C   UNK N   1      27.772  18.825   5.920  0.00  0.00     0.182 C 
HETATM   40  C   UNK N   1      26.657  19.755   5.549  0.00  0.00     0.198 C 
HETATM   41  C   UNK N   1      26.179  19.076   4.262  0.00  0.00     0.262 C 
HETATM   42  O   UNK N   1      26.273  17.679   4.495  0.00  0.00    -0.353 OA
BRANCH  39  43
HETATM   43  O   UNK N   1      28.834  18.989   5.021  0.00  0.00    -0.390 OA
HETATM   44  H   UNK N   1      29.293  19.268   4.214  0.00  0.00     0.210 HD
ENDBRANCH  39  43
BRANCH  40  45
HETATM   45  O   UNK N   1      27.098  21.068   5.358  0.00  0.00    -0.388 OA
HETATM   46  H   UNK N   1      27.983  21.435   5.506  0.00  0.00     0.210 HD
ENDBRANCH  40  45
BRANCH  41  47
HETATM   47  N   UNK N   1      24.802  19.417   3.888  0.00  0.00    -0.297 N 
HETATM   48  C   UNK N   1      24.463  20.318   2.929  0.00  0.00     0.188 A 
HETATM   49  N   UNK N   1      23.113  20.404   2.776  0.00  0.00    -0.346 N 
HETATM   50  C   UNK N   1      22.622  19.532   3.672  0.00  0.00     0.122 A 
ATOM     51  HN  UNK N   1      22.592  20.994   2.127  1.00  0.00     0.167 HD
HETATM   52  C   UNK N   1      21.309  19.194   3.951  0.00  0.00     0.131 A 
HETATM   53  C   UNK N   1      23.631  18.943   4.344  0.00  0.00     0.142 A 
HETATM   54  N   UNK N   1      21.081  18.265   4.925  0.00  0.00    -0.337 N 
HETATM   55  C   UNK N   1      22.123  17.684   5.607  0.00  0.00     0.183 A 
ATOM     56  HN  UNK N   1      20.122  17.999   5.150  1.00  0.00     0.168 HD
HETATM   57  N   UNK N   1      23.417  18.023   5.313  0.00  0.00    -0.336 N 
ATOM     58  HN  UNK N   1      24.198  17.593   5.810  1.00  0.00     0.168 HD
BRANCH  52  59
HETATM   59  N   UNK N   1      20.238  19.781   3.249  0.00  0.00    -0.383 N 
HETATM   60  H   UNK N   1      19.551  19.221   2.820  0.00  0.00     0.157 HD
HETATM   61  H   UNK N   1      20.177  20.762   3.186  0.00  0.00     0.157 HD
ENDBRANCH  52  59
ENDBRANCH  41  47
ENDBRANCH  37  38
ENDBRANCH  36  37
ENDBRANCH  33  36
ENDBRANCH  32  33
ENDBRANCH   2  32
TORSDOF 21
ENDMDL
