MODEL 1
REMARK VINA RESULT:      -4.1      0.000      0.000
REMARK  4 active torsions:
REMARK  status: ('A' for Active; 'I' for Inactive)
REMARK    1  A    between atoms: C_2  and  O_4 
REMARK    2  A    between atoms: O_4  and  P_5 
REMARK    3  A    between atoms: P_5  and  O_6 
REMARK    4  A    between atoms: P_5  and  O_7 
ROOT
HETATM    1  P   UNK N   1      20.648  20.673   1.560  0.00  0.00     0.398 P 
HETATM    2  O   UNK N   1      21.475  20.570   0.249  0.00  0.00    -0.631 OA
ENDROOT
BRANCH   1   3
HETATM    3  O   UNK N   1      22.061  19.950   2.249  0.00  0.00    -0.221 OA
BRANCH   3   4
HETATM    4  C   UNK N   1      22.131  19.460   3.519  0.00  0.00     0.263 C 
HETATM    5  C   UNK N   1      23.381  18.782   3.969  0.00  0.00     0.126 C 
HETATM    6  O   UNK N   1      21.199  19.576   4.291  0.00  0.00    -0.265 OA
ENDBRANCH   3   4
ENDBRANCH   1   3
BRANCH   1   7
HETATM    7  O   UNK N   1      20.614  22.311   0.991  0.00  0.00    -0.307 OA
HETATM    8  H   UNK N   1      21.099  22.660   0.227  0.00  0.00     0.222 HD
ENDBRANCH   1   7
BRANCH   1   9
HETATM    9  O   UNK N   1      21.477  21.783   2.607  0.00  0.00    -0.307 OA
HETATM   10  H   UNK N   1      21.116  22.378   3.283  0.00  0.00     0.222 HD
ENDBRANCH   1   9
TORSDOF 4
ENDMDL
MODEL 2
REMARK VINA RESULT:      -3.9     13.546     14.332
REMARK  4 active torsions:
REMARK  status: ('A' for Active; 'I' for Inactive)
REMARK    1  A    between atoms: C_2  and  O_4 
REMARK    2  A    between atoms: O_4  and  P_5 
REMARK    3  A    between atoms: P_5  and  O_6 
REMARK    4  A    between atoms: P_5  and  O_7 
ROOT
HETATM    1  P   UNK N   1      34.079  18.046   8.378  0.00  0.00     0.398 P 
HETATM    2  O   UNK N   1      35.126  19.193   8.363  0.00  0.00    -0.631 OA
ENDROOT
BRANCH   1   3
HETATM    3  O   UNK N   1      34.529  17.909   6.713  0.00  0.00    -0.221 OA
BRANCH   3   4
HETATM    4  C   UNK N   1      33.934  17.063   5.825  0.00  0.00     0.263 C 
HETATM    5  C   UNK N   1      32.522  17.314   5.417  0.00  0.00     0.126 C 
HETATM    6  O   UNK N   1      34.537  16.119   5.354  0.00  0.00    -0.265 OA
ENDBRANCH   3   4
ENDBRANCH   1   3
BRANCH   1   7
HETATM    7  O   UNK N   1      35.131  17.581   9.677  0.00  0.00    -0.307 OA
HETATM    8  H   UNK N   1      35.231  16.687  10.038  0.00  0.00     0.222 HD
ENDBRANCH   1   7
BRANCH   1   9
HETATM    9  O   UNK N   1      34.932  16.564   8.077  0.00  0.00    -0.307 OA
HETATM   10  H   UNK N   1      35.392  16.271   7.274  0.00  0.00     0.222 HD
ENDBRANCH   1   9
TORSDOF 4
ENDMDL
MODEL 3
REMARK VINA RESULT:      -3.9     11.335     11.903
REMARK  4 active torsions:
REMARK  status: ('A' for Active; 'I' for Inactive)
REMARK    1  A    between atoms: C_2  and  O_4 
REMARK    2  A    between atoms: O_4  and  P_5 
REMARK    3  A    between atoms: P_5  and  O_6 
REMARK    4  A    between atoms: P_5  and  O_7 
ROOT
HETATM    1  P   UNK N   1      32.560  21.323  -3.767  0.00  0.00     0.398 P 
HETATM    2  O   UNK N   1      31.783  20.084  -4.291  0.00  0.00    -0.631 OA
ENDROOT
BRANCH   1   3
HETATM    3  O   UNK N   1      31.037  21.695  -3.035  0.00  0.00    -0.221 OA
BRANCH   3   4
HETATM    4  C   UNK N   1      30.718  22.908  -2.503  0.00  0.00     0.263 C 
HETATM    5  C   UNK N   1      30.797  24.123  -3.364  0.00  0.00     0.126 C 
HETATM    6  O   UNK N   1      30.360  23.015  -1.346  0.00  0.00    -0.265 OA
ENDBRANCH   3   4
ENDBRANCH   1   3
BRANCH   1   7
HETATM    7  O   UNK N   1      33.568  20.019  -3.227  0.00  0.00    -0.307 OA
HETATM    8  H   UNK N   1      34.414  19.751  -3.620  0.00  0.00     0.222 HD
ENDBRANCH   1   7
BRANCH   1   9
HETATM    9  O   UNK N   1      32.643  21.188  -2.038  0.00  0.00    -0.307 OA
HETATM   10  H   UNK N   1      33.397  21.332  -1.445  0.00  0.00     0.222 HD
ENDBRANCH   1   9
TORSDOF 4
ENDMDL
MODEL 4
REMARK VINA RESULT:      -3.9     13.180     13.940
REMARK  4 active torsions:
REMARK  status: ('A' for Active; 'I' for Inactive)
REMARK    1  A    between atoms: C_2  and  O_4 
REMARK    2  A    between atoms: O_4  and  P_5 
REMARK    3  A    between atoms: P_5  and  O_6 
REMARK    4  A    between atoms: P_5  and  O_7 
ROOT
HETATM    1  P   UNK N   1      33.723  16.582   6.131  0.00  0.00     0.398 P 
HETATM    2  O   UNK N   1      35.189  16.104   5.947  0.00  0.00    -0.631 OA
ENDROOT
BRANCH   1   3
HETATM    3  O   UNK N   1      34.494  17.987   6.783  0.00  0.00    -0.221 OA
BRANCH   3   4
HETATM    4  C   UNK N   1      34.663  18.220   8.115  0.00  0.00     0.263 C 
HETATM    5  C   UNK N   1      34.122  17.239   9.099  0.00  0.00     0.126 C 
HETATM    6  O   UNK N   1      35.254  19.205   8.512  0.00  0.00    -0.265 OA
ENDBRANCH   3   4
ENDBRANCH   1   3
BRANCH   1   7
HETATM    7  O   UNK N   1      33.757  16.191   4.441  0.00  0.00    -0.307 OA
HETATM    8  H   UNK N   1      34.376  16.549   3.785  0.00  0.00     0.222 HD
ENDBRANCH   1   7
BRANCH   1   9
HETATM    9  O   UNK N   1      33.496  17.961   5.100  0.00  0.00    -0.307 OA
HETATM   10  H   UNK N   1      33.694  18.895   5.269  0.00  0.00     0.222 HD
ENDBRANCH   1   9
TORSDOF 4
ENDMDL
MODEL 5
REMARK VINA RESULT:      -3.8      2.240      3.047
REMARK  4 active torsions:
REMARK  status: ('A' for Active; 'I' for Inactive)
REMARK    1  A    between atoms: C_2  and  O_4 
REMARK    2  A    between atoms: O_4  and  P_5 
REMARK    3  A    between atoms: P_5  and  O_6 
REMARK    4  A    between atoms: P_5  and  O_7 
ROOT
HETATM    1  P   UNK N   1      21.530  20.017   2.832  0.00  0.00     0.398 P 
HETATM    2  O   UNK N   1      20.379  20.555   3.726  0.00  0.00    -0.631 OA
ENDROOT
BRANCH   1   3
HETATM    3  O   UNK N   1      20.230  19.211   2.022  0.00  0.00    -0.221 OA
BRANCH   3   4
HETATM    4  C   UNK N   1      20.336  17.989   1.430  0.00  0.00     0.263 C 
HETATM    5  C   UNK N   1      20.264  16.763   2.276  0.00  0.00     0.126 C 
HETATM    6  O   UNK N   1      20.476  17.881   0.227  0.00  0.00    -0.265 OA
ENDBRANCH   3   4
ENDBRANCH   1   3
BRANCH   1   7
HETATM    7  O   UNK N   1      21.778  21.731   2.735  0.00  0.00    -0.307 OA
HETATM    8  H   UNK N   1      21.088  22.411   2.774  0.00  0.00     0.222 HD
ENDBRANCH   1   7
BRANCH   1   9
HETATM    9  O   UNK N   1      21.288  20.659   1.237  0.00  0.00    -0.307 OA
HETATM   10  H   UNK N   1      21.894  21.173   0.682  0.00  0.00     0.222 HD
ENDBRANCH   1   9
TORSDOF 4
ENDMDL
MODEL 6
REMARK VINA RESULT:      -3.8      9.785     10.348
REMARK  4 active torsions:
REMARK  status: ('A' for Active; 'I' for Inactive)
REMARK    1  A    between atoms: C_2  and  O_4 
REMARK    2  A    between atoms: O_4  and  P_5 
REMARK    3  A    between atoms: P_5  and  O_6 
REMARK    4  A    between atoms: P_5  and  O_7 
ROOT
HETATM    1  P   UNK N   1      30.643  22.844  -3.070  0.00  0.00     0.398 P 
HETATM    2  O   UNK N   1      30.270  21.374  -3.404  0.00  0.00    -0.631 OA
ENDROOT
BRANCH   1   3
HETATM    3  O   UNK N   1      28.989  22.920  -2.567  0.00  0.00    -0.221 OA
BRANCH   3   4
HETATM    4  C   UNK N   1      28.085  23.825  -3.036  0.00  0.00     0.263 C 
HETATM    5  C   UNK N   1      28.474  24.724  -4.160  0.00  0.00     0.126 C 
HETATM    6  O   UNK N   1      26.969  23.904  -2.562  0.00  0.00    -0.265 OA
ENDBRANCH   3   4
ENDBRANCH   1   3
BRANCH   1   7
HETATM    7  O   UNK N   1      31.853  21.965  -2.191  0.00  0.00    -0.307 OA
HETATM    8  H   UNK N   1      31.728  21.112  -1.745  0.00  0.00     0.222 HD
ENDBRANCH   1   7
BRANCH   1   9
HETATM    9  O   UNK N   1      30.517  23.031  -1.348  0.00  0.00    -0.307 OA
HETATM   10  H   UNK N   1      30.659  22.377  -0.646  0.00  0.00     0.222 HD
ENDBRANCH   1   9
TORSDOF 4
ENDMDL
MODEL 7
REMARK VINA RESULT:      -3.7     14.794     15.760
REMARK  4 active torsions:
REMARK  status: ('A' for Active; 'I' for Inactive)
REMARK    1  A    between atoms: C_2  and  O_4 
REMARK    2  A    between atoms: O_4  and  P_5 
REMARK    3  A    between atoms: P_5  and  O_6 
REMARK    4  A    between atoms: P_5  and  O_7 
ROOT
HETATM    1  P   UNK N   1      35.103  16.370  10.299  0.00  0.00     0.398 P 
HETATM    2  O   UNK N   1      35.706  17.785  10.082  0.00  0.00    -0.631 OA
ENDROOT
BRANCH   1   3
HETATM    3  O   UNK N   1      34.796  16.480   8.600  0.00  0.00    -0.221 OA
BRANCH   3   4
HETATM    4  C   UNK N   1      34.086  17.483   8.012  0.00  0.00     0.263 C 
HETATM    5  C   UNK N   1      32.678  17.724   8.440  0.00  0.00     0.126 C 
HETATM    6  O   UNK N   1      34.583  18.189   7.156  0.00  0.00    -0.265 OA
ENDBRANCH   3   4
ENDBRANCH   1   3
BRANCH   1   7
HETATM    7  O   UNK N   1      36.698  16.180  10.955  0.00  0.00    -0.307 OA
HETATM    8  H   UNK N   1      37.377  15.566  10.634  0.00  0.00     0.222 HD
ENDBRANCH   1   7
BRANCH   1   9
HETATM    9  O   UNK N   1      36.085  15.249   9.409  0.00  0.00    -0.307 OA
HETATM   10  H   UNK N   1      35.839  14.665   8.673  0.00  0.00     0.222 HD
ENDBRANCH   1   9
TORSDOF 4
ENDMDL
MODEL 8
REMARK VINA RESULT:      -3.7      2.679      3.098
REMARK  4 active torsions:
REMARK  status: ('A' for Active; 'I' for Inactive)
REMARK    1  A    between atoms: C_2  and  O_4 
REMARK    2  A    between atoms: O_4  and  P_5 
REMARK    3  A    between atoms: P_5  and  O_6 
REMARK    4  A    between atoms: P_5  and  O_7 
ROOT
HETATM    1  P   UNK N   1      20.152  17.509   1.570  0.00  0.00     0.398 P 
HETATM    2  O   UNK N   1      20.521  17.989   0.139  0.00  0.00    -0.631 OA
ENDROOT
BRANCH   1   3
HETATM    3  O   UNK N   1      20.568  19.136   1.986  0.00  0.00    -0.221 OA
BRANCH   3   4
HETATM    4  C   UNK N   1      20.851  19.555   3.252  0.00  0.00     0.263 C 
HETATM    5  C   UNK N   1      21.854  18.803   4.060  0.00  0.00     0.126 C 
HETATM    6  O   UNK N   1      20.309  20.534   3.727  0.00  0.00    -0.265 OA
ENDBRANCH   3   4
ENDBRANCH   1   3
BRANCH   1   7
HETATM    7  O   UNK N   1      18.718  17.105   0.680  0.00  0.00    -0.307 OA
HETATM    8  H   UNK N   1      18.682  16.831  -0.250  0.00  0.00     0.222 HD
ENDBRANCH   1   7
BRANCH   1   9
HETATM    9  O   UNK N   1      18.754  18.408   2.071  0.00  0.00    -0.307 OA
HETATM   10  H   UNK N   1      18.125  18.918   1.536  0.00  0.00     0.222 HD
ENDBRANCH   1   9
TORSDOF 4
ENDMDL
MODEL 9
REMARK VINA RESULT:      -3.7     13.964     14.651
REMARK  4 active torsions:
REMARK  status: ('A' for Active; 'I' for Inactive)
REMARK    1  A    between atoms: C_2  and  O_4 
REMARK    2  A    between atoms: O_4  and  P_5 
REMARK    3  A    between atoms: P_5  and  O_6 
REMARK    4  A    between atoms: P_5  and  O_7 
ROOT
HETATM    1  P   UNK N   1      33.930  17.979   8.229  0.00  0.00     0.398 P 
HETATM    2  O   UNK N   1      34.646  17.914   6.852  0.00  0.00    -0.631 OA
ENDROOT
BRANCH   1   3
HETATM    3  O   UNK N   1      34.348  16.300   8.280  0.00  0.00    -0.221 OA
BRANCH   3   4
HETATM    4  C   UNK N   1      33.840  15.410   9.178  0.00  0.00     0.263 C 
HETATM    5  C   UNK N   1      32.369  15.165   9.207  0.00  0.00     0.126 C 
HETATM    6  O   UNK N   1      34.565  14.808   9.946  0.00  0.00    -0.265 OA
ENDBRANCH   3   4
ENDBRANCH   1   3
BRANCH   1   7
HETATM    7  O   UNK N   1      35.107  19.244   8.382  0.00  0.00    -0.307 OA
HETATM    8  H   UNK N   1      34.993  20.166   8.104  0.00  0.00     0.222 HD
ENDBRANCH   1   7
BRANCH   1   9
HETATM    9  O   UNK N   1      35.126  17.664   9.448  0.00  0.00    -0.307 OA
HETATM   10  H   UNK N   1      35.023  17.609  10.412  0.00  0.00     0.222 HD
ENDBRANCH   1   9
TORSDOF 4
ENDMDL
