MODEL 1
REMARK VINA RESULT:      -7.2      0.000      0.000
REMARK  4 active torsions:
REMARK  status: ('A' for Active; 'I' for Inactive)
REMARK    1  A    between atoms: C_10  and  C_7 
REMARK    2  A    between atoms: C_9  and  C_8 
REMARK    3  A    between atoms: C_11  and  O_19 
REMARK    4  A    between atoms: C_12  and  O_20 
ROOT
HETATM    1  C   UNK N   1      20.861  20.513   1.371  0.00  0.00     0.192 C 
HETATM    2  O   UNK N   1      20.641  19.713   0.250  0.00  0.00    -0.399 OA
HETATM    3  H   UNK N   1      20.484  19.029  -0.419  0.00  0.00     0.209 HD
ENDROOT
BRANCH   1   4
HETATM    4  C   UNK N   1      20.760  19.704   2.668  0.00  0.00     0.145 C 
HETATM    5  C   UNK N   1      19.786  18.507   2.526  0.00  0.00     0.175 C 
HETATM    6  C   UNK N   1      19.833  17.671   3.815  0.00  0.00     0.185 C 
HETATM    7  C   UNK N   1      21.235  17.054   4.036  0.00  0.00     0.217 C 
HETATM    8  C   UNK N   1      22.303  18.067   3.760  0.00  0.00     0.116 A 
HETATM    9  O   UNK N   1      21.439  15.949   3.206  0.00  0.00    -0.385 OA
HETATM   10  N   UNK N   1      23.584  17.950   4.161  0.00  0.00    -0.342 N 
HETATM   11  N   UNK N   1      22.073  19.243   3.142  0.00  0.00    -0.333 N 
HETATM   12  C   UNK N   1      24.160  19.115   3.798  0.00  0.00     0.059 A 
ATOM     13  HN  UNK N   1      24.020  17.158   4.634  1.00  0.00     0.167 HD
HETATM   14  C   UNK N   1      23.228  19.927   3.171  0.00  0.00     0.123 A 
HETATM   15  H   UNK N   1      21.467  15.267   2.517  0.00  0.00     0.210 HD
BRANCH   5  16
HETATM   16  O   UNK N   1      18.491  18.984   2.306  0.00  0.00    -0.391 OA
HETATM   17  H   UNK N   1      18.293  19.748   1.742  0.00  0.00     0.210 HD
ENDBRANCH   5  16
BRANCH   6  18
HETATM   18  O   UNK N   1      18.867  16.661   3.793  0.00  0.00    -0.390 OA
HETATM   19  H   UNK N   1      17.941  16.801   3.541  0.00  0.00     0.210 HD
ENDBRANCH   6  18
BRANCH  12  20
HETATM   20  C   UNK N   1      25.532  19.501   4.161  0.00  0.00    -0.008 A 
HETATM   21  C   UNK N   1      25.766  20.638   4.947  0.00  0.00     0.014 A 
HETATM   22  C   UNK N   1      27.063  20.952   5.363  0.00  0.00     0.001 A 
HETATM   23  C   UNK N   1      28.130  20.122   5.011  0.00  0.00     0.000 A 
HETATM   24  C   UNK N   1      27.904  18.987   4.227  0.00  0.00     0.001 A 
HETATM   25  C   UNK N   1      26.609  18.678   3.802  0.00  0.00     0.014 A 
ENDBRANCH  12  20
ENDBRANCH   1   4
TORSDOF 4
ENDMDL
MODEL 2
REMARK VINA RESULT:      -6.8      1.525      3.097
REMARK  4 active torsions:
REMARK  status: ('A' for Active; 'I' for Inactive)
REMARK    1  A    between atoms: C_10  and  C_7 
REMARK    2  A    between atoms: C_9  and  C_8 
REMARK    3  A    between atoms: C_11  and  O_19 
REMARK    4  A    between atoms: C_12  and  O_20 
ROOT
HETATM    1  C   UNK N   1      20.172  17.343   4.477  0.00  0.00     0.192 C 
HETATM    2  O   UNK N   1      18.991  16.704   4.101  0.00  0.00    -0.399 OA
HETATM    3  H   UNK N   1      18.196  16.332   3.688  0.00  0.00     0.209 HD
ENDROOT
BRANCH   1   4
HETATM    4  C   UNK N   1      20.841  18.038   3.286  0.00  0.00     0.145 C 
HETATM    5  C   UNK N   1      19.956  19.175   2.712  0.00  0.00     0.175 C 
HETATM    6  C   UNK N   1      20.738  19.907   1.611  0.00  0.00     0.185 C 
HETATM    7  C   UNK N   1      22.000  20.598   2.181  0.00  0.00     0.217 C 
HETATM    8  C   UNK N   1      22.716  19.684   3.128  0.00  0.00     0.116 A 
HETATM    9  O   UNK N   1      21.672  21.776   2.855  0.00  0.00    -0.385 OA
HETATM   10  N   UNK N   1      23.989  19.855   3.534  0.00  0.00    -0.342 N 
HETATM   11  N   UNK N   1      22.179  18.548   3.616  0.00  0.00    -0.333 N 
HETATM   12  C   UNK N   1      24.256  18.765   4.282  0.00  0.00     0.059 A 
ATOM     13  HN  UNK N   1      24.612  20.635   3.322  1.00  0.00     0.167 HD
HETATM   14  C   UNK N   1      23.140  17.944   4.333  0.00  0.00     0.123 A 
HETATM   15  H   UNK N   1      21.287  22.511   3.358  0.00  0.00     0.210 HD
BRANCH   5  16
HETATM   16  O   UNK N   1      18.780  18.630   2.189  0.00  0.00    -0.391 OA
HETATM   17  H   UNK N   1      18.450  17.748   2.425  0.00  0.00     0.210 HD
ENDBRANCH   5  16
BRANCH   6  18
HETATM   18  O   UNK N   1      19.933  20.848   0.965  0.00  0.00    -0.390 OA
HETATM   19  H   UNK N   1      20.266  21.668   0.568  0.00  0.00     0.210 HD
ENDBRANCH   6  18
BRANCH  12  20
HETATM   20  C   UNK N   1      25.585  18.445   4.824  0.00  0.00    -0.008 A 
HETATM   21  C   UNK N   1      25.874  17.151   5.280  0.00  0.00     0.014 A 
HETATM   22  C   UNK N   1      27.164  16.829   5.712  0.00  0.00     0.001 A 
HETATM   23  C   UNK N   1      28.175  17.792   5.674  0.00  0.00     0.000 A 
HETATM   24  C   UNK N   1      27.893  19.084   5.222  0.00  0.00     0.001 A 
HETATM   25  C   UNK N   1      26.602  19.410   4.799  0.00  0.00     0.014 A 
ENDBRANCH  12  20
ENDBRANCH   1   4
TORSDOF 4
ENDMDL
MODEL 3
REMARK VINA RESULT:      -6.6      1.246      2.882
REMARK  4 active torsions:
REMARK  status: ('A' for Active; 'I' for Inactive)
REMARK    1  A    between atoms: C_10  and  C_7 
REMARK    2  A    between atoms: C_9  and  C_8 
REMARK    3  A    between atoms: C_11  and  O_19 
REMARK    4  A    between atoms: C_12  and  O_20 
ROOT
HETATM    1  C   UNK N   1      21.217  16.003   5.575  0.00  0.00     0.192 C 
HETATM    2  O   UNK N   1      20.290  16.467   6.509  0.00  0.00    -0.399 OA
HETATM    3  H   UNK N   1      19.615  16.912   7.045  0.00  0.00     0.209 HD
ENDROOT
BRANCH   1   4
HETATM    4  C   UNK N   1      21.152  16.805   4.272  0.00  0.00     0.145 C 
HETATM    5  C   UNK N   1      19.757  17.446   4.058  0.00  0.00     0.175 C 
HETATM    6  C   UNK N   1      19.803  18.335   2.806  0.00  0.00     0.185 C 
HETATM    7  C   UNK N   1      20.789  19.514   2.988  0.00  0.00     0.217 C 
HETATM    8  C   UNK N   1      22.062  19.041   3.618  0.00  0.00     0.116 A 
HETATM    9  O   UNK N   1      20.237  20.517   3.787  0.00  0.00    -0.385 OA
HETATM   10  N   UNK N   1      23.217  19.736   3.616  0.00  0.00    -0.342 N 
HETATM   11  N   UNK N   1      22.203  17.830   4.193  0.00  0.00    -0.333 N 
HETATM   12  C   UNK N   1      24.113  18.906   4.189  0.00  0.00     0.059 A 
ATOM     13  HN  UNK N   1      23.377  20.678   3.259  1.00  0.00     0.167 HD
HETATM   14  C   UNK N   1      23.494  17.717   4.544  0.00  0.00     0.123 A 
HETATM   15  H   UNK N   1      19.762  21.078   4.421  0.00  0.00     0.210 HD
BRANCH   5  16
HETATM   16  O   UNK N   1      18.801  16.438   3.901  0.00  0.00    -0.391 OA
HETATM   17  H   UNK N   1      17.863  16.615   3.733  0.00  0.00     0.210 HD
ENDBRANCH   5  16
BRANCH   6  18
HETATM   18  O   UNK N   1      18.532  18.823   2.489  0.00  0.00    -0.390 OA
HETATM   19  H   UNK N   1      17.710  18.490   2.882  0.00  0.00     0.210 HD
ENDBRANCH   6  18
BRANCH  12  20
HETATM   20  C   UNK N   1      25.554  19.186   4.274  0.00  0.00    -0.008 A 
HETATM   21  C   UNK N   1      26.012  20.396   4.813  0.00  0.00     0.014 A 
HETATM   22  C   UNK N   1      27.383  20.621   4.972  0.00  0.00     0.001 A 
HETATM   23  C   UNK N   1      28.300  19.632   4.610  0.00  0.00     0.000 A 
HETATM   24  C   UNK N   1      27.851  18.424   4.071  0.00  0.00     0.001 A 
HETATM   25  C   UNK N   1      26.481  18.202   3.902  0.00  0.00     0.014 A 
ENDBRANCH  12  20
ENDBRANCH   1   4
TORSDOF 4
ENDMDL
MODEL 4
REMARK VINA RESULT:      -6.5     14.969     17.698
REMARK  4 active torsions:
REMARK  status: ('A' for Active; 'I' for Inactive)
REMARK    1  A    between atoms: C_10  and  C_7 
REMARK    2  A    between atoms: C_9  and  C_8 
REMARK    3  A    between atoms: C_11  and  O_19 
REMARK    4  A    between atoms: C_12  and  O_20 
ROOT
HETATM    1  C   UNK N   1      34.850  15.971  10.952  0.00  0.00     0.192 C 
HETATM    2  O   UNK N   1      35.730  16.987  10.581  0.00  0.00    -0.399 OA
HETATM    3  H   UNK N   1      36.449  17.568  10.287  0.00  0.00     0.209 HD
ENDROOT
BRANCH   1   4
HETATM    4  C   UNK N   1      35.424  14.586  10.636  0.00  0.00     0.145 C 
HETATM    5  C   UNK N   1      36.481  14.645   9.504  0.00  0.00     0.175 C 
HETATM    6  C   UNK N   1      37.104  13.251   9.330  0.00  0.00     0.185 C 
HETATM    7  C   UNK N   1      37.867  12.812  10.602  0.00  0.00     0.217 C 
HETATM    8  C   UNK N   1      37.068  13.128  11.829  0.00  0.00     0.116 A 
HETATM    9  O   UNK N   1      39.106  13.450  10.695  0.00  0.00    -0.385 OA
HETATM   10  N   UNK N   1      37.298  12.595  13.045  0.00  0.00    -0.342 N 
HETATM   11  N   UNK N   1      35.983  13.929  11.826  0.00  0.00    -0.333 N 
HETATM   12  C   UNK N   1      36.296  13.066  13.817  0.00  0.00     0.059 A 
ATOM     13  HN  UNK N   1      38.059  11.974  13.321  1.00  0.00     0.167 HD
HETATM   14  C   UNK N   1      35.471  13.889  13.066  0.00  0.00     0.123 A 
HETATM   15  H   UNK N   1      39.884  14.028  10.670  0.00  0.00     0.210 HD
BRANCH   5  16
HETATM   16  O   UNK N   1      35.869  15.053   8.316  0.00  0.00    -0.391 OA
HETATM   17  H   UNK N   1      34.919  15.234   8.241  0.00  0.00     0.210 HD
ENDBRANCH   5  16
BRANCH   6  18
HETATM   18  O   UNK N   1      37.960  13.218   8.227  0.00  0.00    -0.390 OA
HETATM   19  H   UNK N   1      38.456  13.986   7.901  0.00  0.00     0.210 HD
ENDBRANCH   6  18
BRANCH  12  20
HETATM   20  C   UNK N   1      36.053  12.635  15.201  0.00  0.00    -0.008 A 
HETATM   21  C   UNK N   1      35.325  13.449  16.082  0.00  0.00     0.014 A 
HETATM   22  C   UNK N   1      35.022  12.997  17.369  0.00  0.00     0.001 A 
HETATM   23  C   UNK N   1      35.428  11.724  17.777  0.00  0.00     0.000 A 
HETATM   24  C   UNK N   1      36.154  10.908  16.905  0.00  0.00     0.001 A 
HETATM   25  C   UNK N   1      36.467  11.363  15.621  0.00  0.00     0.014 A 
ENDBRANCH  12  20
ENDBRANCH   1   4
TORSDOF 4
ENDMDL
MODEL 5
REMARK VINA RESULT:      -6.5      5.936      7.644
REMARK  4 active torsions:
REMARK  status: ('A' for Active; 'I' for Inactive)
REMARK    1  A    between atoms: C_10  and  C_7 
REMARK    2  A    between atoms: C_9  and  C_8 
REMARK    3  A    between atoms: C_11  and  O_19 
REMARK    4  A    between atoms: C_12  and  O_20 
ROOT
HETATM    1  C   UNK N   1      19.545  11.844   4.663  0.00  0.00     0.192 C 
HETATM    2  O   UNK N   1      18.179  11.838   4.379  0.00  0.00    -0.399 OA
HETATM    3  H   UNK N   1      17.238  12.000   4.212  0.00  0.00     0.209 HD
ENDROOT
BRANCH   1   4
HETATM    4  C   UNK N   1      20.071  13.268   4.868  0.00  0.00     0.145 C 
HETATM    5  C   UNK N   1      19.050  14.333   4.392  0.00  0.00     0.175 C 
HETATM    6  C   UNK N   1      19.585  15.730   4.744  0.00  0.00     0.185 C 
HETATM    7  C   UNK N   1      19.710  15.916   6.275  0.00  0.00     0.217 C 
HETATM    8  C   UNK N   1      20.318  14.699   6.904  0.00  0.00     0.116 A 
HETATM    9  O   UNK N   1      18.464  16.150   6.861  0.00  0.00    -0.385 OA
HETATM   10  N   UNK N   1      20.847  14.667   8.142  0.00  0.00    -0.342 N 
HETATM   11  N   UNK N   1      20.464  13.523   6.261  0.00  0.00    -0.333 N 
HETATM   12  C   UNK N   1      21.365  13.426   8.257  0.00  0.00     0.059 A 
ATOM     13  HN  UNK N   1      20.854  15.414   8.838  1.00  0.00     0.167 HD
HETATM   14  C   UNK N   1      21.138  12.711   7.091  0.00  0.00     0.123 A 
HETATM   15  H   UNK N   1      17.534  16.211   7.131  0.00  0.00     0.210 HD
BRANCH   5  16
HETATM   16  O   UNK N   1      18.868  14.219   3.011  0.00  0.00    -0.391 OA
HETATM   17  H   UNK N   1      19.398  14.706   2.361  0.00  0.00     0.210 HD
ENDBRANCH   5  16
BRANCH   6  18
HETATM   18  O   UNK N   1      18.769  16.730   4.209  0.00  0.00    -0.390 OA
HETATM   19  H   UNK N   1      18.720  16.942   3.263  0.00  0.00     0.210 HD
ENDBRANCH   6  18
BRANCH  12  20
HETATM   20  C   UNK N   1      22.176  12.977   9.399  0.00  0.00    -0.008 A 
HETATM   21  C   UNK N   1      21.560  12.524  10.573  0.00  0.00     0.014 A 
HETATM   22  C   UNK N   1      22.331  12.016  11.622  0.00  0.00     0.001 A 
HETATM   23  C   UNK N   1      23.720  11.942  11.496  0.00  0.00     0.000 A 
HETATM   24  C   UNK N   1      24.342  12.394  10.328  0.00  0.00     0.001 A 
HETATM   25  C   UNK N   1      23.572  12.911   9.283  0.00  0.00     0.014 A 
ENDBRANCH  12  20
ENDBRANCH   1   4
TORSDOF 4
ENDMDL
MODEL 6
REMARK VINA RESULT:      -6.5      6.740      9.102
REMARK  4 active torsions:
REMARK  status: ('A' for Active; 'I' for Inactive)
REMARK    1  A    between atoms: C_10  and  C_7 
REMARK    2  A    between atoms: C_9  and  C_8 
REMARK    3  A    between atoms: C_11  and  O_19 
REMARK    4  A    between atoms: C_12  and  O_20 
ROOT
HETATM    1  C   UNK N   1      28.872  16.993   4.727  0.00  0.00     0.192 C 
HETATM    2  O   UNK N   1      28.734  17.570   3.465  0.00  0.00    -0.399 OA
HETATM    3  H   UNK N   1      28.635  18.118   2.671  0.00  0.00     0.209 HD
ENDROOT
BRANCH   1   4
HETATM    4  C   UNK N   1      29.028  18.058   5.818  0.00  0.00     0.145 C 
HETATM    5  C   UNK N   1      27.656  18.600   6.294  0.00  0.00     0.175 C 
HETATM    6  C   UNK N   1      27.880  19.562   7.471  0.00  0.00     0.185 C 
HETATM    7  C   UNK N   1      28.493  18.830   8.688  0.00  0.00     0.217 C 
HETATM    8  C   UNK N   1      29.593  17.912   8.250  0.00  0.00     0.116 A 
HETATM    9  O   UNK N   1      27.529  18.083   9.369  0.00  0.00    -0.385 OA
HETATM   10  N   UNK N   1      30.520  17.387   9.074  0.00  0.00    -0.342 N 
HETATM   11  N   UNK N   1      29.812  17.573   6.963  0.00  0.00    -0.333 N 
HETATM   12  C   UNK N   1      31.362  16.720   8.257  0.00  0.00     0.059 A 
ATOM     13  HN  UNK N   1      30.574  17.476  10.089  1.00  0.00     0.167 HD
HETATM   14  C   UNK N   1      30.933  16.835   6.944  0.00  0.00     0.123 A 
HETATM   15  H   UNK N   1      26.780  17.550   9.678  0.00  0.00     0.210 HD
BRANCH   5  16
HETATM   16  O   UNK N   1      27.027  19.265   5.238  0.00  0.00    -0.391 OA
HETATM   17  H   UNK N   1      27.079  20.225   5.106  0.00  0.00     0.210 HD
ENDBRANCH   5  16
BRANCH   6  18
HETATM   18  O   UNK N   1      26.687  20.187   7.843  0.00  0.00    -0.390 OA
HETATM   19  H   UNK N   1      26.417  21.067   7.537  0.00  0.00     0.210 HD
ENDBRANCH   6  18
BRANCH  12  20
HETATM   20  C   UNK N   1      32.619  16.100   8.702  0.00  0.00    -0.008 A 
HETATM   21  C   UNK N   1      33.769  16.880   8.885  0.00  0.00     0.014 A 
HETATM   22  C   UNK N   1      34.937  16.303   9.392  0.00  0.00     0.001 A 
HETATM   23  C   UNK N   1      34.957  14.949   9.733  0.00  0.00     0.000 A 
HETATM   24  C   UNK N   1      33.814  14.165   9.552  0.00  0.00     0.001 A 
HETATM   25  C   UNK N   1      32.648  14.739   9.036  0.00  0.00     0.014 A 
ENDBRANCH  12  20
ENDBRANCH   1   4
TORSDOF 4
ENDMDL
MODEL 7
REMARK VINA RESULT:      -6.4     16.256     18.740
REMARK  4 active torsions:
REMARK  status: ('A' for Active; 'I' for Inactive)
REMARK    1  A    between atoms: C_10  and  C_7 
REMARK    2  A    between atoms: C_9  and  C_8 
REMARK    3  A    between atoms: C_11  and  O_19 
REMARK    4  A    between atoms: C_12  and  O_20 
ROOT
HETATM    1  C   UNK N   1      37.570  10.413  11.991  0.00  0.00     0.192 C 
HETATM    2  O   UNK N   1      36.712   9.910  11.014  0.00  0.00    -0.399 OA
HETATM    3  H   UNK N   1      36.050   9.718  10.331  0.00  0.00     0.209 HD
ENDROOT
BRANCH   1   4
HETATM    4  C   UNK N   1      37.392  11.923  12.175  0.00  0.00     0.145 C 
HETATM    5  C   UNK N   1      36.812  12.594  10.903  0.00  0.00     0.175 C 
HETATM    6  C   UNK N   1      36.540  14.076  11.201  0.00  0.00     0.185 C 
HETATM    7  C   UNK N   1      35.461  14.242  12.299  0.00  0.00     0.217 C 
HETATM    8  C   UNK N   1      35.706  13.284  13.424  0.00  0.00     0.116 A 
HETATM    9  O   UNK N   1      34.181  14.019  11.788  0.00  0.00    -0.385 OA
HETATM   10  N   UNK N   1      35.154  13.391  14.648  0.00  0.00    -0.342 N 
HETATM   11  N   UNK N   1      36.567  12.250  13.347  0.00  0.00    -0.333 N 
HETATM   12  C   UNK N   1      35.721  12.398  15.364  0.00  0.00     0.059 A 
ATOM     13  HN  UNK N   1      34.463  14.073  14.964  1.00  0.00     0.167 HD
HETATM   14  C   UNK N   1      36.605  11.688  14.566  0.00  0.00     0.123 A 
HETATM   15  H   UNK N   1      33.375  13.752  11.318  0.00  0.00     0.210 HD
BRANCH   5  16
HETATM   16  O   UNK N   1      37.727  12.471   9.854  0.00  0.00    -0.391 OA
HETATM   17  H   UNK N   1      38.141  13.231   9.417  0.00  0.00     0.210 HD
ENDBRANCH   5  16
BRANCH   6  18
HETATM   18  O   UNK N   1      36.150  14.757  10.045  0.00  0.00    -0.390 OA
HETATM   19  H   UNK N   1      36.554  14.623   9.173  0.00  0.00     0.210 HD
ENDBRANCH   6  18
BRANCH  12  20
HETATM   20  C   UNK N   1      35.526  12.213  16.810  0.00  0.00    -0.008 A 
HETATM   21  C   UNK N   1      35.690  10.948  17.392  0.00  0.00     0.014 A 
HETATM   22  C   UNK N   1      35.590  10.793  18.778  0.00  0.00     0.001 A 
HETATM   23  C   UNK N   1      35.345  11.903  19.589  0.00  0.00     0.000 A 
HETATM   24  C   UNK N   1      35.180  13.167  19.015  0.00  0.00     0.001 A 
HETATM   25  C   UNK N   1      35.270  13.321  17.629  0.00  0.00     0.014 A 
ENDBRANCH  12  20
ENDBRANCH   1   4
TORSDOF 4
ENDMDL
MODEL 8
REMARK VINA RESULT:      -6.4     11.402     14.422
REMARK  4 active torsions:
REMARK  status: ('A' for Active; 'I' for Inactive)
REMARK    1  A    between atoms: C_10  and  C_7 
REMARK    2  A    between atoms: C_9  and  C_8 
REMARK    3  A    between atoms: C_11  and  O_19 
REMARK    4  A    between atoms: C_12  and  O_20 
ROOT
HETATM    1  C   UNK N   1      34.359  12.097   9.887  0.00  0.00     0.192 C 
HETATM    2  O   UNK N   1      33.772  11.097  10.663  0.00  0.00    -0.399 OA
HETATM    3  H   UNK N   1      33.354  10.521  11.322  0.00  0.00     0.209 HD
ENDROOT
BRANCH   1   4
HETATM    4  C   UNK N   1      34.341  13.450  10.605  0.00  0.00     0.145 C 
HETATM    5  C   UNK N   1      35.537  13.600  11.581  0.00  0.00     0.175 C 
HETATM    6  C   UNK N   1      35.527  15.021  12.165  0.00  0.00     0.185 C 
HETATM    7  C   UNK N   1      35.742  16.086  11.062  0.00  0.00     0.217 C 
HETATM    8  C   UNK N   1      34.913  15.766   9.856  0.00  0.00     0.116 A 
HETATM    9  O   UNK N   1      37.083  16.156  10.681  0.00  0.00    -0.385 OA
HETATM   10  N   UNK N   1      34.630  16.643   8.873  0.00  0.00    -0.342 N 
HETATM   11  N   UNK N   1      34.301  14.580   9.667  0.00  0.00    -0.333 N 
HETATM   12  C   UNK N   1      33.786  15.977   8.058  0.00  0.00     0.059 A 
ATOM     13  HN  UNK N   1      34.977  17.597   8.769  1.00  0.00     0.167 HD
HETATM   14  C   UNK N   1      33.570  14.698   8.547  0.00  0.00     0.123 A 
HETATM   15  H   UNK N   1      38.019  16.030  10.461  0.00  0.00     0.210 HD
BRANCH   5  16
HETATM   16  O   UNK N   1      35.424  12.655  12.604  0.00  0.00    -0.391 OA
HETATM   17  H   UNK N   1      34.620  12.136  12.764  0.00  0.00     0.210 HD
ENDBRANCH   5  16
BRANCH   6  18
HETATM   18  O   UNK N   1      36.501  15.162  13.157  0.00  0.00    -0.390 OA
HETATM   19  H   UNK N   1      36.459  15.819  13.870  0.00  0.00     0.210 HD
ENDBRANCH   6  18
BRANCH  12  20
HETATM   20  C   UNK N   1      33.094  16.591   6.914  0.00  0.00    -0.008 A 
HETATM   21  C   UNK N   1      33.825  17.095   5.830  0.00  0.00     0.014 A 
HETATM   22  C   UNK N   1      33.162  17.597   4.707  0.00  0.00     0.001 A 
HETATM   23  C   UNK N   1      31.766  17.581   4.654  0.00  0.00     0.000 A 
HETATM   24  C   UNK N   1      31.031  17.081   5.732  0.00  0.00     0.001 A 
HETATM   25  C   UNK N   1      31.693  16.588   6.860  0.00  0.00     0.014 A 
ENDBRANCH  12  20
ENDBRANCH   1   4
TORSDOF 4
ENDMDL
MODEL 9
REMARK VINA RESULT:      -6.3     10.886     12.919
REMARK  4 active torsions:
REMARK  status: ('A' for Active; 'I' for Inactive)
REMARK    1  A    between atoms: C_10  and  C_7 
REMARK    2  A    between atoms: C_9  and  C_8 
REMARK    3  A    between atoms: C_11  and  O_19 
REMARK    4  A    between atoms: C_12  and  O_20 
ROOT
HETATM    1  C   UNK N   1      32.314  24.788  -5.681  0.00  0.00     0.192 C 
HETATM    2  O   UNK N   1      33.372  25.116  -4.833  0.00  0.00    -0.399 OA
HETATM    3  H   UNK N   1      34.036  25.234  -4.136  0.00  0.00     0.209 HD
ENDROOT
BRANCH   1   4
HETATM    4  C   UNK N   1      31.455  23.660  -5.100  0.00  0.00     0.145 C 
HETATM    5  C   UNK N   1      32.219  22.853  -4.019  0.00  0.00     0.175 C 
HETATM    6  C   UNK N   1      31.261  21.828  -3.393  0.00  0.00     0.185 C 
HETATM    7  C   UNK N   1      30.093  22.525  -2.656  0.00  0.00     0.217 C 
HETATM    8  C   UNK N   1      29.551  23.652  -3.480  0.00  0.00     0.116 A 
HETATM    9  O   UNK N   1      30.503  23.029  -1.419  0.00  0.00    -0.385 OA
HETATM   10  N   UNK N   1      28.355  24.238  -3.275  0.00  0.00    -0.342 N 
HETATM   11  N   UNK N   1      30.177  24.150  -4.565  0.00  0.00    -0.333 N 
HETATM   12  C   UNK N   1      28.228  25.114  -4.294  0.00  0.00     0.059 A 
ATOM     13  HN  UNK N   1      27.693  24.058  -2.520  1.00  0.00     0.167 HD
HETATM   14  C   UNK N   1      29.352  25.062  -5.103  0.00  0.00     0.123 A 
HETATM   15  H   UNK N   1      30.950  23.397  -0.641  0.00  0.00     0.210 HD
BRANCH   5  16
HETATM   16  O   UNK N   1      33.307  22.202  -4.607  0.00  0.00    -0.391 OA
HETATM   17  H   UNK N   1      33.693  21.384  -4.256  0.00  0.00     0.210 HD
ENDBRANCH   5  16
BRANCH   6  18
HETATM   18  O   UNK N   1      31.939  20.979  -2.514  0.00  0.00    -0.390 OA
HETATM   19  H   UNK N   1      31.555  20.626  -1.696  0.00  0.00     0.210 HD
ENDBRANCH   6  18
BRANCH  12  20
HETATM   20  C   UNK N   1      27.006  25.886  -4.565  0.00  0.00    -0.008 A 
HETATM   21  C   UNK N   1      26.640  26.954  -3.733  0.00  0.00     0.014 A 
HETATM   22  C   UNK N   1      25.527  27.739  -4.044  0.00  0.00     0.001 A 
HETATM   23  C   UNK N   1      24.785  27.474  -5.197  0.00  0.00     0.000 A 
HETATM   24  C   UNK N   1      25.142  26.411  -6.030  0.00  0.00     0.001 A 
HETATM   25  C   UNK N   1      26.250  25.618  -5.715  0.00  0.00     0.014 A 
ENDBRANCH  12  20
ENDBRANCH   1   4
TORSDOF 4
ENDMDL
