MODEL 1
REMARK VINA RESULT:      -3.0      0.000      0.000
REMARK  0 active torsions:
REMARK  status: ('A' for Active; 'I' for Inactive)
ROOT
HETATM    1  C   UNK N   1      32.614  17.366   8.644  0.00  0.00     0.116 C 
HETATM    2  P   UNK N   1      34.120  18.092   7.836  0.00  0.00     0.093 P 
HETATM    3  O   UNK N   1      35.271  19.181   8.542  0.00  0.00    -0.669 OA
HETATM    4  O   UNK N   1      34.480  17.751   6.365  0.00  0.00    -0.669 OA
HETATM    5  H   UNK N   1      33.891  18.460   9.146  0.00  0.00     0.130 HD
ENDROOT
TORSDOF 0
ENDMDL
MODEL 2
REMARK VINA RESULT:      -2.9     14.351     14.752
REMARK  0 active torsions:
REMARK  status: ('A' for Active; 'I' for Inactive)
ROOT
HETATM    1  C   UNK N   1      19.713  19.323   2.662  0.00  0.00     0.116 C 
HETATM    2  P   UNK N   1      20.980  20.439   1.887  0.00  0.00     0.093 P 
HETATM    3  O   UNK N   1      21.227  20.733   0.195  0.00  0.00    -0.669 OA
HETATM    4  O   UNK N   1      21.977  21.245   2.761  0.00  0.00    -0.669 OA
HETATM    5  H   UNK N   1      20.141  19.768   1.020  0.00  0.00     0.130 HD
ENDROOT
TORSDOF 0
ENDMDL
MODEL 3
REMARK VINA RESULT:      -2.8      0.427      1.952
REMARK  0 active torsions:
REMARK  status: ('A' for Active; 'I' for Inactive)
ROOT
HETATM    1  C   UNK N   1      32.263  17.838   8.445  0.00  0.00     0.116 C 
HETATM    2  P   UNK N   1      33.961  18.098   7.737  0.00  0.00     0.093 P 
HETATM    3  O   UNK N   1      34.636  17.352   6.324  0.00  0.00    -0.669 OA
HETATM    4  O   UNK N   1      34.965  19.072   8.408  0.00  0.00    -0.669 OA
HETATM    5  H   UNK N   1      33.145  17.212   7.064  0.00  0.00     0.130 HD
ENDROOT
TORSDOF 0
ENDMDL
MODEL 4
REMARK VINA RESULT:      -2.8     14.349     14.635
REMARK  0 active torsions:
REMARK  status: ('A' for Active; 'I' for Inactive)
ROOT
HETATM    1  C   UNK N   1      20.239  18.712   2.141  0.00  0.00     0.116 C 
HETATM    2  P   UNK N   1      21.076  20.284   1.612  0.00  0.00     0.093 P 
HETATM    3  O   UNK N   1      21.919  21.417   2.619  0.00  0.00    -0.669 OA
HETATM    4  O   UNK N   1      21.080  20.725   0.124  0.00  0.00    -0.669 OA
HETATM    5  H   UNK N   1      21.131  19.983   2.958  0.00  0.00     0.130 HD
ENDROOT
TORSDOF 0
ENDMDL
MODEL 5
REMARK VINA RESULT:      -2.7      1.889      1.997
REMARK  0 active torsions:
REMARK  status: ('A' for Active; 'I' for Inactive)
ROOT
HETATM    1  C   UNK N   1      33.717  17.512   6.356  0.00  0.00     0.116 C 
HETATM    2  P   UNK N   1      34.295  17.947   8.067  0.00  0.00     0.093 P 
HETATM    3  O   UNK N   1      35.310  19.276   8.528  0.00  0.00    -0.669 OA
HETATM    4  O   UNK N   1      33.882  17.089   9.292  0.00  0.00    -0.669 OA
HETATM    5  H   UNK N   1      34.720  18.775   7.047  0.00  0.00     0.130 HD
ENDROOT
TORSDOF 0
ENDMDL
MODEL 6
REMARK VINA RESULT:      -2.6     11.752     11.945
REMARK  0 active torsions:
REMARK  status: ('A' for Active; 'I' for Inactive)
ROOT
HETATM    1  C   UNK N   1      30.349  21.845  -4.418  0.00  0.00     0.116 C 
HETATM    2  P   UNK N   1      31.167  22.144  -2.777  0.00  0.00     0.093 P 
HETATM    3  O   UNK N   1      32.674  21.491  -2.220  0.00  0.00    -0.669 OA
HETATM    4  O   UNK N   1      30.512  23.065  -1.714  0.00  0.00    -0.669 OA
HETATM    5  H   UNK N   1      31.833  21.309  -3.651  0.00  0.00     0.130 HD
ENDROOT
TORSDOF 0
ENDMDL
MODEL 7
REMARK VINA RESULT:      -2.4      1.638      2.282
REMARK  0 active torsions:
REMARK  status: ('A' for Active; 'I' for Inactive)
ROOT
HETATM    1  C   UNK N   1      33.209  15.807   8.934  0.00  0.00     0.116 C 
HETATM    2  P   UNK N   1      34.406  17.221   8.797  0.00  0.00     0.093 P 
HETATM    3  O   UNK N   1      34.623  18.287   7.446  0.00  0.00    -0.669 OA
HETATM    4  O   UNK N   1      35.364  17.572   9.966  0.00  0.00    -0.669 OA
HETATM    5  H   UNK N   1      33.598  16.993   7.701  0.00  0.00     0.130 HD
ENDROOT
TORSDOF 0
ENDMDL
MODEL 8
REMARK VINA RESULT:      -2.3     10.792     11.142
REMARK  0 active torsions:
REMARK  status: ('A' for Active; 'I' for Inactive)
ROOT
HETATM    1  C   UNK N   1      24.830  18.882   4.101  0.00  0.00     0.116 C 
HETATM    2  P   UNK N   1      24.514  20.376   3.043  0.00  0.00     0.093 P 
HETATM    3  O   UNK N   1      23.023  21.246   2.872  0.00  0.00    -0.669 OA
HETATM    4  O   UNK N   1      25.642  20.993   2.175  0.00  0.00    -0.669 OA
HETATM    5  H   UNK N   1      23.443  19.905   3.775  0.00  0.00     0.130 HD
ENDROOT
TORSDOF 0
ENDMDL
MODEL 9
REMARK VINA RESULT:      -2.2     17.155     17.376
REMARK  0 active torsions:
REMARK  status: ('A' for Active; 'I' for Inactive)
ROOT
HETATM    1  C   UNK N   1      24.757  27.153  -5.613  0.00  0.00     0.116 C 
HETATM    2  P   UNK N   1      25.789  27.405  -4.090  0.00  0.00     0.093 P 
HETATM    3  O   UNK N   1      26.042  28.888  -3.226  0.00  0.00    -0.669 OA
HETATM    4  O   UNK N   1      26.551  26.222  -3.437  0.00  0.00    -0.669 OA
HETATM    5  H   UNK N   1      25.152  28.523  -4.591  0.00  0.00     0.130 HD
ENDROOT
TORSDOF 0
ENDMDL
