REMARK  21 active torsions:
REMARK  status: ('A' for Active; 'I' for Inactive)
REMARK    1  A    between atoms: C_10  and  C_4 
REMARK    2  A    between atoms: C_11  and  C_4 
REMARK    3  A    between atoms: C_13  and  C_6 
REMARK    4  A    between atoms: O_46  and  C_6 
REMARK    5  A    between atoms: C_14  and  C_7 
REMARK    6  A    between atoms: O_47  and  C_7 
REMARK    7  A    between atoms: C_21  and  C_12 
REMARK    8  A    between atoms: C_16  and  O_37 
REMARK    9  A    between atoms: C_17  and  O_38 
REMARK   10  A    between atoms: C_18  and  O_39 
REMARK   11  A    between atoms: C_19  and  O_40 
REMARK   12  A    between atoms: N_25  and  C_20 
REMARK   13  A    between atoms: N_26  and  C_21 
REMARK   14  A    between atoms: O_41  and  C_21 
REMARK   15  A    between atoms: C_23  and  N_34 
REMARK   16  A    between atoms: C_24  and  N_35 
REMARK   17  A    between atoms: P_51  and  O_43 
REMARK   18  A    between atoms: P_51  and  O_46 
REMARK   19  A    between atoms: P_52  and  O_47 
REMARK   20  A    between atoms: P_51  and  O_50 
REMARK   21  A    between atoms: P_52  and  O_50 
ROOT
HETATM    1  O   UNK N   1      -4.891  -5.500  -0.036  0.00  0.00    -0.631 OA
HETATM    2  P   UNK N   1      -3.574  -4.951   0.572  0.00  0.00     0.402 P 
ENDROOT
BRANCH   2   3
HETATM    3  O   UNK N   1      -3.388  -5.861   2.036  0.00  0.00    -0.307 OA
HETATM    4  H   UNK N   1      -3.776  -6.205   2.856  0.00  0.00     0.222 HD
ENDBRANCH   2   3
BRANCH   2   5
HETATM    5  O   UNK N   1      -3.803  -3.259   0.983  0.00  0.00    -0.294 OA
BRANCH   5   6
HETATM    6  C   UNK N   1      -4.302  -2.550  -0.123  0.00  0.00     0.215 C 
BRANCH   6   7
HETATM    7  C   UNK N   1      -5.826  -2.657  -0.280  0.00  0.00     0.180 C 
HETATM    8  C   UNK N   1      -6.622  -2.609   1.021  0.00  0.00     0.182 C 
HETATM    9  C   UNK N   1      -7.984  -2.438   0.424  0.00  0.00     0.198 C 
HETATM   10  C   UNK N   1      -7.681  -1.410  -0.674  0.00  0.00     0.259 C 
HETATM   11  O   UNK N   1      -6.323  -1.599  -1.069  0.00  0.00    -0.353 OA
BRANCH   8  12
HETATM   12  O   UNK N   1      -6.520  -3.788   1.765  0.00  0.00    -0.390 OA
HETATM   13  H   UNK N   1      -7.193  -4.258   2.282  0.00  0.00     0.210 HD
ENDBRANCH   8  12
BRANCH   9  14
HETATM   14  O   UNK N   1      -8.963  -2.057   1.344  0.00  0.00    -0.388 OA
HETATM   15  H   UNK N   1      -9.074  -1.336   1.983  0.00  0.00     0.210 HD
ENDBRANCH   9  14
BRANCH  10  16
HETATM   16  N   UNK N   1      -7.937   0.001  -0.314  0.00  0.00    -0.336 N 
HETATM   17  C   UNK N   1      -6.923   0.914  -0.303  0.00  0.00     0.094 A 
HETATM   18  C   UNK N   1      -7.197   2.284  -0.263  0.00  0.00     0.026 A 
HETATM   19  C   UNK N   1      -8.522   2.733  -0.255  0.00  0.00    -0.034 A 
HETATM   20  C   UNK N   1      -9.571   1.779  -0.219  0.00  0.00     0.036 A 
HETATM   21  C   UNK N   1      -9.235   0.418  -0.248  0.00  0.00     0.109 A 
BRANCH  19  22
HETATM   22  C   UNK N   1      -8.800   4.206  -0.412  0.00  0.00     0.117 C 
BRANCH  22  23
HETATM   23  C   UNK N   1      -8.108   5.099   0.562  0.00  0.00     0.127 C 
HETATM   24  C   UNK N   1      -8.843   5.607   1.752  0.00  0.00     0.091 C 
HETATM   25  O   UNK N   1      -6.987   5.513   0.317  0.00  0.00    -0.298 OA
ENDBRANCH  22  23
ENDBRANCH  19  22
BRANCH  20  26
HETATM   26  C   UNK N   1     -11.021   2.133  -0.253  0.00  0.00     0.145 C 
BRANCH  26  27
HETATM   27  N   UNK N   1     -11.414   3.353  -0.282  0.00  0.00    -0.379 N 
HETATM   28  H   UNK N   1     -10.754   4.083  -0.304  0.00  0.00     0.158 HD
ATOM     29  HN  UNK N   1     -12.412   3.567  -0.282  1.00  0.00     0.158 HD
ENDBRANCH  26  27
BRANCH  26  30
HETATM   30  O   UNK N   1     -11.944   1.151  -0.278  0.00  0.00    -0.346 OA
HETATM   31  H   UNK N   1     -12.856   1.365  -0.295  0.00  0.00     0.219 HD
ENDBRANCH  26  30
ENDBRANCH  20  26
ENDBRANCH  10  16
ENDBRANCH   6   7
ENDBRANCH   5   6
ENDBRANCH   2   5
BRANCH   2  32
HETATM   32  O   UNK N   1      -2.305  -5.396  -0.539  0.00  0.00    -0.188 OA
BRANCH  32  33
HETATM   33  P   UNK N   1      -1.149  -4.102  -0.646  0.00  0.00     0.417 P 
HETATM   34  O   UNK N   1       0.191  -4.790  -1.019  0.00  0.00    -0.624 OA
HETATM   35  O   UNK N   1      -1.521  -3.060  -1.989  0.00  0.00    -0.624 OA
BRANCH  33  36
HETATM   36  O   UNK N   1      -0.849  -3.237   0.840  0.00  0.00    -0.287 OA
BRANCH  36  37
HETATM   37  C   UNK N   1      -0.923  -1.894   0.466  0.00  0.00     0.216 C 
BRANCH  37  38
HETATM   38  C   UNK N   1       0.374  -1.130   0.717  0.00  0.00     0.180 C 
HETATM   39  C   UNK N   1       1.649  -1.843   0.268  0.00  0.00     0.182 C 
HETATM   40  C   UNK N   1       2.555  -0.650   0.232  0.00  0.00     0.198 C 
HETATM   41  C   UNK N   1       1.633   0.346  -0.477  0.00  0.00     0.262 C 
HETATM   42  O   UNK N   1       0.328   0.103   0.026  0.00  0.00    -0.353 OA
BRANCH  39  43
HETATM   43  O   UNK N   1       1.505  -2.358  -1.027  0.00  0.00    -0.390 OA
HETATM   44  H   UNK N   1       1.146  -2.449  -1.923  0.00  0.00     0.210 HD
ENDBRANCH  39  43
BRANCH  40  45
HETATM   45  O   UNK N   1       3.743  -0.902  -0.460  0.00  0.00    -0.388 OA
HETATM   46  H   UNK N   1       4.004  -1.704  -0.939  0.00  0.00     0.210 HD
ENDBRANCH  40  45
BRANCH  41  47
HETATM   47  N   UNK N   1       1.990   1.751  -0.249  0.00  0.00    -0.297 N 
HETATM   48  C   UNK N   1       1.103   2.781  -0.237  0.00  0.00     0.188 A 
HETATM   49  N   UNK N   1       1.716   3.967   0.032  0.00  0.00    -0.346 N 
HETATM   50  C   UNK N   1       3.011   3.644   0.182  0.00  0.00     0.122 A 
ATOM     51  HN  UNK N   1       1.288   4.890   0.105  1.00  0.00     0.167 HD
HETATM   52  C   UNK N   1       4.096   4.451   0.478  0.00  0.00     0.131 A 
HETATM   53  C   UNK N   1       3.180   2.318   0.008  0.00  0.00     0.142 A 
HETATM   54  N   UNK N   1       5.324   3.862   0.574  0.00  0.00    -0.337 N 
HETATM   55  C   UNK N   1       5.477   2.510   0.383  0.00  0.00     0.183 A 
ATOM     56  HN  UNK N   1       6.140   4.435   0.791  1.00  0.00     0.168 HD
HETATM   57  N   UNK N   1       4.392   1.724   0.099  0.00  0.00    -0.336 N 
ATOM     58  HN  UNK N   1       4.495   0.718  -0.039  1.00  0.00     0.168 HD
BRANCH  52  59
HETATM   59  N   UNK N   1       3.942   5.836   0.683  0.00  0.00    -0.383 N 
HETATM   60  H   UNK N   1       4.727   6.413   0.827  0.00  0.00     0.157 HD
HETATM   61  H   UNK N   1       3.040   6.231   0.683  0.00  0.00     0.157 HD
ENDBRANCH  52  59
ENDBRANCH  41  47
ENDBRANCH  37  38
ENDBRANCH  36  37
ENDBRANCH  33  36
ENDBRANCH  32  33
ENDBRANCH   2  32
TORSDOF 21
