MODEL 1
REMARK VINA RESULT:      -4.5      0.000      0.000
REMARK  2 active torsions:
REMARK  status: ('A' for Active; 'I' for Inactive)
REMARK    1  A    between atoms: C_2  and  N_1 
REMARK    2  A    between atoms: C_4  and  C_5 
ROOT
HETATM    1  C   UNK N   1      25.625  24.791  -5.164  0.00  0.00     0.192 A 
HETATM    2  C   UNK N   1      25.937  25.243  -6.571  0.00  0.00     0.045 A 
HETATM    3  C   UNK N   1      25.093  26.142  -5.677  0.00  0.00     0.051 A 
ENDROOT
BRANCH   3   4
HETATM    4  C   UNK N   1      25.874  27.382  -5.339  0.00  0.00    -0.052 A 
HETATM    5  C   UNK N   1      26.861  27.852  -6.221  0.00  0.00     0.007 A 
HETATM    6  C   UNK N   1      27.561  29.025  -5.939  0.00  0.00     0.001 A 
HETATM    7  C   UNK N   1      27.278  29.747  -4.774  0.00  0.00     0.000 A 
HETATM    8  C   UNK N   1      26.289  29.293  -3.896  0.00  0.00     0.001 A 
HETATM    9  C   UNK N   1      25.583  28.123  -4.181  0.00  0.00     0.007 A 
ENDBRANCH   3   4
BRANCH   1  10
HETATM   10  N   UNK N   1      26.821  24.916  -4.346  0.00  0.00    -0.074 N 
HETATM   11  H   UNK N   1      27.066  24.845  -3.358  0.00  0.00     0.274 HD
HETATM   12  H   UNK N   1      27.639  25.132  -4.916  0.00  0.00     0.274 HD
HETATM   13  H   UNK N   1      27.762  25.045  -3.975  0.00  0.00     0.274 HD
ENDBRANCH   1  10
TORSDOF 2
ENDMDL
MODEL 2
REMARK VINA RESULT:      -4.4     26.719     27.925
REMARK  2 active torsions:
REMARK  status: ('A' for Active; 'I' for Inactive)
REMARK    1  A    between atoms: C_2  and  N_1 
REMARK    2  A    between atoms: C_4  and  C_5 
ROOT
HETATM    1  C   UNK N   1      36.392  12.379  13.888  0.00  0.00     0.192 A 
HETATM    2  C   UNK N   1      35.573  13.614  14.182  0.00  0.00     0.045 A 
HETATM    3  C   UNK N   1      35.101  12.270  14.719  0.00  0.00     0.051 A 
ENDROOT
BRANCH   3   4
HETATM    4  C   UNK N   1      35.226  12.262  16.218  0.00  0.00    -0.052 A 
HETATM    5  C   UNK N   1      35.092  13.459  16.940  0.00  0.00     0.007 A 
HETATM    6  C   UNK N   1      35.162  13.457  18.334  0.00  0.00     0.001 A 
HETATM    7  C   UNK N   1      35.362  12.256  19.023  0.00  0.00     0.000 A 
HETATM    8  C   UNK N   1      35.484  11.058  18.313  0.00  0.00     0.001 A 
HETATM    9  C   UNK N   1      35.407  11.058  16.919  0.00  0.00     0.007 A 
ENDBRANCH   3   4
BRANCH   1  10
HETATM   10  N   UNK N   1      37.599  12.402  14.697  0.00  0.00    -0.074 N 
HETATM   11  H   UNK N   1      37.866  12.170  15.655  0.00  0.00     0.274 HD
HETATM   12  H   UNK N   1      38.398  12.742  14.162  0.00  0.00     0.274 HD
HETATM   13  H   UNK N   1      38.543  12.498  15.072  0.00  0.00     0.274 HD
ENDBRANCH   1  10
TORSDOF 2
ENDMDL
MODEL 3
REMARK VINA RESULT:      -4.3      1.809      2.519
REMARK  2 active torsions:
REMARK  status: ('A' for Active; 'I' for Inactive)
REMARK    1  A    between atoms: C_2  and  N_1 
REMARK    2  A    between atoms: C_4  and  C_5 
ROOT
HETATM    1  C   UNK N   1      27.237  23.339  -6.312  0.00  0.00     0.192 A 
HETATM    2  C   UNK N   1      25.942  23.702  -6.999  0.00  0.00     0.045 A 
HETATM    3  C   UNK N   1      26.003  23.730  -5.478  0.00  0.00     0.051 A 
ENDROOT
BRANCH   3   4
HETATM    4  C   UNK N   1      25.895  25.153  -5.002  0.00  0.00    -0.052 A 
HETATM    5  C   UNK N   1      25.180  26.094  -5.761  0.00  0.00     0.007 A 
HETATM    6  C   UNK N   1      25.035  27.406  -5.307  0.00  0.00     0.001 A 
HETATM    7  C   UNK N   1      25.600  27.790  -4.086  0.00  0.00     0.000 A 
HETATM    8  C   UNK N   1      26.303  26.857  -3.318  0.00  0.00     0.001 A 
HETATM    9  C   UNK N   1      26.441  25.543  -3.768  0.00  0.00     0.007 A 
ENDBRANCH   3   4
BRANCH   1  10
HETATM   10  N   UNK N   1      28.187  24.427  -6.478  0.00  0.00    -0.074 N 
HETATM   11  H   UNK N   1      29.185  24.531  -6.671  0.00  0.00     0.274 HD
HETATM   12  H   UNK N   1      27.733  25.335  -6.376  0.00  0.00     0.274 HD
HETATM   13  H   UNK N   1      28.669  25.323  -6.558  0.00  0.00     0.274 HD
ENDBRANCH   1  10
TORSDOF 2
ENDMDL
MODEL 4
REMARK VINA RESULT:      -4.1      1.813      4.112
REMARK  2 active torsions:
REMARK  status: ('A' for Active; 'I' for Inactive)
REMARK    1  A    between atoms: C_2  and  N_1 
REMARK    2  A    between atoms: C_4  and  C_5 
ROOT
HETATM    1  C   UNK N   1      27.395  29.926  -4.050  0.00  0.00     0.192 A 
HETATM    2  C   UNK N   1      27.449  29.162  -2.749  0.00  0.00     0.045 A 
HETATM    3  C   UNK N   1      26.182  29.097  -3.590  0.00  0.00     0.051 A 
ENDROOT
BRANCH   3   4
HETATM    4  C   UNK N   1      26.026  27.708  -4.148  0.00  0.00    -0.052 A 
HETATM    5  C   UNK N   1      26.583  26.612  -3.468  0.00  0.00     0.007 A 
HETATM    6  C   UNK N   1      26.406  25.315  -3.952  0.00  0.00     0.001 A 
HETATM    7  C   UNK N   1      25.666  25.098  -5.118  0.00  0.00     0.000 A 
HETATM    8  C   UNK N   1      25.097  26.181  -5.795  0.00  0.00     0.001 A 
HETATM    9  C   UNK N   1      25.267  27.479  -5.308  0.00  0.00     0.007 A 
ENDBRANCH   3   4
BRANCH   1  10
HETATM   10  N   UNK N   1      28.217  29.247  -5.038  0.00  0.00    -0.074 N 
HETATM   11  H   UNK N   1      29.136  29.372  -5.466  0.00  0.00     0.274 HD
HETATM   12  H   UNK N   1      27.747  28.419  -5.404  0.00  0.00     0.274 HD
HETATM   13  H   UNK N   1      28.615  28.624  -5.741  0.00  0.00     0.274 HD
ENDBRANCH   1  10
TORSDOF 2
ENDMDL
MODEL 5
REMARK VINA RESULT:      -4.1     27.116     28.309
REMARK  2 active torsions:
REMARK  status: ('A' for Active; 'I' for Inactive)
REMARK    1  A    between atoms: C_2  and  N_1 
REMARK    2  A    between atoms: C_4  and  C_5 
ROOT
HETATM    1  C   UNK N   1      35.137  11.003  14.095  0.00  0.00     0.192 A 
HETATM    2  C   UNK N   1      35.915   9.989  14.899  0.00  0.00     0.045 A 
HETATM    3  C   UNK N   1      36.234  11.467  15.070  0.00  0.00     0.051 A 
ENDROOT
BRANCH   3   4
HETATM    4  C   UNK N   1      35.813  11.911  16.444  0.00  0.00    -0.052 A 
HETATM    5  C   UNK N   1      35.792  10.988  17.504  0.00  0.00     0.007 A 
HETATM    6  C   UNK N   1      35.446  11.398  18.792  0.00  0.00     0.001 A 
HETATM    7  C   UNK N   1      35.123  12.737  19.038  0.00  0.00     0.000 A 
HETATM    8  C   UNK N   1      35.152  13.664  17.992  0.00  0.00     0.001 A 
HETATM    9  C   UNK N   1      35.505  13.257  16.704  0.00  0.00     0.007 A 
ENDBRANCH   3   4
BRANCH   1  10
HETATM   10  N   UNK N   1      33.794  11.117  14.640  0.00  0.00    -0.074 N 
HETATM   11  H   UNK N   1      32.942  11.641  14.436  0.00  0.00     0.274 HD
HETATM   12  H   UNK N   1      33.668  10.505  15.446  0.00  0.00     0.274 HD
HETATM   13  H   UNK N   1      32.928  11.040  15.174  0.00  0.00     0.274 HD
ENDBRANCH   1  10
TORSDOF 2
ENDMDL
MODEL 6
REMARK VINA RESULT:      -4.1     27.802     28.799
REMARK  2 active torsions:
REMARK  status: ('A' for Active; 'I' for Inactive)
REMARK    1  A    between atoms: C_2  and  N_1 
REMARK    2  A    between atoms: C_4  and  C_5 
ROOT
HETATM    1  C   UNK N   1      36.096   9.361  15.363  0.00  0.00     0.192 A 
HETATM    2  C   UNK N   1      35.028  10.215  14.721  0.00  0.00     0.045 A 
HETATM    3  C   UNK N   1      34.884   9.831  16.188  0.00  0.00     0.051 A 
ENDROOT
BRANCH   3   4
HETATM    4  C   UNK N   1      35.046  11.059  17.042  0.00  0.00    -0.052 A 
HETATM    5  C   UNK N   1      34.918  12.335  16.467  0.00  0.00     0.007 A 
HETATM    6  C   UNK N   1      35.022  13.480  17.258  0.00  0.00     0.001 A 
HETATM    7  C   UNK N   1      35.249  13.363  18.633  0.00  0.00     0.000 A 
HETATM    8  C   UNK N   1      35.366  12.097  19.215  0.00  0.00     0.001 A 
HETATM    9  C   UNK N   1      35.254  10.951  18.427  0.00  0.00     0.007 A 
ENDBRANCH   3   4
BRANCH   1  10
HETATM   10  N   UNK N   1      37.287  10.166  15.578  0.00  0.00    -0.074 N 
HETATM   11  H   UNK N   1      37.822  10.869  15.066  0.00  0.00     0.274 HD
HETATM   12  H   UNK N   1      37.702   9.978  16.491  0.00  0.00     0.274 HD
HETATM   13  H   UNK N   1      38.128  10.622  15.933  0.00  0.00     0.274 HD
ENDBRANCH   1  10
TORSDOF 2
ENDMDL
MODEL 7
REMARK VINA RESULT:      -4.1     19.025     20.781
REMARK  2 active torsions:
REMARK  status: ('A' for Active; 'I' for Inactive)
REMARK    1  A    between atoms: C_2  and  N_1 
REMARK    2  A    between atoms: C_4  and  C_5 
ROOT
HETATM    1  C   UNK N   1      23.479  12.318  11.015  0.00  0.00     0.192 A 
HETATM    2  C   UNK N   1      22.965  11.189  10.154  0.00  0.00     0.045 A 
HETATM    3  C   UNK N   1      21.988  12.251  10.637  0.00  0.00     0.051 A 
ENDROOT
BRANCH   3   4
HETATM    4  C   UNK N   1      21.520  13.068   9.463  0.00  0.00    -0.052 A 
HETATM    5  C   UNK N   1      21.564  12.524   8.169  0.00  0.00     0.007 A 
HETATM    6  C   UNK N   1      21.091  13.255   7.078  0.00  0.00     0.001 A 
HETATM    7  C   UNK N   1      20.565  14.537   7.270  0.00  0.00     0.000 A 
HETATM    8  C   UNK N   1      20.506  15.081   8.556  0.00  0.00     0.001 A 
HETATM    9  C   UNK N   1      20.971  14.348   9.649  0.00  0.00     0.007 A 
ENDBRANCH   3   4
BRANCH   1  10
HETATM   10  N   UNK N   1      24.242  13.240  10.188  0.00  0.00    -0.074 N 
HETATM   11  H   UNK N   1      24.068  14.095   9.658  0.00  0.00     0.274 HD
HETATM   12  H   UNK N   1      25.219  12.954  10.120  0.00  0.00     0.274 HD
HETATM   13  H   UNK N   1      24.952  13.745   9.658  0.00  0.00     0.274 HD
ENDBRANCH   1  10
TORSDOF 2
ENDMDL
MODEL 8
REMARK VINA RESULT:      -4.1      1.881      2.970
REMARK  2 active torsions:
REMARK  status: ('A' for Active; 'I' for Inactive)
REMARK    1  A    between atoms: C_2  and  N_1 
REMARK    2  A    between atoms: C_4  and  C_5 
ROOT
HETATM    1  C   UNK N   1      28.744  24.361  -4.249  0.00  0.00     0.192 A 
HETATM    2  C   UNK N   1      27.739  23.708  -5.167  0.00  0.00     0.045 A 
HETATM    3  C   UNK N   1      27.250  24.355  -3.879  0.00  0.00     0.051 A 
ENDROOT
BRANCH   3   4
HETATM    4  C   UNK N   1      26.436  25.575  -4.214  0.00  0.00    -0.052 A 
HETATM    5  C   UNK N   1      26.396  26.659  -3.321  0.00  0.00     0.007 A 
HETATM    6  C   UNK N   1      25.682  27.814  -3.641  0.00  0.00     0.001 A 
HETATM    7  C   UNK N   1      25.002  27.901  -4.860  0.00  0.00     0.000 A 
HETATM    8  C   UNK N   1      25.046  26.832  -5.761  0.00  0.00     0.001 A 
HETATM    9  C   UNK N   1      25.767  25.679  -5.445  0.00  0.00     0.007 A 
ENDBRANCH   3   4
BRANCH   1  10
HETATM   10  N   UNK N   1      29.187  25.614  -4.839  0.00  0.00    -0.074 N 
HETATM   11  H   UNK N   1      29.093  26.099  -5.732  0.00  0.00     0.274 HD
HETATM   12  H   UNK N   1      29.745  26.157  -4.180  0.00  0.00     0.274 HD
HETATM   13  H   UNK N   1      29.597  26.525  -5.047  0.00  0.00     0.274 HD
ENDBRANCH   1  10
TORSDOF 2
ENDMDL
MODEL 9
REMARK VINA RESULT:      -4.0     12.886     14.349
REMARK  2 active torsions:
REMARK  status: ('A' for Active; 'I' for Inactive)
REMARK    1  A    between atoms: C_2  and  N_1 
REMARK    2  A    between atoms: C_4  and  C_5 
ROOT
HETATM    1  C   UNK N   1      25.907  20.378   4.890  0.00  0.00     0.192 A 
HETATM    2  C   UNK N   1      27.005  20.036   3.912  0.00  0.00     0.045 A 
HETATM    3  C   UNK N   1      27.383  20.502   5.312  0.00  0.00     0.051 A 
ENDROOT
BRANCH   3   4
HETATM    4  C   UNK N   1      27.998  19.356   6.068  0.00  0.00    -0.052 A 
HETATM    5  C   UNK N   1      28.639  18.318   5.370  0.00  0.00     0.007 A 
HETATM    6  C   UNK N   1      29.252  17.274   6.062  0.00  0.00     0.001 A 
HETATM    7  C   UNK N   1      29.238  17.257   7.461  0.00  0.00     0.000 A 
HETATM    8  C   UNK N   1      28.613  18.292   8.164  0.00  0.00     0.001 A 
HETATM    9  C   UNK N   1      28.006  19.341   7.473  0.00  0.00     0.007 A 
ENDBRANCH   3   4
BRANCH   1  10
HETATM   10  N   UNK N   1      25.277  19.151   5.350  0.00  0.00    -0.074 N 
HETATM   11  H   UNK N   1      24.409  18.879   5.813  0.00  0.00     0.274 HD
HETATM   12  H   UNK N   1      25.863  18.338   5.155  0.00  0.00     0.274 HD
HETATM   13  H   UNK N   1      25.026  18.191   5.588  0.00  0.00     0.274 HD
ENDBRANCH   1  10
TORSDOF 2
ENDMDL
