MODEL 1
REMARK VINA RESULT:      -7.6      0.000      0.000
REMARK  15 active torsions:
REMARK  status: ('A' for Active; 'I' for Inactive)
REMARK    1  A    between atoms: C_4  and  C_2 
REMARK    2  A    between atoms: O_29  and  C_2 
REMARK    3  A    between atoms: C_6  and  O_19 
REMARK    4  A    between atoms: C_7  and  O_20 
REMARK    5  A    between atoms: O_21  and  C_9 
REMARK    6  A    between atoms: C_10  and  N_18 
REMARK       I    between atoms: N_12  and  C_11 
REMARK    7  A    between atoms: P_33  and  O_23 
REMARK    8  A    between atoms: P_33  and  O_24 
REMARK    9  A    between atoms: P_34  and  O_25 
REMARK   10  A    between atoms: P_35  and  O_28 
REMARK   11  A    between atoms: P_34  and  O_29 
REMARK   12  A    between atoms: P_33  and  O_31 
REMARK   13  A    between atoms: P_35  and  O_31 
REMARK   14  A    between atoms: P_34  and  O_32 
REMARK   15  A    between atoms: P_35  and  O_32 
ROOT
HETATM    1  C   UNK N   1      35.262  13.397  12.777  0.00  0.00     0.180 C 
HETATM    2  C   UNK N   1      36.524  12.533  12.563  0.00  0.00     0.182 C 
HETATM    3  C   UNK N   1      36.663  11.810  13.891  0.00  0.00     0.198 C 
HETATM    4  C   UNK N   1      35.234  11.902  14.382  0.00  0.00     0.262 C 
HETATM    5  O   UNK N   1      34.863  13.241  14.130  0.00  0.00    -0.353 OA
ENDROOT
BRANCH   1   6
HETATM    6  C   UNK N   1      35.469  14.838  12.348  0.00  0.00     0.215 C 
BRANCH   6   7
HETATM    7  O   UNK N   1      34.484  15.250  11.455  0.00  0.00    -0.294 OA
BRANCH   7   8
HETATM    8  P   UNK N   1      35.396  15.843  10.102  0.00  0.00     0.401 P 
HETATM    9  O   UNK N   1      36.860  15.369  10.311  0.00  0.00    -0.631 OA
BRANCH   8  10
HETATM   10  O   UNK N   1      35.425  17.579  10.049  0.00  0.00    -0.307 OA
HETATM   11  H   UNK N   1      35.277  18.405   9.562  0.00  0.00     0.222 HD
ENDBRANCH   8  10
BRANCH   8  12
HETATM   12  O   UNK N   1      34.877  15.172   8.585  0.00  0.00    -0.195 OA
BRANCH  12  13
HETATM   13  P   UNK N   1      33.166  15.478   8.440  0.00  0.00     0.410 P 
HETATM   14  O   UNK N   1      32.404  14.233   8.971  0.00  0.00    -0.631 OA
BRANCH  13  15
HETATM   15  O   UNK N   1      32.649  16.837   9.394  0.00  0.00    -0.307 OA
HETATM   16  H   UNK N   1      33.115  17.103  10.202  0.00  0.00     0.222 HD
ENDBRANCH  13  15
BRANCH  13  17
HETATM   17  O   UNK N   1      32.694  15.722   6.780  0.00  0.00    -0.195 OA
BRANCH  17  18
HETATM   18  P   UNK N   1      33.948  16.665   6.015  0.00  0.00     0.399 P 
HETATM   19  O   UNK N   1      33.351  17.363   4.764  0.00  0.00    -0.631 OA
BRANCH  18  20
HETATM   20  O   UNK N   1      34.477  17.933   7.076  0.00  0.00    -0.307 OA
HETATM   21  H   UNK N   1      33.896  18.254   7.784  0.00  0.00     0.222 HD
ENDBRANCH  18  20
BRANCH  18  22
HETATM   22  O   UNK N   1      35.306  15.712   5.504  0.00  0.00    -0.307 OA
HETATM   23  H   UNK N   1      35.554  15.286   4.667  0.00  0.00     0.222 HD
ENDBRANCH  18  22
ENDBRANCH  17  18
ENDBRANCH  13  17
ENDBRANCH  12  13
ENDBRANCH   8  12
ENDBRANCH   7   8
ENDBRANCH   6   7
ENDBRANCH   1   6
BRANCH   2  24
HETATM   24  O   UNK N   1      37.681  13.264  12.266  0.00  0.00    -0.390 OA
HETATM   25  H   UNK N   1      38.004  14.146  12.024  0.00  0.00     0.210 HD
ENDBRANCH   2  24
BRANCH   3  26
HETATM   26  O   UNK N   1      37.488  12.535  14.760  0.00  0.00    -0.388 OA
HETATM   27  H   UNK N   1      38.137  13.143  15.145  0.00  0.00     0.210 HD
ENDBRANCH   3  26
BRANCH   4  28
HETATM   28  N   UNK N   1      35.033  11.489  15.773  0.00  0.00    -0.296 N 
HETATM   29  C   UNK N   1      34.856  10.228  16.258  0.00  0.00     0.190 A 
HETATM   30  N   UNK N   1      34.904  10.231  17.618  0.00  0.00    -0.341 N 
HETATM   31  C   UNK N   1      34.808   9.070  18.486  0.00  0.00     0.157 C 
HETATM   32  C   UNK N   1      35.113  11.513  17.975  0.00  0.00     0.132 A 
HETATM   33  C   UNK N   1      35.179  12.265  16.859  0.00  0.00     0.158 A 
HETATM   34  C   UNK N   1      35.289  12.106  19.220  0.00  0.00     0.186 A 
HETATM   35  N   UNK N   1      35.396  13.602  16.892  0.00  0.00    -0.174 N 
HETATM   36  C   UNK N   1      35.537  14.204  18.108  0.00  0.00     0.679 A 
HETATM   37  H   UNK N   1      35.451  14.126  16.059  0.00  0.00     0.186 HD
HETATM   38  N   UNK N   1      35.716  15.469  18.173  0.00  0.00    -0.234 N 
HETATM   39  N   UNK N   1      35.493  13.459  19.261  0.00  0.00    -0.168 N 
HETATM   40  H   UNK N   1      35.729  16.007  17.349  0.00  0.00     0.174 HD
ATOM     41  HN  UNK N   1      35.845  15.920  19.079  1.00  0.00     0.174 HD
ATOM     42  HN  UNK N   1      35.615  13.921  20.163  1.00  0.00     0.186 HD
BRANCH  34  43
HETATM   43  O   UNK N   1      35.275  11.386  20.353  0.00  0.00    -0.344 OA
HETATM   44  H   UNK N   1      35.358  11.814  21.183  0.00  0.00     0.219 HD
ENDBRANCH  34  43
ENDBRANCH   4  28
TORSDOF 15
ENDMDL
MODEL 2
REMARK VINA RESULT:      -7.2     11.499     14.289
REMARK  15 active torsions:
REMARK  status: ('A' for Active; 'I' for Inactive)
REMARK    1  A    between atoms: C_4  and  C_2 
REMARK    2  A    between atoms: O_29  and  C_2 
REMARK    3  A    between atoms: C_6  and  O_19 
REMARK    4  A    between atoms: C_7  and  O_20 
REMARK    5  A    between atoms: O_21  and  C_9 
REMARK    6  A    between atoms: C_10  and  N_18 
REMARK       I    between atoms: N_12  and  C_11 
REMARK    7  A    between atoms: P_33  and  O_23 
REMARK    8  A    between atoms: P_33  and  O_24 
REMARK    9  A    between atoms: P_34  and  O_25 
REMARK   10  A    between atoms: P_35  and  O_28 
REMARK   11  A    between atoms: P_34  and  O_29 
REMARK   12  A    between atoms: P_33  and  O_31 
REMARK   13  A    between atoms: P_35  and  O_31 
REMARK   14  A    between atoms: P_34  and  O_32 
REMARK   15  A    between atoms: P_35  and  O_32 
ROOT
HETATM    1  C   UNK N   1      25.195  18.117   4.159  0.00  0.00     0.180 C 
HETATM    2  C   UNK N   1      25.812  19.322   3.415  0.00  0.00     0.182 C 
HETATM    3  C   UNK N   1      27.277  19.242   3.806  0.00  0.00     0.198 C 
HETATM    4  C   UNK N   1      27.363  17.776   4.176  0.00  0.00     0.262 C 
HETATM    5  O   UNK N   1      26.214  17.547   4.966  0.00  0.00    -0.353 OA
ENDROOT
BRANCH   1   6
HETATM    6  C   UNK N   1      23.934  18.490   4.916  0.00  0.00     0.215 C 
BRANCH   6   7
HETATM    7  O   UNK N   1      23.365  17.380   5.534  0.00  0.00    -0.294 OA
BRANCH   7   8
HETATM    8  P   UNK N   1      21.677  17.784   5.602  0.00  0.00     0.401 P 
HETATM    9  O   UNK N   1      21.437  18.458   6.981  0.00  0.00    -0.631 OA
BRANCH   8  10
HETATM   10  O   UNK N   1      20.667  16.373   5.543  0.00  0.00    -0.307 OA
HETATM   11  H   UNK N   1      20.577  15.407   5.545  0.00  0.00     0.222 HD
ENDBRANCH   8  10
BRANCH   8  12
HETATM   12  O   UNK N   1      21.207  18.949   4.401  0.00  0.00    -0.195 OA
BRANCH  12  13
HETATM   13  P   UNK N   1      20.521  18.067   3.063  0.00  0.00     0.410 P 
HETATM   14  O   UNK N   1      21.424  16.835   2.780  0.00  0.00    -0.631 OA
BRANCH  13  15
HETATM   15  O   UNK N   1      18.928  17.462   3.409  0.00  0.00    -0.307 OA
HETATM   16  H   UNK N   1      18.191  18.054   3.629  0.00  0.00     0.222 HD
ENDBRANCH  13  15
BRANCH  13  17
HETATM   17  O   UNK N   1      20.471  19.033   1.612  0.00  0.00    -0.195 OA
BRANCH  17  18
HETATM   18  P   UNK N   1      21.064  20.622   2.025  0.00  0.00     0.399 P 
HETATM   19  O   UNK N   1      20.761  21.585   0.846  0.00  0.00    -0.631 OA
BRANCH  18  20
HETATM   20  O   UNK N   1      20.205  21.245   3.398  0.00  0.00    -0.307 OA
HETATM   21  H   UNK N   1      19.446  21.836   3.275  0.00  0.00     0.222 HD
ENDBRANCH  18  20
BRANCH  18  22
HETATM   22  O   UNK N   1      22.773  20.658   2.326  0.00  0.00    -0.307 OA
HETATM   23  H   UNK N   1      23.480  19.995   2.272  0.00  0.00     0.222 HD
ENDBRANCH  18  22
ENDBRANCH  17  18
ENDBRANCH  13  17
ENDBRANCH  12  13
ENDBRANCH   8  12
ENDBRANCH   7   8
ENDBRANCH   6   7
ENDBRANCH   1   6
BRANCH   2  24
HETATM   24  O   UNK N   1      25.265  20.561   3.770  0.00  0.00    -0.390 OA
HETATM   25  H   UNK N   1      24.656  21.256   3.477  0.00  0.00     0.210 HD
ENDBRANCH   2  24
BRANCH   3  26
HETATM   26  O   UNK N   1      27.522  20.012   4.949  0.00  0.00    -0.388 OA
HETATM   27  H   UNK N   1      27.507  20.401   5.837  0.00  0.00     0.210 HD
ENDBRANCH   3  26
BRANCH   4  28
HETATM   28  N   UNK N   1      28.612  17.377   4.827  0.00  0.00    -0.296 N 
HETATM   29  C   UNK N   1      29.784  17.003   4.239  0.00  0.00     0.190 A 
HETATM   30  N   UNK N   1      30.771  16.901   5.170  0.00  0.00    -0.341 N 
HETATM   31  C   UNK N   1      32.164  16.576   4.917  0.00  0.00     0.157 C 
HETATM   32  C   UNK N   1      30.198  17.216   6.348  0.00  0.00     0.132 A 
HETATM   33  C   UNK N   1      28.897  17.491   6.134  0.00  0.00     0.158 A 
HETATM   34  C   UNK N   1      30.725  17.321   7.630  0.00  0.00     0.186 A 
HETATM   35  N   UNK N   1      28.054  17.857   7.130  0.00  0.00    -0.174 N 
HETATM   36  C   UNK N   1      28.549  17.931   8.400  0.00  0.00     0.679 A 
HETATM   37  H   UNK N   1      27.109  18.063   6.943  0.00  0.00     0.186 HD
HETATM   38  N   UNK N   1      27.772  18.247   9.366  0.00  0.00    -0.234 N 
HETATM   39  N   UNK N   1      29.876  17.675   8.644  0.00  0.00    -0.168 N 
HETATM   40  H   UNK N   1      26.818  18.413   9.195  0.00  0.00     0.174 HD
ATOM     41  HN  UNK N   1      28.143  18.327  10.312  1.00  0.00     0.174 HD
ATOM     42  HN  UNK N   1      30.235  17.749   9.596  1.00  0.00     0.186 HD
BRANCH  34  43
HETATM   43  O   UNK N   1      32.026  17.100   7.879  0.00  0.00    -0.344 OA
HETATM   44  H   UNK N   1      32.284  16.380   8.421  0.00  0.00     0.219 HD
ENDBRANCH  34  43
ENDBRANCH   4  28
TORSDOF 15
ENDMDL
MODEL 3
REMARK VINA RESULT:      -7.1      1.155      1.897
REMARK  15 active torsions:
REMARK  status: ('A' for Active; 'I' for Inactive)
REMARK    1  A    between atoms: C_4  and  C_2 
REMARK    2  A    between atoms: O_29  and  C_2 
REMARK    3  A    between atoms: C_6  and  O_19 
REMARK    4  A    between atoms: C_7  and  O_20 
REMARK    5  A    between atoms: O_21  and  C_9 
REMARK    6  A    between atoms: C_10  and  N_18 
REMARK       I    between atoms: N_12  and  C_11 
REMARK    7  A    between atoms: P_33  and  O_23 
REMARK    8  A    between atoms: P_33  and  O_24 
REMARK    9  A    between atoms: P_34  and  O_25 
REMARK   10  A    between atoms: P_35  and  O_28 
REMARK   11  A    between atoms: P_34  and  O_29 
REMARK   12  A    between atoms: P_33  and  O_31 
REMARK   13  A    between atoms: P_35  and  O_31 
REMARK   14  A    between atoms: P_34  and  O_32 
REMARK   15  A    between atoms: P_35  and  O_32 
ROOT
HETATM    1  C   UNK N   1      35.179  13.014  12.870  0.00  0.00     0.180 C 
HETATM    2  C   UNK N   1      36.563  12.342  12.739  0.00  0.00     0.182 C 
HETATM    3  C   UNK N   1      36.763  11.720  14.109  0.00  0.00     0.198 C 
HETATM    4  C   UNK N   1      35.320  11.618  14.556  0.00  0.00     0.262 C 
HETATM    5  O   UNK N   1      34.761  12.871  14.218  0.00  0.00    -0.353 OA
ENDROOT
BRANCH   1   6
HETATM    6  C   UNK N   1      35.182  14.446  12.365  0.00  0.00     0.215 C 
BRANCH   6   7
HETATM    7  O   UNK N   1      34.510  14.558  11.151  0.00  0.00    -0.294 OA
BRANCH   7   8
HETATM    8  P   UNK N   1      35.766  15.015  10.042  0.00  0.00     0.401 P 
HETATM    9  O   UNK N   1      36.464  13.702   9.595  0.00  0.00    -0.631 OA
BRANCH   8  10
HETATM   10  O   UNK N   1      36.977  16.003  10.801  0.00  0.00    -0.307 OA
HETATM   11  H   UNK N   1      37.852  16.420  10.779  0.00  0.00     0.222 HD
ENDBRANCH   8  10
BRANCH   8  12
HETATM   12  O   UNK N   1      35.157  15.762   8.595  0.00  0.00    -0.195 OA
BRANCH  12  13
HETATM   13  P   UNK N   1      34.140  14.592   7.796  0.00  0.00     0.410 P 
HETATM   14  O   UNK N   1      34.876  14.100   6.520  0.00  0.00    -0.631 OA
BRANCH  13  15
HETATM   15  O   UNK N   1      33.834  13.192   8.780  0.00  0.00    -0.307 OA
HETATM   16  H   UNK N   1      34.453  12.446   8.817  0.00  0.00     0.222 HD
ENDBRANCH  13  15
BRANCH  13  17
HETATM   17  O   UNK N   1      32.623  15.293   7.297  0.00  0.00    -0.195 OA
BRANCH  17  18
HETATM   18  P   UNK N   1      32.000  16.203   8.650  0.00  0.00     0.399 P 
HETATM   19  O   UNK N   1      30.567  16.687   8.304  0.00  0.00    -0.631 OA
BRANCH  18  20
HETATM   20  O   UNK N   1      31.847  15.178  10.043  0.00  0.00    -0.307 OA
HETATM   21  H   UNK N   1      31.963  14.219   9.960  0.00  0.00     0.222 HD
ENDBRANCH  18  20
BRANCH  18  22
HETATM   22  O   UNK N   1      32.961  17.595   9.039  0.00  0.00    -0.307 OA
HETATM   23  H   UNK N   1      32.758  18.533   9.189  0.00  0.00     0.222 HD
ENDBRANCH  18  22
ENDBRANCH  17  18
ENDBRANCH  13  17
ENDBRANCH  12  13
ENDBRANCH   8  12
ENDBRANCH   7   8
ENDBRANCH   6   7
ENDBRANCH   1   6
BRANCH   2  24
HETATM   24  O   UNK N   1      37.606  13.225  12.432  0.00  0.00    -0.390 OA
HETATM   25  H   UNK N   1      38.490  13.278  12.036  0.00  0.00     0.210 HD
ENDBRANCH   2  24
BRANCH   3  26
HETATM   26  O   UNK N   1      37.438  12.605  14.957  0.00  0.00    -0.388 OA
HETATM   27  H   UNK N   1      37.923  13.357  15.332  0.00  0.00     0.210 HD
ENDBRANCH   3  26
BRANCH   4  28
HETATM   28  N   UNK N   1      35.135  11.253  15.962  0.00  0.00    -0.296 N 
HETATM   29  C   UNK N   1      35.045  10.005  16.501  0.00  0.00     0.190 A 
HETATM   30  N   UNK N   1      35.078  10.071  17.860  0.00  0.00    -0.341 N 
HETATM   31  C   UNK N   1      35.057   8.945  18.778  0.00  0.00     0.157 C 
HETATM   32  C   UNK N   1      35.190  11.379  18.162  0.00  0.00     0.132 A 
HETATM   33  C   UNK N   1      35.214  12.084  17.014  0.00  0.00     0.158 A 
HETATM   34  C   UNK N   1      35.310  12.037  19.380  0.00  0.00     0.186 A 
HETATM   35  N   UNK N   1      35.333  13.434  16.989  0.00  0.00    -0.174 N 
HETATM   36  C   UNK N   1      35.418  14.097  18.179  0.00  0.00     0.679 A 
HETATM   37  H   UNK N   1      35.359  13.923  16.135  0.00  0.00     0.186 HD
HETATM   38  N   UNK N   1      35.505  15.373  18.188  0.00  0.00    -0.234 N 
HETATM   39  N   UNK N   1      35.416  13.402  19.363  0.00  0.00    -0.168 N 
HETATM   40  H   UNK N   1      35.488  15.874  17.342  0.00  0.00     0.174 HD
ATOM     41  HN  UNK N   1      35.592  15.871  19.074  1.00  0.00     0.174 HD
ATOM     42  HN  UNK N   1      35.495  13.910  20.245  1.00  0.00     0.186 HD
BRANCH  34  43
HETATM   43  O   UNK N   1      35.336  11.367  20.544  0.00  0.00    -0.344 OA
HETATM   44  H   UNK N   1      35.671  11.781  21.316  0.00  0.00     0.219 HD
ENDBRANCH  34  43
ENDBRANCH   4  28
TORSDOF 15
ENDMDL
MODEL 4
REMARK VINA RESULT:      -6.9     11.582     14.452
REMARK  15 active torsions:
REMARK  status: ('A' for Active; 'I' for Inactive)
REMARK    1  A    between atoms: C_4  and  C_2 
REMARK    2  A    between atoms: O_29  and  C_2 
REMARK    3  A    between atoms: C_6  and  O_19 
REMARK    4  A    between atoms: C_7  and  O_20 
REMARK    5  A    between atoms: O_21  and  C_9 
REMARK    6  A    between atoms: C_10  and  N_18 
REMARK       I    between atoms: N_12  and  C_11 
REMARK    7  A    between atoms: P_33  and  O_23 
REMARK    8  A    between atoms: P_33  and  O_24 
REMARK    9  A    between atoms: P_34  and  O_25 
REMARK   10  A    between atoms: P_35  and  O_28 
REMARK   11  A    between atoms: P_34  and  O_29 
REMARK   12  A    between atoms: P_33  and  O_31 
REMARK   13  A    between atoms: P_35  and  O_31 
REMARK   14  A    between atoms: P_34  and  O_32 
REMARK   15  A    between atoms: P_35  and  O_32 
ROOT
HETATM    1  C   UNK N   1      25.325  18.075   4.427  0.00  0.00     0.180 C 
HETATM    2  C   UNK N   1      25.930  19.207   3.569  0.00  0.00     0.182 C 
HETATM    3  C   UNK N   1      27.334  19.338   4.129  0.00  0.00     0.198 C 
HETATM    4  C   UNK N   1      27.493  17.963   4.743  0.00  0.00     0.262 C 
HETATM    5  O   UNK N   1      26.276  17.742   5.426  0.00  0.00    -0.353 OA
ENDROOT
BRANCH   1   6
HETATM    6  C   UNK N   1      23.950  18.429   4.965  0.00  0.00     0.215 C 
BRANCH   6   7
HETATM    7  O   UNK N   1      23.347  17.336   5.579  0.00  0.00    -0.294 OA
BRANCH   7   8
HETATM    8  P   UNK N   1      21.669  17.778   5.619  0.00  0.00     0.401 P 
HETATM    9  O   UNK N   1      21.426  18.476   6.985  0.00  0.00    -0.631 OA
BRANCH   8  10
HETATM   10  O   UNK N   1      20.628  16.388   5.566  0.00  0.00    -0.307 OA
HETATM   11  H   UNK N   1      20.114  15.708   6.029  0.00  0.00     0.222 HD
ENDBRANCH   8  10
BRANCH   8  12
HETATM   12  O   UNK N   1      21.240  18.936   4.396  0.00  0.00    -0.195 OA
BRANCH  12  13
HETATM   13  P   UNK N   1      20.536  18.052   3.068  0.00  0.00     0.410 P 
HETATM   14  O   UNK N   1      21.419  16.803   2.794  0.00  0.00    -0.631 OA
BRANCH  13  15
HETATM   15  O   UNK N   1      18.935  17.475   3.425  0.00  0.00    -0.307 OA
HETATM   16  H   UNK N   1      18.439  16.920   2.803  0.00  0.00     0.222 HD
ENDBRANCH  13  15
BRANCH  13  17
HETATM   17  O   UNK N   1      20.496  19.005   1.608  0.00  0.00    -0.195 OA
BRANCH  17  18
HETATM   18  P   UNK N   1      21.085  20.598   2.012  0.00  0.00     0.399 P 
HETATM   19  O   UNK N   1      20.775  21.555   0.829  0.00  0.00    -0.631 OA
BRANCH  18  20
HETATM   20  O   UNK N   1      20.228  21.225   3.385  0.00  0.00    -0.307 OA
HETATM   21  H   UNK N   1      19.436  20.773   3.716  0.00  0.00     0.222 HD
ENDBRANCH  18  20
BRANCH  18  22
HETATM   22  O   UNK N   1      22.795  20.641   2.307  0.00  0.00    -0.307 OA
HETATM   23  H   UNK N   1      23.421  20.029   2.727  0.00  0.00     0.222 HD
ENDBRANCH  18  22
ENDBRANCH  17  18
ENDBRANCH  13  17
ENDBRANCH  12  13
ENDBRANCH   8  12
ENDBRANCH   7   8
ENDBRANCH   6   7
ENDBRANCH   1   6
BRANCH   2  24
HETATM   24  O   UNK N   1      25.242  20.425   3.651  0.00  0.00    -0.390 OA
HETATM   25  H   UNK N   1      25.349  21.386   3.584  0.00  0.00     0.210 HD
ENDBRANCH   2  24
BRANCH   3  26
HETATM   26  O   UNK N   1      27.368  20.295   5.150  0.00  0.00    -0.388 OA
HETATM   27  H   UNK N   1      27.459  21.111   5.666  0.00  0.00     0.210 HD
ENDBRANCH   3  26
BRANCH   4  28
HETATM   28  N   UNK N   1      28.678  17.798   5.587  0.00  0.00    -0.296 N 
HETATM   29  C   UNK N   1      28.736  17.705   6.946  0.00  0.00     0.190 A 
HETATM   30  N   UNK N   1      29.990  17.358   7.345  0.00  0.00    -0.341 N 
HETATM   31  C   UNK N   1      30.423  17.114   8.710  0.00  0.00     0.157 C 
HETATM   32  C   UNK N   1      30.714  17.237   6.216  0.00  0.00     0.132 A 
HETATM   33  C   UNK N   1      29.920  17.514   5.163  0.00  0.00     0.158 A 
HETATM   34  C   UNK N   1      32.037  16.866   6.005  0.00  0.00     0.186 A 
HETATM   35  N   UNK N   1      30.361  17.464   3.882  0.00  0.00    -0.174 N 
HETATM   36  C   UNK N   1      31.667  17.134   3.661  0.00  0.00     0.679 A 
HETATM   37  H   UNK N   1      29.755  17.660   3.131  0.00  0.00     0.186 HD
HETATM   38  N   UNK N   1      32.119  17.104   2.465  0.00  0.00    -0.234 N 
HETATM   39  N   UNK N   1      32.494  16.828   4.714  0.00  0.00    -0.168 N 
HETATM   40  H   UNK N   1      31.533  17.341   1.711  0.00  0.00     0.174 HD
ATOM     41  HN  UNK N   1      33.088  16.836   2.294  1.00  0.00     0.174 HD
ATOM     42  HN  UNK N   1      33.464  16.568   4.533  1.00  0.00     0.186 HD
BRANCH  34  43
HETATM   43  O   UNK N   1      32.849  16.538   7.023  0.00  0.00    -0.344 OA
HETATM   44  H   UNK N   1      33.292  17.210   7.505  0.00  0.00     0.219 HD
ENDBRANCH  34  43
ENDBRANCH   4  28
TORSDOF 15
ENDMDL
MODEL 5
REMARK VINA RESULT:      -6.9      6.090      8.644
REMARK  15 active torsions:
REMARK  status: ('A' for Active; 'I' for Inactive)
REMARK    1  A    between atoms: C_4  and  C_2 
REMARK    2  A    between atoms: O_29  and  C_2 
REMARK    3  A    between atoms: C_6  and  O_19 
REMARK    4  A    between atoms: C_7  and  O_20 
REMARK    5  A    between atoms: O_21  and  C_9 
REMARK    6  A    between atoms: C_10  and  N_18 
REMARK       I    between atoms: N_12  and  C_11 
REMARK    7  A    between atoms: P_33  and  O_23 
REMARK    8  A    between atoms: P_33  and  O_24 
REMARK    9  A    between atoms: P_34  and  O_25 
REMARK   10  A    between atoms: P_35  and  O_28 
REMARK   11  A    between atoms: P_34  and  O_29 
REMARK   12  A    between atoms: P_33  and  O_31 
REMARK   13  A    between atoms: P_35  and  O_31 
REMARK   14  A    between atoms: P_34  and  O_32 
REMARK   15  A    between atoms: P_35  and  O_32 
ROOT
HETATM    1  C   UNK N   1      31.526  13.700   5.411  0.00  0.00     0.180 C 
HETATM    2  C   UNK N   1      32.659  13.801   4.366  0.00  0.00     0.182 C 
HETATM    3  C   UNK N   1      33.879  14.091   5.222  0.00  0.00     0.198 C 
HETATM    4  C   UNK N   1      33.396  13.543   6.548  0.00  0.00     0.262 C 
HETATM    5  O   UNK N   1      32.079  14.039   6.673  0.00  0.00    -0.353 OA
ENDROOT
BRANCH   1   6
HETATM    6  C   UNK N   1      30.307  14.517   5.021  0.00  0.00     0.215 C 
BRANCH   6   7
HETATM    7  O   UNK N   1      30.320  15.769   5.628  0.00  0.00    -0.294 OA
BRANCH   7   8
HETATM    8  P   UNK N   1      29.556  16.790   4.450  0.00  0.00     0.401 P 
HETATM    9  O   UNK N   1      28.182  16.144   4.126  0.00  0.00    -0.631 OA
BRANCH   8  10
HETATM   10  O   UNK N   1      30.453  16.852   2.964  0.00  0.00    -0.307 OA
HETATM   11  H   UNK N   1      30.690  16.455   2.111  0.00  0.00     0.222 HD
ENDBRANCH   8  10
BRANCH   8  12
HETATM   12  O   UNK N   1      29.216  18.386   5.050  0.00  0.00    -0.195 OA
BRANCH  12  13
HETATM   13  P   UNK N   1      28.014  18.224   6.303  0.00  0.00     0.410 P 
HETATM   14  O   UNK N   1      26.665  18.762   5.752  0.00  0.00    -0.631 OA
BRANCH  13  15
HETATM   15  O   UNK N   1      27.752  16.569   6.765  0.00  0.00    -0.307 OA
HETATM   16  H   UNK N   1      26.886  16.252   7.068  0.00  0.00     0.222 HD
ENDBRANCH  13  15
BRANCH  13  17
HETATM   17  O   UNK N   1      28.423  19.162   7.714  0.00  0.00    -0.195 OA
BRANCH  17  18
HETATM   18  P   UNK N   1      29.022  18.052   8.921  0.00  0.00     0.399 P 
HETATM   19  O   UNK N   1      27.827  17.230   9.475  0.00  0.00    -0.631 OA
BRANCH  18  20
HETATM   20  O   UNK N   1      30.109  16.908   8.198  0.00  0.00    -0.307 OA
HETATM   21  H   UNK N   1      29.941  16.570   7.305  0.00  0.00     0.222 HD
ENDBRANCH  18  20
BRANCH  18  22
HETATM   22  O   UNK N   1      29.796  18.846  10.257  0.00  0.00    -0.307 OA
HETATM   23  H   UNK N   1      29.499  19.487  10.923  0.00  0.00     0.222 HD
ENDBRANCH  18  22
ENDBRANCH  17  18
ENDBRANCH  13  17
ENDBRANCH  12  13
ENDBRANCH   8  12
ENDBRANCH   7   8
ENDBRANCH   6   7
ENDBRANCH   1   6
BRANCH   2  24
HETATM   24  O   UNK N   1      32.471  14.803   3.405  0.00  0.00    -0.390 OA
HETATM   25  H   UNK N   1      32.523  14.990   2.455  0.00  0.00     0.210 HD
ENDBRANCH   2  24
BRANCH   3  26
HETATM   26  O   UNK N   1      34.073  15.472   5.348  0.00  0.00    -0.388 OA
HETATM   27  H   UNK N   1      34.451  16.362   5.410  0.00  0.00     0.210 HD
ENDBRANCH   3  26
BRANCH   4  28
HETATM   28  N   UNK N   1      34.252  13.857   7.694  0.00  0.00    -0.296 N 
HETATM   29  C   UNK N   1      35.326  13.157   8.157  0.00  0.00     0.190 A 
HETATM   30  N   UNK N   1      35.981  13.871   9.113  0.00  0.00    -0.341 N 
HETATM   31  C   UNK N   1      37.198  13.475   9.800  0.00  0.00     0.157 C 
HETATM   32  C   UNK N   1      35.300  15.026   9.240  0.00  0.00     0.132 A 
HETATM   33  C   UNK N   1      34.255  15.005   8.390  0.00  0.00     0.158 A 
HETATM   34  C   UNK N   1      35.527  16.147  10.030  0.00  0.00     0.186 A 
HETATM   35  N   UNK N   1      33.386  16.038   8.276  0.00  0.00    -0.174 N 
HETATM   36  C   UNK N   1      33.576  17.133   9.070  0.00  0.00     0.679 A 
HETATM   37  H   UNK N   1      32.637  16.001   7.638  0.00  0.00     0.186 HD
HETATM   38  N   UNK N   1      32.756  18.113   9.004  0.00  0.00    -0.234 N 
HETATM   39  N   UNK N   1      34.644  17.189   9.932  0.00  0.00    -0.168 N 
HETATM   40  H   UNK N   1      31.981  18.067   8.401  0.00  0.00     0.174 HD
ATOM     41  HN  UNK N   1      32.908  18.942   9.578  1.00  0.00     0.174 HD
ATOM     42  HN  UNK N   1      34.781  18.019  10.508  1.00  0.00     0.186 HD
BRANCH  34  43
HETATM   43  O   UNK N   1      36.581  16.226  10.857  0.00  0.00    -0.344 OA
HETATM   44  H   UNK N   1      36.599  15.719  11.646  0.00  0.00     0.219 HD
ENDBRANCH  34  43
ENDBRANCH   4  28
TORSDOF 15
ENDMDL
MODEL 6
REMARK VINA RESULT:      -6.9     11.768     14.657
REMARK  15 active torsions:
REMARK  status: ('A' for Active; 'I' for Inactive)
REMARK    1  A    between atoms: C_4  and  C_2 
REMARK    2  A    between atoms: O_29  and  C_2 
REMARK    3  A    between atoms: C_6  and  O_19 
REMARK    4  A    between atoms: C_7  and  O_20 
REMARK    5  A    between atoms: O_21  and  C_9 
REMARK    6  A    between atoms: C_10  and  N_18 
REMARK       I    between atoms: N_12  and  C_11 
REMARK    7  A    between atoms: P_33  and  O_23 
REMARK    8  A    between atoms: P_33  and  O_24 
REMARK    9  A    between atoms: P_34  and  O_25 
REMARK   10  A    between atoms: P_35  and  O_28 
REMARK   11  A    between atoms: P_34  and  O_29 
REMARK   12  A    between atoms: P_33  and  O_31 
REMARK   13  A    between atoms: P_35  and  O_31 
REMARK   14  A    between atoms: P_34  and  O_32 
REMARK   15  A    between atoms: P_35  and  O_32 
ROOT
HETATM    1  C   UNK N   1      26.954  19.628   5.474  0.00  0.00     0.180 C 
HETATM    2  C   UNK N   1      27.450  19.485   4.018  0.00  0.00     0.182 C 
HETATM    3  C   UNK N   1      26.157  19.333   3.238  0.00  0.00     0.198 C 
HETATM    4  C   UNK N   1      25.194  19.976   4.212  0.00  0.00     0.262 C 
HETATM    5  O   UNK N   1      25.549  19.432   5.466  0.00  0.00    -0.353 OA
ENDROOT
BRANCH   1   6
HETATM    6  C   UNK N   1      27.707  18.722   6.431  0.00  0.00     0.215 C 
BRANCH   6   7
HETATM    7  O   UNK N   1      28.090  19.405   7.582  0.00  0.00    -0.294 OA
BRANCH   7   8
HETATM    8  P   UNK N   1      29.042  18.234   8.441  0.00  0.00     0.401 P 
HETATM    9  O   UNK N   1      28.058  17.435   9.340  0.00  0.00    -0.631 OA
BRANCH   8  10
HETATM   10  O   UNK N   1      30.200  18.985   9.496  0.00  0.00    -0.307 OA
HETATM   11  H   UNK N   1      30.900  19.640   9.640  0.00  0.00     0.222 HD
ENDBRANCH   8  10
BRANCH   8  12
HETATM   12  O   UNK N   1      29.800  17.072   7.394  0.00  0.00    -0.195 OA
BRANCH  12  13
HETATM   13  P   UNK N   1      31.419  16.817   7.987  0.00  0.00     0.410 P 
HETATM   14  O   UNK N   1      31.325  16.304   9.450  0.00  0.00    -0.631 OA
BRANCH  13  15
HETATM   15  O   UNK N   1      32.281  15.611   7.078  0.00  0.00    -0.307 OA
HETATM   16  H   UNK N   1      32.082  14.665   7.164  0.00  0.00     0.222 HD
ENDBRANCH  13  15
BRANCH  13  17
HETATM   17  O   UNK N   1      32.340  18.298   8.003  0.00  0.00    -0.195 OA
BRANCH  17  18
HETATM   18  P   UNK N   1      34.028  17.862   7.914  0.00  0.00     0.399 P 
HETATM   19  O   UNK N   1      34.396  17.608   6.427  0.00  0.00    -0.631 OA
BRANCH  18  20
HETATM   20  O   UNK N   1      35.018  19.186   8.444  0.00  0.00    -0.307 OA
HETATM   21  H   UNK N   1      34.725  19.756   9.171  0.00  0.00     0.222 HD
ENDBRANCH  18  20
BRANCH  18  22
HETATM   22  O   UNK N   1      34.414  16.432   8.818  0.00  0.00    -0.307 OA
HETATM   23  H   UNK N   1      34.876  15.605   8.605  0.00  0.00     0.222 HD
ENDBRANCH  18  22
ENDBRANCH  17  18
ENDBRANCH  13  17
ENDBRANCH  12  13
ENDBRANCH   8  12
ENDBRANCH   7   8
ENDBRANCH   6   7
ENDBRANCH   1   6
BRANCH   2  24
HETATM   24  O   UNK N   1      28.299  18.392   3.801  0.00  0.00    -0.390 OA
HETATM   25  H   UNK N   1      28.335  17.495   3.436  0.00  0.00     0.210 HD
ENDBRANCH   2  24
BRANCH   3  26
HETATM   26  O   UNK N   1      25.824  17.980   3.100  0.00  0.00    -0.388 OA
HETATM   27  H   UNK N   1      25.402  17.139   2.867  0.00  0.00     0.210 HD
ENDBRANCH   3  26
BRANCH   4  28
HETATM   28  N   UNK N   1      23.777  19.809   3.880  0.00  0.00    -0.296 N 
HETATM   29  C   UNK N   1      23.058  20.453   2.917  0.00  0.00     0.190 A 
HETATM   30  N   UNK N   1      21.829  19.883   2.782  0.00  0.00    -0.341 N 
HETATM   31  C   UNK N   1      20.805  20.262   1.824  0.00  0.00     0.157 C 
HETATM   32  C   UNK N   1      21.792  18.875   3.675  0.00  0.00     0.132 A 
HETATM   33  C   UNK N   1      22.964  18.844   4.338  0.00  0.00     0.158 A 
HETATM   34  C   UNK N   1      20.814  17.928   3.954  0.00  0.00     0.186 A 
HETATM   35  N   UNK N   1      23.236  17.926   5.297  0.00  0.00    -0.174 N 
HETATM   36  C   UNK N   1      22.272  17.011   5.607  0.00  0.00     0.679 A 
HETATM   37  H   UNK N   1      24.106  17.919   5.758  0.00  0.00     0.186 HD
HETATM   38  N   UNK N   1      22.489  16.148   6.526  0.00  0.00    -0.234 N 
HETATM   39  N   UNK N   1      21.075  17.007   4.933  0.00  0.00    -0.168 N 
HETATM   40  H   UNK N   1      23.338  16.161   7.022  0.00  0.00     0.174 HD
ATOM     41  HN  UNK N   1      21.781  15.448   6.745  1.00  0.00     0.174 HD
ATOM     42  HN  UNK N   1      20.370  16.307   5.165  1.00  0.00     0.186 HD
BRANCH  34  43
HETATM   43  O   UNK N   1      19.650  17.897   3.285  0.00  0.00    -0.344 OA
HETATM   44  H   UNK N   1      18.953  18.475   3.528  0.00  0.00     0.219 HD
ENDBRANCH  34  43
ENDBRANCH   4  28
TORSDOF 15
ENDMDL
MODEL 7
REMARK VINA RESULT:      -6.8      6.961     10.645
REMARK  15 active torsions:
REMARK  status: ('A' for Active; 'I' for Inactive)
REMARK    1  A    between atoms: C_4  and  C_2 
REMARK    2  A    between atoms: O_29  and  C_2 
REMARK    3  A    between atoms: C_6  and  O_19 
REMARK    4  A    between atoms: C_7  and  O_20 
REMARK    5  A    between atoms: O_21  and  C_9 
REMARK    6  A    between atoms: C_10  and  N_18 
REMARK       I    between atoms: N_12  and  C_11 
REMARK    7  A    between atoms: P_33  and  O_23 
REMARK    8  A    between atoms: P_33  and  O_24 
REMARK    9  A    between atoms: P_34  and  O_25 
REMARK   10  A    between atoms: P_35  and  O_28 
REMARK   11  A    between atoms: P_34  and  O_29 
REMARK   12  A    between atoms: P_33  and  O_31 
REMARK   13  A    between atoms: P_35  and  O_31 
REMARK   14  A    between atoms: P_34  and  O_32 
REMARK   15  A    between atoms: P_35  and  O_32 
ROOT
HETATM    1  C   UNK N   1      34.311  15.598   8.862  0.00  0.00     0.180 C 
HETATM    2  C   UNK N   1      34.251  17.048   9.391  0.00  0.00     0.182 C 
HETATM    3  C   UNK N   1      33.526  17.781   8.278  0.00  0.00     0.198 C 
HETATM    4  C   UNK N   1      32.806  16.616   7.633  0.00  0.00     0.262 C 
HETATM    5  O   UNK N   1      33.788  15.604   7.544  0.00  0.00    -0.353 OA
ENDROOT
BRANCH   1   6
HETATM    6  C   UNK N   1      35.699  14.996   8.982  0.00  0.00     0.215 C 
BRANCH   6   7
HETATM    7  O   UNK N   1      35.670  13.782   9.661  0.00  0.00    -0.294 OA
BRANCH   7   8
HETATM    8  P   UNK N   1      35.925  14.244  11.315  0.00  0.00     0.401 P 
HETATM    9  O   UNK N   1      34.521  14.502  11.927  0.00  0.00    -0.631 OA
BRANCH   8  10
HETATM   10  O   UNK N   1      36.818  15.729  11.445  0.00  0.00    -0.307 OA
HETATM   11  H   UNK N   1      37.569  16.226  11.806  0.00  0.00     0.222 HD
ENDBRANCH   8  10
BRANCH   8  12
HETATM   12  O   UNK N   1      36.649  12.985  12.270  0.00  0.00    -0.195 OA
BRANCH  12  13
HETATM   13  P   UNK N   1      36.401  13.397  13.946  0.00  0.00     0.410 P 
HETATM   14  O   UNK N   1      37.448  12.624  14.796  0.00  0.00    -0.631 OA
BRANCH  13  15
HETATM   15  O   UNK N   1      36.641  15.090  14.260  0.00  0.00    -0.307 OA
HETATM   16  H   UNK N   1      35.904  15.721  14.256  0.00  0.00     0.222 HD
ENDBRANCH  13  15
BRANCH  13  17
HETATM   17  O   UNK N   1      34.817  12.923  14.498  0.00  0.00    -0.195 OA
BRANCH  17  18
HETATM   18  P   UNK N   1      34.511  11.317  13.885  0.00  0.00     0.399 P 
HETATM   19  O   UNK N   1      33.334  10.697  14.685  0.00  0.00    -0.631 OA
BRANCH  18  20
HETATM   20  O   UNK N   1      33.990  11.395  12.231  0.00  0.00    -0.307 OA
HETATM   21  H   UNK N   1      34.158  12.191  11.701  0.00  0.00     0.222 HD
ENDBRANCH  18  20
BRANCH  18  22
HETATM   22  O   UNK N   1      35.878  10.258  14.029  0.00  0.00    -0.307 OA
HETATM   23  H   UNK N   1      36.598  10.003  13.429  0.00  0.00     0.222 HD
ENDBRANCH  18  22
ENDBRANCH  17  18
ENDBRANCH  13  17
ENDBRANCH  12  13
ENDBRANCH   8  12
ENDBRANCH   7   8
ENDBRANCH   6   7
ENDBRANCH   1   6
BRANCH   2  24
HETATM   24  O   UNK N   1      35.504  17.624   9.638  0.00  0.00    -0.390 OA
HETATM   25  H   UNK N   1      35.956  18.316  10.145  0.00  0.00     0.210 HD
ENDBRANCH   2  24
BRANCH   3  26
HETATM   26  O   UNK N   1      34.441  18.310   7.361  0.00  0.00    -0.388 OA
HETATM   27  H   UNK N   1      34.872  18.807   6.648  0.00  0.00     0.210 HD
ENDBRANCH   3  26
BRANCH   4  28
HETATM   28  N   UNK N   1      32.161  16.922   6.354  0.00  0.00    -0.296 N 
HETATM   29  C   UNK N   1      32.682  16.803   5.100  0.00  0.00     0.190 A 
HETATM   30  N   UNK N   1      31.713  16.991   4.163  0.00  0.00    -0.341 N 
HETATM   31  C   UNK N   1      31.876  16.891   2.723  0.00  0.00     0.157 C 
HETATM   32  C   UNK N   1      30.579  17.230   4.850  0.00  0.00     0.132 A 
HETATM   33  C   UNK N   1      30.860  17.197   6.168  0.00  0.00     0.158 A 
HETATM   34  C   UNK N   1      29.274  17.450   4.427  0.00  0.00     0.186 A 
HETATM   35  N   UNK N   1      29.915  17.388   7.121  0.00  0.00    -0.174 N 
HETATM   36  C   UNK N   1      28.635  17.639   6.720  0.00  0.00     0.679 A 
HETATM   37  H   UNK N   1      30.146  17.347   8.077  0.00  0.00     0.186 HD
HETATM   38  N   UNK N   1      27.727  17.851   7.595  0.00  0.00    -0.234 N 
HETATM   39  N   UNK N   1      28.317  17.660   5.384  0.00  0.00    -0.168 N 
HETATM   40  H   UNK N   1      27.956  17.855   8.551  0.00  0.00     0.174 HD
ATOM     41  HN  UNK N   1      26.764  18.016   7.300  1.00  0.00     0.174 HD
ATOM     42  HN  UNK N   1      27.353  17.834   5.099  1.00  0.00     0.186 HD
BRANCH  34  43
HETATM   43  O   UNK N   1      28.944  17.446   3.125  0.00  0.00    -0.344 OA
HETATM   44  H   UNK N   1      28.835  18.256   2.666  0.00  0.00     0.219 HD
ENDBRANCH  34  43
ENDBRANCH   4  28
TORSDOF 15
ENDMDL
MODEL 8
REMARK VINA RESULT:      -6.8      8.843     11.123
REMARK  15 active torsions:
REMARK  status: ('A' for Active; 'I' for Inactive)
REMARK    1  A    between atoms: C_4  and  C_2 
REMARK    2  A    between atoms: O_29  and  C_2 
REMARK    3  A    between atoms: C_6  and  O_19 
REMARK    4  A    between atoms: C_7  and  O_20 
REMARK    5  A    between atoms: O_21  and  C_9 
REMARK    6  A    between atoms: C_10  and  N_18 
REMARK       I    between atoms: N_12  and  C_11 
REMARK    7  A    between atoms: P_33  and  O_23 
REMARK    8  A    between atoms: P_33  and  O_24 
REMARK    9  A    between atoms: P_34  and  O_25 
REMARK   10  A    between atoms: P_35  and  O_28 
REMARK   11  A    between atoms: P_34  and  O_29 
REMARK   12  A    between atoms: P_33  and  O_31 
REMARK   13  A    between atoms: P_35  and  O_31 
REMARK   14  A    between atoms: P_34  and  O_32 
REMARK   15  A    between atoms: P_35  and  O_32 
ROOT
HETATM    1  C   UNK N   1      32.406  16.481   4.048  0.00  0.00     0.180 C 
HETATM    2  C   UNK N   1      31.517  15.252   3.759  0.00  0.00     0.182 C 
HETATM    3  C   UNK N   1      30.310  15.496   4.646  0.00  0.00     0.198 C 
HETATM    4  C   UNK N   1      30.416  16.997   4.813  0.00  0.00     0.262 C 
HETATM    5  O   UNK N   1      31.783  17.224   5.084  0.00  0.00    -0.353 OA
ENDROOT
BRANCH   1   6
HETATM    6  C   UNK N   1      33.847  16.098   4.332  0.00  0.00     0.215 C 
BRANCH   6   7
HETATM    7  O   UNK N   1      34.293  16.648   5.530  0.00  0.00    -0.294 OA
BRANCH   7   8
HETATM    8  P   UNK N   1      34.999  15.291   6.352  0.00  0.00     0.401 P 
HETATM    9  O   UNK N   1      36.356  15.006   5.653  0.00  0.00    -0.631 OA
BRANCH   8  10
HETATM   10  O   UNK N   1      34.032  13.858   6.191  0.00  0.00    -0.307 OA
HETATM   11  H   UNK N   1      33.602  13.088   6.595  0.00  0.00     0.222 HD
ENDBRANCH   8  10
BRANCH   8  12
HETATM   12  O   UNK N   1      35.368  15.622   8.018  0.00  0.00    -0.195 OA
BRANCH  12  13
HETATM   13  P   UNK N   1      34.409  16.997   8.499  0.00  0.00     0.410 P 
HETATM   14  O   UNK N   1      34.780  17.359   9.963  0.00  0.00    -0.631 OA
BRANCH  13  15
HETATM   15  O   UNK N   1      34.729  18.405   7.530  0.00  0.00    -0.307 OA
HETATM   16  H   UNK N   1      35.399  18.403   6.828  0.00  0.00     0.222 HD
ENDBRANCH  13  15
BRANCH  13  17
HETATM   17  O   UNK N   1      32.703  16.640   8.456  0.00  0.00    -0.195 OA
BRANCH  17  18
HETATM   18  P   UNK N   1      32.458  15.164   9.356  0.00  0.00     0.399 P 
HETATM   19  O   UNK N   1      32.075  14.035   8.363  0.00  0.00    -0.631 OA
BRANCH  18  20
HETATM   20  O   UNK N   1      33.940  14.669  10.112  0.00  0.00    -0.307 OA
HETATM   21  H   UNK N   1      34.109  13.730  10.291  0.00  0.00     0.222 HD
ENDBRANCH  18  20
BRANCH  18  22
HETATM   22  O   UNK N   1      31.198  15.288  10.544  0.00  0.00    -0.307 OA
HETATM   23  H   UNK N   1      31.123  15.737  11.402  0.00  0.00     0.222 HD
ENDBRANCH  18  22
ENDBRANCH  17  18
ENDBRANCH  13  17
ENDBRANCH  12  13
ENDBRANCH   8  12
ENDBRANCH   7   8
ENDBRANCH   6   7
ENDBRANCH   1   6
BRANCH   2  24
HETATM   24  O   UNK N   1      32.118  14.022   4.058  0.00  0.00    -0.390 OA
HETATM   25  H   UNK N   1      32.082  13.264   4.661  0.00  0.00     0.210 HD
ENDBRANCH   2  24
BRANCH   3  26
HETATM   26  O   UNK N   1      30.487  14.889   5.895  0.00  0.00    -0.388 OA
HETATM   27  H   UNK N   1      30.730  14.294   6.621  0.00  0.00     0.210 HD
ENDBRANCH   3  26
BRANCH   4  28
HETATM   28  N   UNK N   1      29.515  17.571   5.815  0.00  0.00    -0.296 N 
HETATM   29  C   UNK N   1      29.575  17.443   7.171  0.00  0.00     0.190 A 
HETATM   30  N   UNK N   1      28.687  18.283   7.767  0.00  0.00    -0.341 N 
HETATM   31  C   UNK N   1      28.499  18.465   9.196  0.00  0.00     0.157 C 
HETATM   32  C   UNK N   1      28.070  18.937   6.764  0.00  0.00     0.132 A 
HETATM   33  C   UNK N   1      28.567  18.496   5.593  0.00  0.00     0.158 A 
HETATM   34  C   UNK N   1      27.106  19.939   6.773  0.00  0.00     0.186 A 
HETATM   35  N   UNK N   1      28.153  18.977   4.396  0.00  0.00    -0.174 N 
HETATM   36  C   UNK N   1      27.182  19.937   4.386  0.00  0.00     0.679 A 
HETATM   37  H   UNK N   1      28.542  18.644   3.554  0.00  0.00     0.186 HD
HETATM   38  N   UNK N   1      26.751  20.392   3.272  0.00  0.00    -0.234 N 
HETATM   39  N   UNK N   1      26.671  20.419   5.567  0.00  0.00    -0.168 N 
HETATM   40  H   UNK N   1      27.103  20.035   2.425  0.00  0.00     0.174 HD
ATOM     41  HN  UNK N   1      26.043  21.126   3.261  1.00  0.00     0.174 HD
ATOM     42  HN  UNK N   1      25.957  21.147   5.545  1.00  0.00     0.186 HD
BRANCH  34  43
HETATM   43  O   UNK N   1      26.618  20.438   7.919  0.00  0.00    -0.344 OA
HETATM   44  H   UNK N   1      27.178  20.539   8.664  0.00  0.00     0.219 HD
ENDBRANCH  34  43
ENDBRANCH   4  28
TORSDOF 15
ENDMDL
MODEL 9
REMARK VINA RESULT:      -6.6      3.063      5.228
REMARK  15 active torsions:
REMARK  status: ('A' for Active; 'I' for Inactive)
REMARK    1  A    between atoms: C_4  and  C_2 
REMARK    2  A    between atoms: O_29  and  C_2 
REMARK    3  A    between atoms: C_6  and  O_19 
REMARK    4  A    between atoms: C_7  and  O_20 
REMARK    5  A    between atoms: O_21  and  C_9 
REMARK    6  A    between atoms: C_10  and  N_18 
REMARK       I    between atoms: N_12  and  C_11 
REMARK    7  A    between atoms: P_33  and  O_23 
REMARK    8  A    between atoms: P_33  and  O_24 
REMARK    9  A    between atoms: P_34  and  O_25 
REMARK   10  A    between atoms: P_35  and  O_28 
REMARK   11  A    between atoms: P_34  and  O_29 
REMARK   12  A    between atoms: P_33  and  O_31 
REMARK   13  A    between atoms: P_35  and  O_31 
REMARK   14  A    between atoms: P_34  and  O_32 
REMARK   15  A    between atoms: P_35  and  O_32 
ROOT
HETATM    1  C   UNK N   1      35.123  15.344   8.683  0.00  0.00     0.180 C 
HETATM    2  C   UNK N   1      34.534  16.381   9.665  0.00  0.00     0.182 C 
HETATM    3  C   UNK N   1      34.328  15.565  10.928  0.00  0.00     0.198 C 
HETATM    4  C   UNK N   1      35.321  14.450  10.676  0.00  0.00     0.262 C 
HETATM    5  O   UNK N   1      35.099  14.082   9.330  0.00  0.00    -0.353 OA
ENDROOT
BRANCH   1   6
HETATM    6  C   UNK N   1      34.429  15.368   7.333  0.00  0.00     0.215 C 
BRANCH   6   7
HETATM    7  O   UNK N   1      33.132  14.872   7.420  0.00  0.00    -0.294 OA
BRANCH   7   8
HETATM    8  P   UNK N   1      32.295  15.723   6.159  0.00  0.00     0.401 P 
HETATM    9  O   UNK N   1      32.933  15.271   4.818  0.00  0.00    -0.631 OA
BRANCH   8  10
HETATM   10  O   UNK N   1      32.518  17.442   6.275  0.00  0.00    -0.307 OA
HETATM   11  H   UNK N   1      32.597  18.241   6.818  0.00  0.00     0.222 HD
ENDBRANCH   8  10
BRANCH   8  12
HETATM   12  O   UNK N   1      30.609  15.309   6.062  0.00  0.00    -0.195 OA
BRANCH  12  13
HETATM   13  P   UNK N   1      29.705  16.665   6.682  0.00  0.00     0.410 P 
HETATM   14  O   UNK N   1      29.860  17.848   5.688  0.00  0.00    -0.631 OA
BRANCH  13  15
HETATM   15  O   UNK N   1      28.004  16.329   6.813  0.00  0.00    -0.307 OA
HETATM   16  H   UNK N   1      27.671  15.443   7.026  0.00  0.00     0.222 HD
ENDBRANCH  13  15
BRANCH  13  17
HETATM   17  O   UNK N   1      30.313  17.190   8.230  0.00  0.00    -0.195 OA
BRANCH  17  18
HETATM   18  P   UNK N   1      29.028  18.066   9.024  0.00  0.00     0.399 P 
HETATM   19  O   UNK N   1      29.639  18.908  10.175  0.00  0.00    -0.631 OA
BRANCH  18  20
HETATM   20  O   UNK N   1      28.302  19.195   7.924  0.00  0.00    -0.307 OA
HETATM   21  H   UNK N   1      27.339  19.307   7.900  0.00  0.00     0.222 HD
ENDBRANCH  18  20
BRANCH  18  22
HETATM   22  O   UNK N   1      27.810  17.029   9.700  0.00  0.00    -0.307 OA
HETATM   23  H   UNK N   1      27.425  16.179   9.433  0.00  0.00     0.222 HD
ENDBRANCH  18  22
ENDBRANCH  17  18
ENDBRANCH  13  17
ENDBRANCH  12  13
ENDBRANCH   8  12
ENDBRANCH   7   8
ENDBRANCH   6   7
ENDBRANCH   1   6
BRANCH   2  24
HETATM   24  O   UNK N   1      33.332  16.960   9.241  0.00  0.00    -0.390 OA
HETATM   25  H   UNK N   1      32.593  16.855   8.621  0.00  0.00     0.210 HD
ENDBRANCH   2  24
BRANCH   3  26
HETATM   26  O   UNK N   1      33.038  15.024  10.959  0.00  0.00    -0.388 OA
HETATM   27  H   UNK N   1      32.183  14.654  11.230  0.00  0.00     0.210 HD
ENDBRANCH   3  26
BRANCH   4  28
HETATM   28  N   UNK N   1      35.237  13.327  11.613  0.00  0.00    -0.296 N 
HETATM   29  C   UNK N   1      34.814  12.055  11.365  0.00  0.00     0.190 A 
HETATM   30  N   UNK N   1      35.071  11.252  12.433  0.00  0.00    -0.341 N 
HETATM   31  C   UNK N   1      34.810   9.826  12.521  0.00  0.00     0.157 C 
HETATM   32  C   UNK N   1      35.660  12.041  13.352  0.00  0.00     0.132 A 
HETATM   33  C   UNK N   1      35.747  13.290  12.854  0.00  0.00     0.158 A 
HETATM   34  C   UNK N   1      36.176  11.762  14.612  0.00  0.00     0.186 A 
HETATM   35  N   UNK N   1      36.309  14.314  13.543  0.00  0.00    -0.174 N 
HETATM   36  C   UNK N   1      36.789  14.062  14.796  0.00  0.00     0.679 A 
HETATM   37  H   UNK N   1      36.369  15.215  13.150  0.00  0.00     0.186 HD
HETATM   38  N   UNK N   1      37.300  15.013  15.482  0.00  0.00    -0.234 N 
HETATM   39  N   UNK N   1      36.731  12.794  15.320  0.00  0.00    -0.168 N 
HETATM   40  H   UNK N   1      37.326  15.925  15.115  0.00  0.00     0.174 HD
ATOM     41  HN  UNK N   1      37.681  14.825  16.409  1.00  0.00     0.174 HD
ATOM     42  HN  UNK N   1      37.107  12.617  16.252  1.00  0.00     0.186 HD
BRANCH  34  43
HETATM   43  O   UNK N   1      36.150  10.521  15.126  0.00  0.00    -0.344 OA
HETATM   44  H   UNK N   1      36.742  10.285  15.813  0.00  0.00     0.219 HD
ENDBRANCH  34  43
ENDBRANCH   4  28
TORSDOF 15
ENDMDL
