MODEL 1
REMARK VINA RESULT:      -3.8      0.000      0.000
REMARK  6 active torsions:
REMARK  status: ('A' for Active; 'I' for Inactive)
REMARK    1  A    between atoms: Hg_2  and  S_3 
REMARK    2  A    between atoms: S_3  and  C_4 
REMARK    3  A    between atoms: C_4  and  C_5 
REMARK    4  A    between atoms: C_5  and  N_6 
REMARK    5  A    between atoms: C_5  and  C_7 
REMARK    6  A    between atoms: C_7  and  O_8 
ROOT
HETATM    1  C   UNK N   1      20.059  19.681   2.214  0.00  0.00     0.181 C 
ENDROOT
BRANCH   1   2
HETATM    2  C   UNK N   1      20.690  19.639   3.593  0.00  0.00     0.099 C 
BRANCH   2   3
HETATM    3  S   UNK N   1      21.705  18.143   3.791  0.00  0.00    -0.204 SA
BRANCH   3   4
HETATM    4 Hg   UNK N   1      23.590  19.401   3.037  0.00  0.00     0.138 Hg
HETATM    5  C   UNK N   1      25.371  20.429   2.675  0.00  0.00    -0.005 C 
ENDBRANCH   3   4
ENDBRANCH   2   3
ENDBRANCH   1   2
BRANCH   1   6
HETATM    6  N   UNK N   1      19.826  18.319   1.756  0.00  0.00    -0.417 N 
HETATM    7  H   UNK N   1      19.669  18.124   0.767  0.00  0.00     0.150 HD
HETATM    8  H   UNK N   1      19.820  17.553   2.429  0.00  0.00     0.150 HD
ENDBRANCH   1   6
BRANCH   1   9
HETATM    9  C   UNK N   1      20.956  20.407   1.249  0.00  0.00     0.163 C 
HETATM   10  O   UNK N   1      22.017  20.881   1.643  0.00  0.00    -0.648 OA
BRANCH   9  11
HETATM   11  O   UNK N   1      20.610  20.550  -0.043  0.00  0.00    -0.775 OA
HETATM   12  H   UNK N   1      20.386  21.381  -0.410  0.00  0.00     0.167 HD
ENDBRANCH   9  11
ENDBRANCH   1   9
TORSDOF 6
ENDMDL
MODEL 2
REMARK VINA RESULT:      -3.7     12.447     13.652
REMARK  6 active torsions:
REMARK  status: ('A' for Active; 'I' for Inactive)
REMARK    1  A    between atoms: Hg_2  and  S_3 
REMARK    2  A    between atoms: S_3  and  C_4 
REMARK    3  A    between atoms: C_4  and  C_5 
REMARK    4  A    between atoms: C_5  and  N_6 
REMARK    5  A    between atoms: C_5  and  C_7 
REMARK    6  A    between atoms: C_7  and  O_8 
ROOT
HETATM    1  C   UNK N   1      34.351  16.843   8.702  0.00  0.00     0.181 C 
ENDROOT
BRANCH   1   2
HETATM    2  C   UNK N   1      32.949  16.314   8.460  0.00  0.00     0.099 C 
BRANCH   2   3
HETATM    3  S   UNK N   1      31.736  17.669   8.487  0.00  0.00    -0.204 SA
BRANCH   3   4
HETATM    4 Hg   UNK N   1      31.936  17.805   6.110  0.00  0.00     0.138 Hg
HETATM    5  C   UNK N   1      32.052  17.596   4.036  0.00  0.00    -0.005 C 
ENDBRANCH   3   4
ENDBRANCH   2   3
ENDBRANCH   1   2
BRANCH   1   6
HETATM    6  N   UNK N   1      34.506  17.147  10.118  0.00  0.00    -0.417 N 
HETATM    7  H   UNK N   1      33.687  17.279  10.712  0.00  0.00     0.150 HD
HETATM    8  H   UNK N   1      35.440  17.228  10.518  0.00  0.00     0.150 HD
ENDBRANCH   1   6
BRANCH   1   9
HETATM    9  C   UNK N   1      34.595  18.076   7.877  0.00  0.00     0.163 C 
HETATM   10  O   UNK N   1      34.978  19.107   8.421  0.00  0.00    -0.648 OA
BRANCH   9  11
HETATM   11  O   UNK N   1      34.394  18.068   6.547  0.00  0.00    -0.775 OA
HETATM   12  H   UNK N   1      33.580  17.805   6.167  0.00  0.00     0.167 HD
ENDBRANCH   9  11
ENDBRANCH   1   9
TORSDOF 6
ENDMDL
MODEL 3
REMARK VINA RESULT:      -3.7     13.421     14.112
REMARK  6 active torsions:
REMARK  status: ('A' for Active; 'I' for Inactive)
REMARK    1  A    between atoms: Hg_2  and  S_3 
REMARK    2  A    between atoms: S_3  and  C_4 
REMARK    3  A    between atoms: C_4  and  C_5 
REMARK    4  A    between atoms: C_5  and  N_6 
REMARK    5  A    between atoms: C_5  and  C_7 
REMARK    6  A    between atoms: C_7  and  O_8 
ROOT
HETATM    1  C   UNK N   1      33.895  17.014   8.651  0.00  0.00     0.181 C 
ENDROOT
BRANCH   1   2
HETATM    2  C   UNK N   1      32.382  17.123   8.683  0.00  0.00     0.099 C 
BRANCH   2   3
HETATM    3  S   UNK N   1      31.630  15.981   7.484  0.00  0.00    -0.204 SA
BRANCH   3   4
HETATM    4 Hg   UNK N   1      33.820  15.516   6.651  0.00  0.00     0.138 Hg
HETATM    5  C   UNK N   1      35.734  14.856   6.142  0.00  0.00    -0.005 C 
ENDBRANCH   3   4
ENDBRANCH   2   3
ENDBRANCH   1   2
BRANCH   1   6
HETATM    6  N   UNK N   1      34.404  17.063  10.015  0.00  0.00    -0.417 N 
HETATM    7  H   UNK N   1      34.804  17.924  10.387  0.00  0.00     0.150 HD
HETATM    8  H   UNK N   1      34.359  16.230  10.601  0.00  0.00     0.150 HD
ENDBRANCH   1   6
BRANCH   1   9
HETATM    9  C   UNK N   1      34.484  18.134   7.837  0.00  0.00     0.163 C 
HETATM   10  O   UNK N   1      34.421  18.095   6.612  0.00  0.00    -0.648 OA
BRANCH   9  11
HETATM   11  O   UNK N   1      35.087  19.178   8.433  0.00  0.00    -0.775 OA
HETATM   12  H   UNK N   1      35.631  19.075   9.188  0.00  0.00     0.167 HD
ENDBRANCH   9  11
ENDBRANCH   1   9
TORSDOF 6
ENDMDL
MODEL 4
REMARK VINA RESULT:      -3.7     14.097     14.984
REMARK  6 active torsions:
REMARK  status: ('A' for Active; 'I' for Inactive)
REMARK    1  A    between atoms: Hg_2  and  S_3 
REMARK    2  A    between atoms: S_3  and  C_4 
REMARK    3  A    between atoms: C_4  and  C_5 
REMARK    4  A    between atoms: C_5  and  N_6 
REMARK    5  A    between atoms: C_5  and  C_7 
REMARK    6  A    between atoms: C_7  and  O_8 
ROOT
HETATM    1  C   UNK N   1      34.361  16.921   8.852  0.00  0.00     0.181 C 
ENDROOT
BRANCH   1   2
HETATM    2  C   UNK N   1      32.883  16.580   8.793  0.00  0.00     0.099 C 
BRANCH   2   3
HETATM    3  S   UNK N   1      32.644  14.804   8.488  0.00  0.00    -0.204 SA
BRANCH   3   4
HETATM    4 Hg   UNK N   1      33.986  14.360  10.414  0.00  0.00     0.138 Hg
HETATM    5  C   UNK N   1      35.052  13.656  12.066  0.00  0.00    -0.005 C 
ENDBRANCH   3   4
ENDBRANCH   2   3
ENDBRANCH   1   2
BRANCH   1   6
HETATM    6  N   UNK N   1      34.739  17.155  10.239  0.00  0.00    -0.417 N 
HETATM    7  H   UNK N   1      35.110  16.395  10.810  0.00  0.00     0.150 HD
HETATM    8  H   UNK N   1      34.632  18.085  10.643  0.00  0.00     0.150 HD
ENDBRANCH   1   6
BRANCH   1   9
HETATM    9  C   UNK N   1      34.652  18.142   8.023  0.00  0.00     0.163 C 
HETATM   10  O   UNK N   1      34.325  18.166   6.840  0.00  0.00    -0.648 OA
BRANCH   9  11
HETATM   11  O   UNK N   1      35.271  19.209   8.557  0.00  0.00    -0.775 OA
HETATM   12  H   UNK N   1      34.891  19.711   9.250  0.00  0.00     0.167 HD
ENDBRANCH   9  11
ENDBRANCH   1   9
TORSDOF 6
ENDMDL
MODEL 5
REMARK VINA RESULT:      -3.6     10.605     11.330
REMARK  6 active torsions:
REMARK  status: ('A' for Active; 'I' for Inactive)
REMARK    1  A    between atoms: Hg_2  and  S_3 
REMARK    2  A    between atoms: S_3  and  C_4 
REMARK    3  A    between atoms: C_4  and  C_5 
REMARK    4  A    between atoms: C_5  and  N_6 
REMARK    5  A    between atoms: C_5  and  C_7 
REMARK    6  A    between atoms: C_7  and  O_8 
ROOT
HETATM    1  C   UNK N   1      22.683  11.916  11.043  0.00  0.00     0.181 C 
ENDROOT
BRANCH   1   2
HETATM    2  C   UNK N   1      22.662  13.073  10.060  0.00  0.00     0.099 C 
BRANCH   2   3
HETATM    3  S   UNK N   1      20.967  13.690   9.830  0.00  0.00    -0.204 SA
BRANCH   3   4
HETATM    4 Hg   UNK N   1      21.778  15.061   8.050  0.00  0.00     0.138 Hg
HETATM    5  C   UNK N   1      22.165  16.327   6.435  0.00  0.00    -0.005 C 
ENDBRANCH   3   4
ENDBRANCH   2   3
ENDBRANCH   1   2
BRANCH   1   6
HETATM    6  N   UNK N   1      21.402  11.855  11.732  0.00  0.00    -0.417 N 
HETATM    7  H   UNK N   1      20.742  12.631  11.669  0.00  0.00     0.150 HD
HETATM    8  H   UNK N   1      21.162  11.030  12.281  0.00  0.00     0.150 HD
ENDBRANCH   1   6
BRANCH   1   9
HETATM    9  C   UNK N   1      23.799  12.093  12.037  0.00  0.00     0.163 C 
HETATM   10  O   UNK N   1      23.568  11.984  13.237  0.00  0.00    -0.648 OA
BRANCH   9  11
HETATM   11  O   UNK N   1      25.048  12.376  11.629  0.00  0.00    -0.775 OA
HETATM   12  H   UNK N   1      25.478  11.883  10.959  0.00  0.00     0.167 HD
ENDBRANCH   9  11
ENDBRANCH   1   9
TORSDOF 6
ENDMDL
MODEL 6
REMARK VINA RESULT:      -3.4      2.500      3.202
REMARK  6 active torsions:
REMARK  status: ('A' for Active; 'I' for Inactive)
REMARK    1  A    between atoms: Hg_2  and  S_3 
REMARK    2  A    between atoms: S_3  and  C_4 
REMARK    3  A    between atoms: C_4  and  C_5 
REMARK    4  A    between atoms: C_5  and  N_6 
REMARK    5  A    between atoms: C_5  and  C_7 
REMARK    6  A    between atoms: C_7  and  O_8 
ROOT
HETATM    1  C   UNK N   1      20.126  19.369   2.624  0.00  0.00     0.181 C 
ENDROOT
BRANCH   1   2
HETATM    2  C   UNK N   1      21.083  18.251   2.997  0.00  0.00     0.099 C 
BRANCH   2   3
HETATM    3  S   UNK N   1      20.218  16.652   3.043  0.00  0.00    -0.204 SA
BRANCH   3   4
HETATM    4 Hg   UNK N   1      20.383  16.706   5.425  0.00  0.00     0.138 Hg
HETATM    5  C   UNK N   1      20.481  17.082   7.476  0.00  0.00    -0.005 C 
ENDBRANCH   3   4
ENDBRANCH   2   3
ENDBRANCH   1   2
BRANCH   1   6
HETATM    6  N   UNK N   1      18.840  18.791   2.261  0.00  0.00    -0.417 N 
HETATM    7  H   UNK N   1      18.739  18.249   1.403  0.00  0.00     0.150 HD
HETATM    8  H   UNK N   1      18.034  18.929   2.870  0.00  0.00     0.150 HD
ENDBRANCH   1   6
BRANCH   1   9
HETATM    9  C   UNK N   1      20.678  20.170   1.477  0.00  0.00     0.163 C 
HETATM   10  O   UNK N   1      21.217  21.251   1.692  0.00  0.00    -0.648 OA
BRANCH   9  11
HETATM   11  O   UNK N   1      20.584  19.721   0.213  0.00  0.00    -0.775 OA
HETATM   12  H   UNK N   1      20.429  20.295  -0.511  0.00  0.00     0.167 HD
ENDBRANCH   9  11
ENDBRANCH   1   9
TORSDOF 6
ENDMDL
MODEL 7
REMARK VINA RESULT:      -3.4      1.306      1.306
REMARK  6 active torsions:
REMARK  status: ('A' for Active; 'I' for Inactive)
REMARK    1  A    between atoms: Hg_2  and  S_3 
REMARK    2  A    between atoms: S_3  and  C_4 
REMARK    3  A    between atoms: C_4  and  C_5 
REMARK    4  A    between atoms: C_5  and  N_6 
REMARK    5  A    between atoms: C_5  and  C_7 
REMARK    6  A    between atoms: C_7  and  O_8 
ROOT
HETATM    1  C   UNK N   1      20.109  19.432   2.574  0.00  0.00     0.181 C 
ENDROOT
BRANCH   1   2
HETATM    2  C   UNK N   1      21.116  18.376   2.991  0.00  0.00     0.099 C 
BRANCH   2   3
HETATM    3  S   UNK N   1      21.449  18.473   4.776  0.00  0.00    -0.204 SA
BRANCH   3   4
HETATM    4 Hg   UNK N   1      23.784  18.388   4.278  0.00  0.00     0.138 Hg
HETATM    5  C   UNK N   1      25.731  18.165   3.558  0.00  0.00    -0.005 C 
ENDBRANCH   3   4
ENDBRANCH   2   3
ENDBRANCH   1   2
BRANCH   1   6
HETATM    6  N   UNK N   1      18.860  18.780   2.209  0.00  0.00    -0.417 N 
HETATM    7  H   UNK N   1      17.975  19.283   2.272  0.00  0.00     0.150 HD
HETATM    8  H   UNK N   1      18.870  17.812   1.889  0.00  0.00     0.150 HD
ENDBRANCH   1   6
BRANCH   1   9
HETATM    9  C   UNK N   1      20.637  20.230   1.413  0.00  0.00     0.163 C 
HETATM   10  O   UNK N   1      21.116  21.343   1.606  0.00  0.00    -0.648 OA
BRANCH   9  11
HETATM   11  O   UNK N   1      20.586  19.742   0.161  0.00  0.00    -0.775 OA
HETATM   12  H   UNK N   1      20.413  20.288  -0.581  0.00  0.00     0.167 HD
ENDBRANCH   9  11
ENDBRANCH   1   9
TORSDOF 6
ENDMDL
MODEL 8
REMARK VINA RESULT:      -3.3     20.820     22.185
REMARK  6 active torsions:
REMARK  status: ('A' for Active; 'I' for Inactive)
REMARK    1  A    between atoms: Hg_2  and  S_3 
REMARK    2  A    between atoms: S_3  and  C_4 
REMARK    3  A    between atoms: C_4  and  C_5 
REMARK    4  A    between atoms: C_5  and  N_6 
REMARK    5  A    between atoms: C_5  and  C_7 
REMARK    6  A    between atoms: C_7  and  O_8 
ROOT
HETATM    1  C   UNK N   1      44.538  22.111   3.285  0.00  0.00     0.181 C 
ENDROOT
BRANCH   1   2
HETATM    2  C   UNK N   1      43.503  21.222   3.950  0.00  0.00     0.099 C 
BRANCH   2   3
HETATM    3  S   UNK N   1      43.041  19.843   2.858  0.00  0.00    -0.204 SA
BRANCH   3   4
HETATM    4 Hg   UNK N   1      41.824  21.401   1.516  0.00  0.00     0.138 Hg
HETATM    5  C   UNK N   1      40.565  22.502   0.267  0.00  0.00    -0.005 C 
ENDBRANCH   3   4
ENDBRANCH   2   3
ENDBRANCH   1   2
BRANCH   1   6
HETATM    6  N   UNK N   1      45.687  22.246   4.169  0.00  0.00    -0.417 N 
HETATM    7  H   UNK N   1      45.566  22.228   5.182  0.00  0.00     0.150 HD
HETATM    8  H   UNK N   1      46.619  22.359   3.773  0.00  0.00     0.150 HD
ENDBRANCH   1   6
BRANCH   1   9
HETATM    9  C   UNK N   1      43.952  23.463   2.985  0.00  0.00     0.163 C 
HETATM   10  O   UNK N   1      44.681  24.450   2.955  0.00  0.00    -0.648 OA
BRANCH   9  11
HETATM   11  O   UNK N   1      42.636  23.609   2.753  0.00  0.00    -0.775 OA
HETATM   12  H   UNK N   1      42.271  24.410   2.431  0.00  0.00     0.167 HD
ENDBRANCH   9  11
ENDBRANCH   1   9
TORSDOF 6
ENDMDL
MODEL 9
REMARK VINA RESULT:      -3.3     13.970     15.565
REMARK  6 active torsions:
REMARK  status: ('A' for Active; 'I' for Inactive)
REMARK    1  A    between atoms: Hg_2  and  S_3 
REMARK    2  A    between atoms: S_3  and  C_4 
REMARK    3  A    between atoms: C_4  and  C_5 
REMARK    4  A    between atoms: C_5  and  N_6 
REMARK    5  A    between atoms: C_5  and  C_7 
REMARK    6  A    between atoms: C_7  and  O_8 
ROOT
HETATM    1  C   UNK N   1      34.736  15.302   9.987  0.00  0.00     0.181 C 
ENDROOT
BRANCH   1   2
HETATM    2  C   UNK N   1      34.101  15.701   8.668  0.00  0.00     0.099 C 
BRANCH   2   3
HETATM    3  S   UNK N   1      35.071  15.064   7.268  0.00  0.00    -0.204 SA
BRANCH   3   4
HETATM    4 Hg   UNK N   1      33.694  16.360   5.809  0.00  0.00     0.138 Hg
HETATM    5  C   UNK N   1      32.772  17.553   4.364  0.00  0.00    -0.005 C 
ENDBRANCH   3   4
ENDBRANCH   2   3
ENDBRANCH   1   2
BRANCH   1   6
HETATM    6  N   UNK N   1      33.689  15.119  10.982  0.00  0.00    -0.417 N 
HETATM    7  H   UNK N   1      33.088  15.898  11.252  0.00  0.00     0.150 HD
HETATM    8  H   UNK N   1      33.555  14.204  11.413  0.00  0.00     0.150 HD
ENDBRANCH   1   6
BRANCH   1   9
HETATM    9  C   UNK N   1      35.706  16.358  10.443  0.00  0.00     0.163 C 
HETATM   10  O   UNK N   1      35.414  17.544  10.327  0.00  0.00    -0.648 OA
BRANCH   9  11
HETATM   11  O   UNK N   1      36.895  16.021  10.973  0.00  0.00    -0.775 OA
HETATM   12  H   UNK N   1      37.706  16.274  10.580  0.00  0.00     0.167 HD
ENDBRANCH   9  11
ENDBRANCH   1   9
TORSDOF 6
ENDMDL
