MODEL 1
REMARK VINA RESULT:      -6.9      0.000      0.000
REMARK  15 active torsions:
REMARK  status: ('A' for Active; 'I' for Inactive)
REMARK    1  A    between atoms: C_10  and  C_8 
REMARK    2  A    between atoms: N_20  and  C_8 
REMARK    3  A    between atoms: C_11  and  C_9 
REMARK    4  A    between atoms: N_26  and  C_9 
REMARK    5  A    between atoms: S_35  and  C_10 
REMARK    6  A    between atoms: S_36  and  C_11 
REMARK    7  A    between atoms: O_30  and  C_12 
REMARK    8  A    between atoms: C_13  and  C_17 
REMARK    9  A    between atoms: C_14  and  N_28 
REMARK   10  A    between atoms: C_18  and  C_15 
REMARK   11  A    between atoms: C_19  and  C_16 
REMARK   12  A    between atoms: O_31  and  C_17 
REMARK   13  A    between atoms: C_18  and  O_32 
REMARK   14  A    between atoms: O_34  and  C_19 
REMARK   15  A    between atoms: S_36  and  S_35 
ROOT
HETATM    1  C   UNK N   1      28.242  18.062   6.539  0.00  0.00     0.015 C 
HETATM    2  C   UNK N   1      30.366  17.598   5.197  0.00  0.00     0.015 C 
HETATM    3  C   UNK N   1      29.301  17.968   7.660  0.00  0.00     0.026 C 
HETATM    4  C   UNK N   1      30.288  16.307   5.988  0.00  0.00     0.026 C 
HETATM    5  C   UNK N   1      28.955  18.224   5.179  0.00  0.00     0.060 C 
HETATM    6  C   UNK N   1      30.138  16.674   7.474  0.00  0.00     0.083 C 
ENDROOT
BRANCH   5   7
HETATM    7  C   UNK N   1      28.191  17.693   3.991  0.00  0.00     0.115 C 
HETATM    8  N   UNK N   1      26.907  17.633   4.076  0.00  0.00    -0.373 N 
ATOM      9  HN  UNK N   1      26.440  18.225   4.762  1.00  0.00     0.161 HD
BRANCH   8  10
HETATM   10  C   UNK N   1      26.104  16.782   3.261  0.00  0.00     0.132 C 
BRANCH  10  11
HETATM   11  C   UNK N   1      25.812  15.646   4.225  0.00  0.00     0.105 C 
BRANCH  11  12
HETATM   12  S   UNK N   1      24.465  15.934   5.367  0.00  0.00    -0.096 SA
BRANCH  12  13
HETATM   13  S   UNK N   1      23.166  16.430   3.757  0.00  0.00    -0.096 SA
BRANCH  13  14
HETATM   14  C   UNK N   1      22.251  17.521   4.862  0.00  0.00     0.105 C 
BRANCH  14  15
HETATM   15  C   UNK N   1      22.266  18.894   4.229  0.00  0.00     0.132 C 
BRANCH  15  16
HETATM   16  N   UNK N   1      23.606  19.245   3.843  0.00  0.00    -0.374 N 
HETATM   17  C   UNK N   1      23.842  20.290   3.133  0.00  0.00     0.106 C 
HETATM   18  C   UNK N   1      25.242  20.619   2.750  0.00  0.00     0.097 C 
ATOM     19  HN  UNK N   1      24.384  18.655   4.139  1.00  0.00     0.161 HD
BRANCH  17  20
HETATM   20  O   UNK N   1      22.835  21.086   2.721  0.00  0.00    -0.350 OA
HETATM   21  H   UNK N   1      21.964  20.947   3.041  0.00  0.00     0.219 HD
ENDBRANCH  17  20
ENDBRANCH  15  16
ENDBRANCH  14  15
ENDBRANCH  13  14
ENDBRANCH  12  13
ENDBRANCH  11  12
ENDBRANCH  10  11
ENDBRANCH   8  10
BRANCH   7  22
HETATM   22  O   UNK N   1      28.846  17.111   2.964  0.00  0.00    -0.349 OA
HETATM   23  H   UNK N   1      29.729  16.814   3.062  0.00  0.00     0.219 HD
ENDBRANCH   7  22
ENDBRANCH   5   7
BRANCH   6  24
HETATM   24  N   UNK N   1      31.406  16.729   8.210  0.00  0.00    -0.364 N 
HETATM   25  C   UNK N   1      32.238  15.757   8.452  0.00  0.00     0.166 C 
ATOM     26  HN  UNK N   1      31.671  17.643   8.576  1.00  0.00     0.162 HD
BRANCH  25  27
HETATM   27  C   UNK N   1      33.394  16.010   9.363  0.00  0.00     0.117 A 
HETATM   28  C   UNK N   1      34.411  17.030   9.223  0.00  0.00     0.137 A 
HETATM   29  N   UNK N   1      35.414  17.053  10.146  0.00  0.00    -0.357 N 
HETATM   30  C   UNK N   1      35.492  16.175  11.175  0.00  0.00     0.105 A 
ATOM     31  HN  UNK N   1      36.140  17.764  10.059  1.00  0.00     0.165 HD
HETATM   32  C   UNK N   1      34.522  15.199  11.307  0.00  0.00     0.105 A 
HETATM   33  N   UNK N   1      33.515  15.137  10.409  0.00  0.00    -0.359 N 
ATOM     34  HN  UNK N   1      32.812  14.405  10.515  1.00  0.00     0.165 HD
BRANCH  28  35
HETATM   35  C   UNK N   1      34.534  18.065   8.139  0.00  0.00     0.196 C 
HETATM   36  O   UNK N   1      34.990  19.160   8.431  0.00  0.00    -0.645 OA
BRANCH  35  37
HETATM   37  O   UNK N   1      34.183  17.853   6.866  0.00  0.00    -0.772 OA
HETATM   38  H   UNK N   1      33.429  17.334   6.666  0.00  0.00     0.167 HD
ENDBRANCH  35  37
ENDBRANCH  28  35
ENDBRANCH  25  27
BRANCH  25  39
HETATM   39  O   UNK N   1      32.032  14.538   7.928  0.00  0.00    -0.345 OA
HETATM   40  H   UNK N   1      31.221  14.334   7.505  0.00  0.00     0.219 HD
ENDBRANCH  25  39
ENDBRANCH   6  24
TORSDOF 15
ENDMDL
MODEL 2
REMARK VINA RESULT:      -6.7      2.646      3.690
REMARK  15 active torsions:
REMARK  status: ('A' for Active; 'I' for Inactive)
REMARK    1  A    between atoms: C_10  and  C_8 
REMARK    2  A    between atoms: N_20  and  C_8 
REMARK    3  A    between atoms: C_11  and  C_9 
REMARK    4  A    between atoms: N_26  and  C_9 
REMARK    5  A    between atoms: S_35  and  C_10 
REMARK    6  A    between atoms: S_36  and  C_11 
REMARK    7  A    between atoms: O_30  and  C_12 
REMARK    8  A    between atoms: C_13  and  C_17 
REMARK    9  A    between atoms: C_14  and  N_28 
REMARK   10  A    between atoms: C_18  and  C_15 
REMARK   11  A    between atoms: C_19  and  C_16 
REMARK   12  A    between atoms: O_31  and  C_17 
REMARK   13  A    between atoms: C_18  and  O_32 
REMARK   14  A    between atoms: O_34  and  C_19 
REMARK   15  A    between atoms: S_36  and  S_35 
ROOT
HETATM    1  C   UNK N   1      29.757  17.550   6.478  0.00  0.00     0.015 C 
HETATM    2  C   UNK N   1      29.510  17.610   9.020  0.00  0.00     0.015 C 
HETATM    3  C   UNK N   1      31.114  16.969   6.934  0.00  0.00     0.026 C 
HETATM    4  C   UNK N   1      30.660  18.584   8.861  0.00  0.00     0.026 C 
HETATM    5  C   UNK N   1      28.771  17.530   7.666  0.00  0.00     0.060 C 
HETATM    6  C   UNK N   1      31.741  17.901   8.006  0.00  0.00     0.083 C 
ENDROOT
BRANCH   5   7
HETATM    7  C   UNK N   1      27.698  18.591   7.622  0.00  0.00     0.115 C 
HETATM    8  N   UNK N   1      27.323  19.025   6.468  0.00  0.00    -0.373 N 
ATOM      9  HN  UNK N   1      27.498  18.438   5.652  1.00  0.00     0.161 HD
BRANCH   8  10
HETATM   10  C   UNK N   1      26.677  20.280   6.272  0.00  0.00     0.132 C 
BRANCH  10  11
HETATM   11  C   UNK N   1      26.925  20.506   4.791  0.00  0.00     0.105 C 
BRANCH  11  12
HETATM   12  S   UNK N   1      26.487  19.140   3.722  0.00  0.00    -0.096 SA
BRANCH  12  13
HETATM   13  S   UNK N   1      24.466  19.798   3.656  0.00  0.00    -0.096 SA
BRANCH  13  14
HETATM   14  C   UNK N   1      23.972  18.295   4.520  0.00  0.00     0.105 C 
BRANCH  14  15
HETATM   15  C   UNK N   1      22.488  18.411   4.780  0.00  0.00     0.132 C 
BRANCH  15  16
HETATM   16  N   UNK N   1      22.044  17.316   5.601  0.00  0.00    -0.374 N 
HETATM   17  C   UNK N   1      21.324  17.517   6.646  0.00  0.00     0.106 C 
HETATM   18  C   UNK N   1      20.888  16.360   7.473  0.00  0.00     0.097 C 
ATOM     19  HN  UNK N   1      22.307  16.363   5.349  1.00  0.00     0.161 HD
BRANCH  17  20
HETATM   20  O   UNK N   1      20.967  18.766   7.008  0.00  0.00    -0.350 OA
HETATM   21  H   UNK N   1      20.933  19.450   6.367  0.00  0.00     0.219 HD
ENDBRANCH  17  20
ENDBRANCH  15  16
ENDBRANCH  14  15
ENDBRANCH  13  14
ENDBRANCH  12  13
ENDBRANCH  11  12
ENDBRANCH  10  11
ENDBRANCH   8  10
BRANCH   7  22
HETATM   22  O   UNK N   1      27.302  19.207   8.756  0.00  0.00    -0.349 OA
HETATM   23  H   UNK N   1      27.418  18.800   9.591  0.00  0.00     0.219 HD
ENDBRANCH   7  22
ENDBRANCH   5   7
BRANCH   6  24
HETATM   24  N   UNK N   1      32.781  17.220   8.785  0.00  0.00    -0.364 N 
HETATM   25  C   UNK N   1      34.072  17.274   8.621  0.00  0.00     0.166 C 
ATOM     26  HN  UNK N   1      32.453  16.633   9.551  1.00  0.00     0.162 HD
BRANCH  25  27
HETATM   27  C   UNK N   1      34.938  16.368   9.434  0.00  0.00     0.117 A 
HETATM   28  C   UNK N   1      35.636  15.185   8.980  0.00  0.00     0.137 A 
HETATM   29  N   UNK N   1      36.335  14.468   9.906  0.00  0.00    -0.357 N 
HETATM   30  C   UNK N   1      36.402  14.818  11.213  0.00  0.00     0.105 A 
ATOM     31  HN  UNK N   1      36.830  13.631   9.601  1.00  0.00     0.165 HD
HETATM   32  C   UNK N   1      35.733  15.946  11.648  0.00  0.00     0.105 A 
HETATM   33  N   UNK N   1      35.023  16.680  10.763  0.00  0.00    -0.359 N 
ATOM     34  HN  UNK N   1      34.526  17.505  11.102  1.00  0.00     0.165 HD
BRANCH  28  35
HETATM   35  C   UNK N   1      35.656  14.603   7.593  0.00  0.00     0.196 C 
HETATM   36  O   UNK N   1      35.689  13.387   7.474  0.00  0.00    -0.645 OA
BRANCH  35  37
HETATM   37  O   UNK N   1      35.627  15.340   6.477  0.00  0.00    -0.772 OA
HETATM   38  H   UNK N   1      34.809  15.533   6.063  0.00  0.00     0.167 HD
ENDBRANCH  35  37
ENDBRANCH  28  35
ENDBRANCH  25  27
BRANCH  25  39
HETATM   39  O   UNK N   1      34.609  18.096   7.706  0.00  0.00    -0.345 OA
HETATM   40  H   UNK N   1      34.221  18.180   6.857  0.00  0.00     0.219 HD
ENDBRANCH  25  39
ENDBRANCH   6  24
TORSDOF 15
ENDMDL
MODEL 3
REMARK VINA RESULT:      -6.6      3.685     11.157
REMARK  15 active torsions:
REMARK  status: ('A' for Active; 'I' for Inactive)
REMARK    1  A    between atoms: C_10  and  C_8 
REMARK    2  A    between atoms: N_20  and  C_8 
REMARK    3  A    between atoms: C_11  and  C_9 
REMARK    4  A    between atoms: N_26  and  C_9 
REMARK    5  A    between atoms: S_35  and  C_10 
REMARK    6  A    between atoms: S_36  and  C_11 
REMARK    7  A    between atoms: O_30  and  C_12 
REMARK    8  A    between atoms: C_13  and  C_17 
REMARK    9  A    between atoms: C_14  and  N_28 
REMARK   10  A    between atoms: C_18  and  C_15 
REMARK   11  A    between atoms: C_19  and  C_16 
REMARK   12  A    between atoms: O_31  and  C_17 
REMARK   13  A    between atoms: C_18  and  O_32 
REMARK   14  A    between atoms: O_34  and  C_19 
REMARK   15  A    between atoms: S_36  and  S_35 
ROOT
HETATM    1  C   UNK N   1      29.582  18.675   8.364  0.00  0.00     0.015 C 
HETATM    2  C   UNK N   1      29.241  16.699   6.780  0.00  0.00     0.015 C 
HETATM    3  C   UNK N   1      28.105  18.862   7.949  0.00  0.00     0.026 C 
HETATM    4  C   UNK N   1      29.034  17.838   5.802  0.00  0.00     0.026 C 
HETATM    5  C   UNK N   1      30.040  17.250   7.981  0.00  0.00     0.060 C 
HETATM    6  C   UNK N   1      27.989  18.793   6.403  0.00  0.00     0.083 C 
ENDROOT
BRANCH   5   7
HETATM    7  C   UNK N   1      31.517  17.109   7.702  0.00  0.00     0.115 C 
HETATM    8  N   UNK N   1      31.945  15.974   7.271  0.00  0.00    -0.373 N 
ATOM      9  HN  UNK N   1      31.278  15.343   6.828  1.00  0.00     0.161 HD
BRANCH   8  10
HETATM   10  C   UNK N   1      33.302  15.552   7.380  0.00  0.00     0.132 C 
BRANCH  10  11
HETATM   11  C   UNK N   1      33.222  14.617   8.573  0.00  0.00     0.105 C 
BRANCH  11  12
HETATM   12  S   UNK N   1      34.761  14.351   9.445  0.00  0.00    -0.096 SA
BRANCH  12  13
HETATM   13  S   UNK N   1      34.929  16.432   9.849  0.00  0.00    -0.096 SA
BRANCH  13  14
HETATM   14  C   UNK N   1      36.066  16.056  11.196  0.00  0.00     0.105 C 
BRANCH  14  15
HETATM   15  C   UNK N   1      36.242  14.554  11.211  0.00  0.00     0.132 C 
BRANCH  15  16
HETATM   16  N   UNK N   1      36.731  14.127  12.494  0.00  0.00    -0.374 N 
HETATM   17  C   UNK N   1      35.946  13.594  13.362  0.00  0.00     0.106 C 
HETATM   18  C   UNK N   1      36.488  13.169  14.681  0.00  0.00     0.097 C 
ATOM     19  HN  UNK N   1      37.718  14.250  12.720  1.00  0.00     0.161 HD
BRANCH  17  20
HETATM   20  O   UNK N   1      34.636  13.425  13.094  0.00  0.00    -0.350 OA
HETATM   21  H   UNK N   1      33.993  13.938  13.544  0.00  0.00     0.219 HD
ENDBRANCH  17  20
ENDBRANCH  15  16
ENDBRANCH  14  15
ENDBRANCH  13  14
ENDBRANCH  12  13
ENDBRANCH  11  12
ENDBRANCH  10  11
ENDBRANCH   8  10
BRANCH   7  22
HETATM   22  O   UNK N   1      32.378  18.072   8.091  0.00  0.00    -0.349 OA
HETATM   23  H   UNK N   1      32.102  18.768   8.655  0.00  0.00     0.219 HD
ENDBRANCH   7  22
ENDBRANCH   5   7
BRANCH   6  24
HETATM   24  N   UNK N   1      26.613  18.529   5.967  0.00  0.00    -0.364 N 
HETATM   25  C   UNK N   1      26.095  18.712   4.786  0.00  0.00     0.166 C 
ATOM     26  HN  UNK N   1      25.984  18.153   6.676  1.00  0.00     0.162 HD
BRANCH  25  27
HETATM   27  C   UNK N   1      24.624  18.525   4.610  0.00  0.00     0.117 A 
HETATM   28  C   UNK N   1      23.724  19.349   3.833  0.00  0.00     0.137 A 
HETATM   29  N   UNK N   1      22.399  19.027   3.849  0.00  0.00    -0.357 N 
HETATM   30  C   UNK N   1      21.901  17.981   4.550  0.00  0.00     0.105 A 
ATOM     31  HN  UNK N   1      21.752  19.602   3.308  1.00  0.00     0.165 HD
HETATM   32  C   UNK N   1      22.760  17.196   5.295  0.00  0.00     0.105 A 
HETATM   33  N   UNK N   1      24.080  17.484   5.312  0.00  0.00    -0.359 N 
ATOM     34  HN  UNK N   1      24.700  16.900   5.874  1.00  0.00     0.165 HD
BRANCH  28  35
HETATM   35  C   UNK N   1      24.061  20.572   3.025  0.00  0.00     0.196 C 
HETATM   36  O   UNK N   1      23.291  21.520   3.056  0.00  0.00    -0.645 OA
BRANCH  35  37
HETATM   37  O   UNK N   1      25.166  20.689   2.280  0.00  0.00    -0.772 OA
HETATM   38  H   UNK N   1      25.917  20.160   2.466  0.00  0.00     0.167 HD
ENDBRANCH  35  37
ENDBRANCH  28  35
ENDBRANCH  25  27
BRANCH  25  39
HETATM   39  O   UNK N   1      26.865  19.106   3.759  0.00  0.00    -0.345 OA
HETATM   40  H   UNK N   1      27.571  18.569   3.461  0.00  0.00     0.219 HD
ENDBRANCH  25  39
ENDBRANCH   6  24
TORSDOF 15
ENDMDL
MODEL 4
REMARK VINA RESULT:      -6.6      3.606      4.952
REMARK  15 active torsions:
REMARK  status: ('A' for Active; 'I' for Inactive)
REMARK    1  A    between atoms: C_10  and  C_8 
REMARK    2  A    between atoms: N_20  and  C_8 
REMARK    3  A    between atoms: C_11  and  C_9 
REMARK    4  A    between atoms: N_26  and  C_9 
REMARK    5  A    between atoms: S_35  and  C_10 
REMARK    6  A    between atoms: S_36  and  C_11 
REMARK    7  A    between atoms: O_30  and  C_12 
REMARK    8  A    between atoms: C_13  and  C_17 
REMARK    9  A    between atoms: C_14  and  N_28 
REMARK   10  A    between atoms: C_18  and  C_15 
REMARK   11  A    between atoms: C_19  and  C_16 
REMARK   12  A    between atoms: O_31  and  C_17 
REMARK   13  A    between atoms: C_18  and  O_32 
REMARK   14  A    between atoms: O_34  and  C_19 
REMARK   15  A    between atoms: S_36  and  S_35 
ROOT
HETATM    1  C   UNK N   1      33.386  17.704   6.779  0.00  0.00     0.015 C 
HETATM    2  C   UNK N   1      33.963  15.340   6.001  0.00  0.00     0.015 C 
HETATM    3  C   UNK N   1      34.000  17.098   8.060  0.00  0.00     0.026 C 
HETATM    4  C   UNK N   1      32.930  15.006   7.059  0.00  0.00     0.026 C 
HETATM    5  C   UNK N   1      33.740  16.806   5.573  0.00  0.00     0.060 C 
HETATM    6  C   UNK N   1      33.334  15.728   8.356  0.00  0.00     0.083 C 
ENDROOT
BRANCH   5   7
HETATM    7  C   UNK N   1      32.749  16.847   4.435  0.00  0.00     0.115 C 
HETATM    8  N   UNK N   1      31.510  17.057   4.719  0.00  0.00    -0.373 N 
ATOM      9  HN  UNK N   1      31.288  17.503   5.608  1.00  0.00     0.161 HD
BRANCH   8  10
HETATM   10  C   UNK N   1      30.434  16.697   3.857  0.00  0.00     0.132 C 
BRANCH  10  11
HETATM   11  C   UNK N   1      30.062  15.333   4.407  0.00  0.00     0.105 C 
BRANCH  11  12
HETATM   12  S   UNK N   1      28.446  15.226   5.168  0.00  0.00    -0.096 SA
BRANCH  12  13
HETATM   13  S   UNK N   1      27.795  16.946   4.100  0.00  0.00    -0.096 SA
BRANCH  13  14
HETATM   14  C   UNK N   1      27.162  17.634   5.641  0.00  0.00     0.105 C 
BRANCH  14  15
HETATM   15  C   UNK N   1      27.562  16.679   6.742  0.00  0.00     0.132 C 
BRANCH  15  16
HETATM   16  N   UNK N   1      27.823  17.406   7.955  0.00  0.00    -0.374 N 
HETATM   17  C   UNK N   1      29.022  17.712   8.302  0.00  0.00     0.106 C 
HETATM   18  C   UNK N   1      29.253  18.461   9.567  0.00  0.00     0.097 C 
ATOM     19  HN  UNK N   1      27.043  17.682   8.551  1.00  0.00     0.161 HD
BRANCH  17  20
HETATM   20  O   UNK N   1      30.074  17.355   7.538  0.00  0.00    -0.350 OA
HETATM   21  H   UNK N   1      30.767  16.837   7.902  0.00  0.00     0.219 HD
ENDBRANCH  17  20
ENDBRANCH  15  16
ENDBRANCH  14  15
ENDBRANCH  13  14
ENDBRANCH  12  13
ENDBRANCH  11  12
ENDBRANCH  10  11
ENDBRANCH   8  10
BRANCH   7  22
HETATM   22  O   UNK N   1      33.121  16.470   3.194  0.00  0.00    -0.349 OA
HETATM   23  H   UNK N   1      32.625  15.838   2.712  0.00  0.00     0.219 HD
ENDBRANCH   7  22
ENDBRANCH   5   7
BRANCH   6  24
HETATM   24  N   UNK N   1      34.138  14.911   9.272  0.00  0.00    -0.364 N 
HETATM   25  C   UNK N   1      33.901  14.636  10.523  0.00  0.00     0.166 C 
ATOM     26  HN  UNK N   1      34.988  14.506   8.880  1.00  0.00     0.162 HD
BRANCH  25  27
HETATM   27  C   UNK N   1      34.945  13.914  11.310  0.00  0.00     0.117 A 
HETATM   28  C   UNK N   1      36.362  14.202  11.356  0.00  0.00     0.137 A 
HETATM   29  N   UNK N   1      37.150  13.379  12.105  0.00  0.00    -0.357 N 
HETATM   30  C   UNK N   1      36.666  12.322  12.799  0.00  0.00     0.105 A 
ATOM     31  HN  UNK N   1      38.152  13.569  12.144  1.00  0.00     0.165 HD
HETATM   32  C   UNK N   1      35.313  12.045  12.752  0.00  0.00     0.105 A 
HETATM   33  N   UNK N   1      34.497  12.831  12.016  0.00  0.00    -0.359 N 
ATOM     34  HN  UNK N   1      33.502  12.607  11.984  1.00  0.00     0.165 HD
BRANCH  28  35
HETATM   35  C   UNK N   1      37.104  15.292  10.632  0.00  0.00     0.196 C 
HETATM   36  O   UNK N   1      36.628  16.417  10.631  0.00  0.00    -0.645 OA
BRANCH  35  37
HETATM   37  O   UNK N   1      38.266  15.104   9.996  0.00  0.00    -0.772 OA
HETATM   38  H   UNK N   1      38.466  14.269   9.620  0.00  0.00     0.167 HD
ENDBRANCH  35  37
ENDBRANCH  28  35
ENDBRANCH  25  27
BRANCH  25  39
HETATM   39  O   UNK N   1      32.759  15.037  11.103  0.00  0.00    -0.345 OA
HETATM   40  H   UNK N   1      32.718  15.855  11.558  0.00  0.00     0.219 HD
ENDBRANCH  25  39
ENDBRANCH   6  24
TORSDOF 15
ENDMDL
MODEL 5
REMARK VINA RESULT:      -6.6      2.714      3.609
REMARK  15 active torsions:
REMARK  status: ('A' for Active; 'I' for Inactive)
REMARK    1  A    between atoms: C_10  and  C_8 
REMARK    2  A    between atoms: N_20  and  C_8 
REMARK    3  A    between atoms: C_11  and  C_9 
REMARK    4  A    between atoms: N_26  and  C_9 
REMARK    5  A    between atoms: S_35  and  C_10 
REMARK    6  A    between atoms: S_36  and  C_11 
REMARK    7  A    between atoms: O_30  and  C_12 
REMARK    8  A    between atoms: C_13  and  C_17 
REMARK    9  A    between atoms: C_14  and  N_28 
REMARK   10  A    between atoms: C_18  and  C_15 
REMARK   11  A    between atoms: C_19  and  C_16 
REMARK   12  A    between atoms: O_31  and  C_17 
REMARK   13  A    between atoms: C_18  and  O_32 
REMARK   14  A    between atoms: O_34  and  C_19 
REMARK   15  A    between atoms: S_36  and  S_35 
ROOT
HETATM    1  C   UNK N   1      29.627  17.157   6.119  0.00  0.00     0.015 C 
HETATM    2  C   UNK N   1      29.859  17.106   8.663  0.00  0.00     0.015 C 
HETATM    3  C   UNK N   1      30.912  16.317   6.295  0.00  0.00     0.026 C 
HETATM    4  C   UNK N   1      31.124  17.866   8.315  0.00  0.00     0.026 C 
HETATM    5  C   UNK N   1      28.886  17.242   7.471  0.00  0.00     0.060 C 
HETATM    6  C   UNK N   1      31.885  17.054   7.253  0.00  0.00     0.083 C 
ENDROOT
BRANCH   5   7
HETATM    7  C   UNK N   1      28.041  18.478   7.658  0.00  0.00     0.115 C 
HETATM    8  N   UNK N   1      27.804  19.210   6.625  0.00  0.00    -0.373 N 
ATOM      9  HN  UNK N   1      27.895  18.787   5.702  1.00  0.00     0.161 HD
BRANCH   8  10
HETATM   10  C   UNK N   1      27.420  20.581   6.705  0.00  0.00     0.132 C 
BRANCH  10  11
HETATM   11  C   UNK N   1      27.002  20.850   5.271  0.00  0.00     0.105 C 
BRANCH  11  12
HETATM   12  S   UNK N   1      27.301  19.513   4.120  0.00  0.00    -0.096 SA
BRANCH  12  13
HETATM   13  S   UNK N   1      25.234  19.013   4.115  0.00  0.00    -0.096 SA
BRANCH  13  14
HETATM   14  C   UNK N   1      24.923  20.406   3.014  0.00  0.00     0.105 C 
BRANCH  14  15
HETATM   15  C   UNK N   1      23.422  20.539   2.894  0.00  0.00     0.132 C 
BRANCH  15  16
HETATM   16  N   UNK N   1      22.779  19.359   3.407  0.00  0.00    -0.374 N 
HETATM   17  C   UNK N   1      21.544  19.376   3.762  0.00  0.00     0.106 C 
HETATM   18  C   UNK N   1      20.914  18.136   4.293  0.00  0.00     0.097 C 
ATOM     19  HN  UNK N   1      23.314  18.495   3.492  1.00  0.00     0.161 HD
BRANCH  17  20
HETATM   20  O   UNK N   1      20.814  20.505   3.667  0.00  0.00    -0.350 OA
HETATM   21  H   UNK N   1      20.839  21.141   4.356  0.00  0.00     0.219 HD
ENDBRANCH  17  20
ENDBRANCH  15  16
ENDBRANCH  14  15
ENDBRANCH  13  14
ENDBRANCH  12  13
ENDBRANCH  11  12
ENDBRANCH  10  11
ENDBRANCH   8  10
BRANCH   7  22
HETATM   22  O   UNK N   1      27.725  18.906   8.899  0.00  0.00    -0.349 OA
HETATM   23  H   UNK N   1      27.545  18.297   9.588  0.00  0.00     0.219 HD
ENDBRANCH   7  22
ENDBRANCH   5   7
BRANCH   6  24
HETATM   24  N   UNK N   1      32.904  16.153   7.804  0.00  0.00    -0.364 N 
HETATM   25  C   UNK N   1      34.132  15.988   7.404  0.00  0.00     0.166 C 
ATOM     26  HN  UNK N   1      32.614  15.585   8.600  1.00  0.00     0.162 HD
BRANCH  25  27
HETATM   27  C   UNK N   1      34.946  14.894   8.014  0.00  0.00     0.117 A 
HETATM   28  C   UNK N   1      35.666  14.934   9.268  0.00  0.00     0.137 A 
HETATM   29  N   UNK N   1      36.393  13.834   9.614  0.00  0.00    -0.357 N 
HETATM   30  C   UNK N   1      36.463  12.722   8.845  0.00  0.00     0.105 A 
ATOM     31  HN  UNK N   1      36.909  13.849  10.494  1.00  0.00     0.165 HD
HETATM   32  C   UNK N   1      35.777  12.685   7.646  0.00  0.00     0.105 A 
HETATM   33  N   UNK N   1      35.050  13.757   7.262  0.00  0.00    -0.359 N 
ATOM     34  HN  UNK N   1      34.557  13.717   6.369  1.00  0.00     0.165 HD
BRANCH  28  35
HETATM   35  C   UNK N   1      35.756  16.077  10.242  0.00  0.00     0.196 C 
HETATM   36  O   UNK N   1      34.793  16.819  10.357  0.00  0.00    -0.645 OA
BRANCH  35  37
HETATM   37  O   UNK N   1      36.829  16.323  11.002  0.00  0.00    -0.772 OA
HETATM   38  H   UNK N   1      36.727  16.713  11.848  0.00  0.00     0.167 HD
ENDBRANCH  35  37
ENDBRANCH  28  35
ENDBRANCH  25  27
BRANCH  25  39
HETATM   39  O   UNK N   1      34.639  16.760   6.430  0.00  0.00    -0.345 OA
HETATM   40  H   UNK N   1      34.780  16.411   5.572  0.00  0.00     0.219 HD
ENDBRANCH  25  39
ENDBRANCH   6  24
TORSDOF 15
ENDMDL
MODEL 6
REMARK VINA RESULT:      -6.6      1.907      2.358
REMARK  15 active torsions:
REMARK  status: ('A' for Active; 'I' for Inactive)
REMARK    1  A    between atoms: C_10  and  C_8 
REMARK    2  A    between atoms: N_20  and  C_8 
REMARK    3  A    between atoms: C_11  and  C_9 
REMARK    4  A    between atoms: N_26  and  C_9 
REMARK    5  A    between atoms: S_35  and  C_10 
REMARK    6  A    between atoms: S_36  and  C_11 
REMARK    7  A    between atoms: O_30  and  C_12 
REMARK    8  A    between atoms: C_13  and  C_17 
REMARK    9  A    between atoms: C_14  and  N_28 
REMARK   10  A    between atoms: C_18  and  C_15 
REMARK   11  A    between atoms: C_19  and  C_16 
REMARK   12  A    between atoms: O_31  and  C_17 
REMARK   13  A    between atoms: C_18  and  O_32 
REMARK   14  A    between atoms: O_34  and  C_19 
REMARK   15  A    between atoms: S_36  and  S_35 
ROOT
HETATM    1  C   UNK N   1      30.637  16.965   3.855  0.00  0.00     0.015 C 
HETATM    2  C   UNK N   1      31.225  14.551   4.451  0.00  0.00     0.015 C 
HETATM    3  C   UNK N   1      31.528  17.162   5.101  0.00  0.00     0.026 C 
HETATM    4  C   UNK N   1      30.441  14.928   5.692  0.00  0.00     0.026 C 
HETATM    5  C   UNK N   1      30.818  15.525   3.325  0.00  0.00     0.060 C 
HETATM    6  C   UNK N   1      31.032  16.236   6.244  0.00  0.00     0.083 C 
ENDROOT
BRANCH   5   7
HETATM    7  C   UNK N   1      29.627  14.963   2.587  0.00  0.00     0.115 C 
HETATM    8  N   UNK N   1      28.559  15.681   2.528  0.00  0.00    -0.373 N 
ATOM      9  HN  UNK N   1      28.644  16.686   2.673  1.00  0.00     0.161 HD
BRANCH   8  10
HETATM   10  C   UNK N   1      27.264  15.142   2.272  0.00  0.00     0.132 C 
BRANCH  10  11
HETATM   11  C   UNK N   1      26.388  16.106   3.051  0.00  0.00     0.105 C 
BRANCH  11  12
HETATM   12  S   UNK N   1      26.888  16.400   4.744  0.00  0.00    -0.096 SA
BRANCH  12  13
HETATM   13  S   UNK N   1      26.585  18.491   4.503  0.00  0.00    -0.096 SA
BRANCH  13  14
HETATM   14  C   UNK N   1      24.989  18.149   3.739  0.00  0.00     0.105 C 
BRANCH  14  15
HETATM   15  C   UNK N   1      23.996  19.108   4.356  0.00  0.00     0.132 C 
BRANCH  15  16
HETATM   16  N   UNK N   1      22.801  19.163   3.557  0.00  0.00    -0.374 N 
HETATM   17  C   UNK N   1      22.499  20.215   2.885  0.00  0.00     0.106 C 
HETATM   18  C   UNK N   1      21.252  20.237   2.074  0.00  0.00     0.097 C 
ATOM     19  HN  UNK N   1      22.183  18.352   3.525  1.00  0.00     0.161 HD
BRANCH  17  20
HETATM   20  O   UNK N   1      23.293  21.305   2.914  0.00  0.00    -0.350 OA
HETATM   21  H   UNK N   1      23.689  21.620   2.124  0.00  0.00     0.219 HD
ENDBRANCH  17  20
ENDBRANCH  15  16
ENDBRANCH  14  15
ENDBRANCH  13  14
ENDBRANCH  12  13
ENDBRANCH  11  12
ENDBRANCH  10  11
ENDBRANCH   8  10
BRANCH   7  22
HETATM   22  O   UNK N   1      29.620  13.674   2.188  0.00  0.00    -0.349 OA
HETATM   23  H   UNK N   1      30.308  13.331   1.653  0.00  0.00     0.219 HD
ENDBRANCH   7  22
ENDBRANCH   5   7
BRANCH   6  24
HETATM   24  N   UNK N   1      32.054  16.044   7.279  0.00  0.00    -0.364 N 
HETATM   25  C   UNK N   1      32.020  16.427   8.523  0.00  0.00     0.166 C 
ATOM     26  HN  UNK N   1      32.895  15.546   6.988  1.00  0.00     0.162 HD
BRANCH  25  27
HETATM   27  C   UNK N   1      33.247  16.264   9.359  0.00  0.00     0.117 A 
HETATM   28  C   UNK N   1      34.480  17.015   9.259  0.00  0.00     0.137 A 
HETATM   29  N   UNK N   1      35.502  16.667  10.092  0.00  0.00    -0.357 N 
HETATM   30  C   UNK N   1      35.407  15.664  10.997  0.00  0.00     0.105 A 
ATOM     31  HN  UNK N   1      36.378  17.185  10.031  1.00  0.00     0.165 HD
HETATM   32  C   UNK N   1      34.231  14.944  11.090  0.00  0.00     0.105 A 
HETATM   33  N   UNK N   1      33.196  15.253  10.278  0.00  0.00    -0.359 N 
ATOM     34  HN  UNK N   1      32.338  14.706  10.353  1.00  0.00     0.165 HD
BRANCH  28  35
HETATM   35  C   UNK N   1      34.805  18.129   8.301  0.00  0.00     0.196 C 
HETATM   36  O   UNK N   1      34.559  17.965   7.115  0.00  0.00    -0.645 OA
BRANCH  35  37
HETATM   37  O   UNK N   1      35.337  19.298   8.674  0.00  0.00    -0.772 OA
HETATM   38  H   UNK N   1      35.248  20.052   8.124  0.00  0.00     0.167 HD
ENDBRANCH  35  37
ENDBRANCH  28  35
ENDBRANCH  25  27
BRANCH  25  39
HETATM   39  O   UNK N   1      30.916  17.000   9.029  0.00  0.00    -0.345 OA
HETATM   40  H   UNK N   1      30.719  16.928   9.942  0.00  0.00     0.219 HD
ENDBRANCH  25  39
ENDBRANCH   6  24
TORSDOF 15
ENDMDL
MODEL 7
REMARK VINA RESULT:      -6.5      4.699     10.929
REMARK  15 active torsions:
REMARK  status: ('A' for Active; 'I' for Inactive)
REMARK    1  A    between atoms: C_10  and  C_8 
REMARK    2  A    between atoms: N_20  and  C_8 
REMARK    3  A    between atoms: C_11  and  C_9 
REMARK    4  A    between atoms: N_26  and  C_9 
REMARK    5  A    between atoms: S_35  and  C_10 
REMARK    6  A    between atoms: S_36  and  C_11 
REMARK    7  A    between atoms: O_30  and  C_12 
REMARK    8  A    between atoms: C_13  and  C_17 
REMARK    9  A    between atoms: C_14  and  N_28 
REMARK   10  A    between atoms: C_18  and  C_15 
REMARK   11  A    between atoms: C_19  and  C_16 
REMARK   12  A    between atoms: O_31  and  C_17 
REMARK   13  A    between atoms: C_18  and  O_32 
REMARK   14  A    between atoms: O_34  and  C_19 
REMARK   15  A    between atoms: S_36  and  S_35 
ROOT
HETATM    1  C   UNK N   1      33.853  16.460   5.317  0.00  0.00     0.015 C 
HETATM    2  C   UNK N   1      32.973  16.506   7.715  0.00  0.00     0.015 C 
HETATM    3  C   UNK N   1      32.594  17.342   5.168  0.00  0.00     0.026 C 
HETATM    4  C   UNK N   1      31.819  15.790   7.043  0.00  0.00     0.026 C 
HETATM    5  C   UNK N   1      34.216  16.343   6.814  0.00  0.00     0.060 C 
HETATM    6  C   UNK N   1      31.383  16.633   5.832  0.00  0.00     0.083 C 
ENDROOT
BRANCH   5   7
HETATM    7  C   UNK N   1      34.945  15.078   7.195  0.00  0.00     0.115 C 
HETATM    8  N   UNK N   1      35.514  15.032   8.350  0.00  0.00    -0.373 N 
ATOM      9  HN  UNK N   1      35.193  15.676   9.073  1.00  0.00     0.161 HD
BRANCH   8  10
HETATM   10  C   UNK N   1      36.571  14.131   8.671  0.00  0.00     0.132 C 
BRANCH  10  11
HETATM   11  C   UNK N   1      36.940  14.599  10.067  0.00  0.00     0.105 C 
BRANCH  11  12
HETATM   12  S   UNK N   1      35.781  15.728  10.829  0.00  0.00    -0.096 SA
BRANCH  12  13
HETATM   13  S   UNK N   1      34.961  14.149  11.994  0.00  0.00    -0.096 SA
BRANCH  13  14
HETATM   14  C   UNK N   1      36.452  14.152  13.006  0.00  0.00     0.105 C 
BRANCH  14  15
HETATM   15  C   UNK N   1      36.420  12.886  13.832  0.00  0.00     0.132 C 
BRANCH  15  16
HETATM   16  N   UNK N   1      36.256  13.208  15.224  0.00  0.00    -0.374 N 
HETATM   17  C   UNK N   1      35.137  13.015  15.825  0.00  0.00     0.106 C 
HETATM   18  C   UNK N   1      35.005  13.365  17.265  0.00  0.00     0.097 C 
ATOM     19  HN  UNK N   1      37.043  13.598  15.744  1.00  0.00     0.161 HD
BRANCH  17  20
HETATM   20  O   UNK N   1      34.077  12.508  15.163  0.00  0.00    -0.350 OA
HETATM   21  H   UNK N   1      33.968  11.579  15.091  0.00  0.00     0.219 HD
ENDBRANCH  17  20
ENDBRANCH  15  16
ENDBRANCH  14  15
ENDBRANCH  13  14
ENDBRANCH  12  13
ENDBRANCH  11  12
ENDBRANCH  10  11
ENDBRANCH   8  10
BRANCH   7  22
HETATM   22  O   UNK N   1      35.166  14.115   6.275  0.00  0.00    -0.349 OA
HETATM   23  H   UNK N   1      34.968  13.218   6.459  0.00  0.00     0.219 HD
ENDBRANCH   7  22
ENDBRANCH   5   7
BRANCH   6  24
HETATM   24  N   UNK N   1      30.286  17.566   6.113  0.00  0.00    -0.364 N 
HETATM   25  C   UNK N   1      29.148  17.679   5.491  0.00  0.00     0.166 C 
ATOM     26  HN  UNK N   1      30.432  18.204   6.895  1.00  0.00     0.162 HD
BRANCH  25  27
HETATM   27  C   UNK N   1      28.242  18.811   5.849  0.00  0.00     0.117 A 
HETATM   28  C   UNK N   1      27.854  19.235   7.177  0.00  0.00     0.137 A 
HETATM   29  N   UNK N   1      26.969  20.267   7.278  0.00  0.00    -0.357 N 
HETATM   30  C   UNK N   1      26.452  20.905   6.201  0.00  0.00     0.105 A 
ATOM     31  HN  UNK N   1      26.684  20.575   8.208  1.00  0.00     0.165 HD
HETATM   32  C   UNK N   1      26.820  20.499   4.933  0.00  0.00     0.105 A 
HETATM   33  N   UNK N   1      27.689  19.474   4.789  0.00  0.00    -0.359 N 
ATOM     34  HN  UNK N   1      27.944  19.180   3.845  1.00  0.00     0.165 HD
BRANCH  28  35
HETATM   35  C   UNK N   1      28.274  18.639   8.494  0.00  0.00     0.196 C 
HETATM   36  O   UNK N   1      29.452  18.707   8.812  0.00  0.00    -0.645 OA
BRANCH  35  37
HETATM   37  O   UNK N   1      27.429  18.048   9.346  0.00  0.00    -0.772 OA
HETATM   38  H   UNK N   1      26.942  18.565   9.958  0.00  0.00     0.167 HD
ENDBRANCH  35  37
ENDBRANCH  28  35
ENDBRANCH  25  27
BRANCH  25  39
HETATM   39  O   UNK N   1      28.818  16.819   4.514  0.00  0.00    -0.345 OA
HETATM   40  H   UNK N   1      27.979  16.402   4.511  0.00  0.00     0.219 HD
ENDBRANCH  25  39
ENDBRANCH   6  24
TORSDOF 15
ENDMDL
MODEL 8
REMARK VINA RESULT:      -6.4      2.068      2.539
REMARK  15 active torsions:
REMARK  status: ('A' for Active; 'I' for Inactive)
REMARK    1  A    between atoms: C_10  and  C_8 
REMARK    2  A    between atoms: N_20  and  C_8 
REMARK    3  A    between atoms: C_11  and  C_9 
REMARK    4  A    between atoms: N_26  and  C_9 
REMARK    5  A    between atoms: S_35  and  C_10 
REMARK    6  A    between atoms: S_36  and  C_11 
REMARK    7  A    between atoms: O_30  and  C_12 
REMARK    8  A    between atoms: C_13  and  C_17 
REMARK    9  A    between atoms: C_14  and  N_28 
REMARK   10  A    between atoms: C_18  and  C_15 
REMARK   11  A    between atoms: C_19  and  C_16 
REMARK   12  A    between atoms: O_31  and  C_17 
REMARK   13  A    between atoms: C_18  and  O_32 
REMARK   14  A    between atoms: O_34  and  C_19 
REMARK   15  A    between atoms: S_36  and  S_35 
ROOT
HETATM    1  C   UNK N   1      30.112  16.864   4.263  0.00  0.00     0.015 C 
HETATM    2  C   UNK N   1      31.418  14.673   4.400  0.00  0.00     0.015 C 
HETATM    3  C   UNK N   1      30.975  17.096   5.524  0.00  0.00     0.026 C 
HETATM    4  C   UNK N   1      30.630  14.571   5.690  0.00  0.00     0.026 C 
HETATM    5  C   UNK N   1      30.678  15.663   3.475  0.00  0.00     0.060 C 
HETATM    6  C   UNK N   1      30.840  15.877   6.475  0.00  0.00     0.083 C 
ENDROOT
BRANCH   5   7
HETATM    7  C   UNK N   1      29.666  14.910   2.647  0.00  0.00     0.115 C 
HETATM    8  N   UNK N   1      28.525  15.468   2.431  0.00  0.00    -0.373 N 
ATOM      9  HN  UNK N   1      28.458  16.481   2.524  1.00  0.00     0.161 HD
BRANCH   8  10
HETATM   10  C   UNK N   1      27.352  14.744   2.069  0.00  0.00     0.132 C 
BRANCH  10  11
HETATM   11  C   UNK N   1      26.274  15.772   2.362  0.00  0.00     0.105 C 
BRANCH  11  12
HETATM   12  S   UNK N   1      26.215  16.363   4.050  0.00  0.00    -0.096 SA
BRANCH  12  13
HETATM   13  S   UNK N   1      24.141  16.795   3.860  0.00  0.00    -0.096 SA
BRANCH  13  14
HETATM   14  C   UNK N   1      24.392  18.303   4.815  0.00  0.00     0.105 C 
BRANCH  14  15
HETATM   15  C   UNK N   1      25.490  19.079   4.124  0.00  0.00     0.132 C 
BRANCH  15  16
HETATM   16  N   UNK N   1      25.802  20.266   4.873  0.00  0.00    -0.374 N 
HETATM   17  C   UNK N   1      26.913  20.380   5.509  0.00  0.00     0.106 C 
HETATM   18  C   UNK N   1      27.198  21.622   6.276  0.00  0.00     0.097 C 
ATOM     19  HN  UNK N   1      25.128  21.032   4.901  1.00  0.00     0.161 HD
BRANCH  17  20
HETATM   20  O   UNK N   1      27.819  19.382   5.496  0.00  0.00    -0.350 OA
HETATM   21  H   UNK N   1      28.224  19.102   6.295  0.00  0.00     0.219 HD
ENDBRANCH  17  20
ENDBRANCH  15  16
ENDBRANCH  14  15
ENDBRANCH  13  14
ENDBRANCH  12  13
ENDBRANCH  11  12
ENDBRANCH  10  11
ENDBRANCH   8  10
BRANCH   7  22
HETATM   22  O   UNK N   1      29.876  13.616   2.326  0.00  0.00    -0.349 OA
HETATM   23  H   UNK N   1      30.200  13.374   1.481  0.00  0.00     0.219 HD
ENDBRANCH   7  22
ENDBRANCH   5   7
BRANCH   6  24
HETATM   24  N   UNK N   1      31.931  15.821   7.454  0.00  0.00    -0.364 N 
HETATM   25  C   UNK N   1      31.935  16.262   8.679  0.00  0.00     0.166 C 
ATOM     26  HN  UNK N   1      32.794  15.379   7.137  1.00  0.00     0.162 HD
BRANCH  25  27
HETATM   27  C   UNK N   1      33.217  16.241   9.447  0.00  0.00     0.117 A 
HETATM   28  C   UNK N   1      34.370  17.091   9.246  0.00  0.00     0.137 A 
HETATM   29  N   UNK N   1      35.464  16.868  10.030  0.00  0.00    -0.357 N 
HETATM   30  C   UNK N   1      35.509  15.900  10.975  0.00  0.00     0.105 A 
ATOM     31  HN  UNK N   1      36.285  17.458   9.898  1.00  0.00     0.165 HD
HETATM   32  C   UNK N   1      34.409  15.086  11.164  0.00  0.00     0.105 A 
HETATM   33  N   UNK N   1      33.307  15.269  10.404  0.00  0.00    -0.359 N 
ATOM     34  HN  UNK N   1      32.507  14.654  10.550  1.00  0.00     0.165 HD
BRANCH  28  35
HETATM   35  C   UNK N   1      34.541  18.188   8.230  0.00  0.00     0.196 C 
HETATM   36  O   UNK N   1      35.200  19.169   8.540  0.00  0.00    -0.645 OA
BRANCH  35  37
HETATM   37  O   UNK N   1      34.022  18.146   6.998  0.00  0.00    -0.772 OA
HETATM   38  H   UNK N   1      33.095  18.211   6.876  0.00  0.00     0.167 HD
ENDBRANCH  35  37
ENDBRANCH  28  35
ENDBRANCH  25  27
BRANCH  25  39
HETATM   39  O   UNK N   1      30.818  16.768   9.224  0.00  0.00    -0.345 OA
HETATM   40  H   UNK N   1      30.159  17.157   8.683  0.00  0.00     0.219 HD
ENDBRANCH  25  39
ENDBRANCH   6  24
TORSDOF 15
ENDMDL
MODEL 9
REMARK VINA RESULT:      -6.4      3.371      4.192
REMARK  15 active torsions:
REMARK  status: ('A' for Active; 'I' for Inactive)
REMARK    1  A    between atoms: C_10  and  C_8 
REMARK    2  A    between atoms: N_20  and  C_8 
REMARK    3  A    between atoms: C_11  and  C_9 
REMARK    4  A    between atoms: N_26  and  C_9 
REMARK    5  A    between atoms: S_35  and  C_10 
REMARK    6  A    between atoms: S_36  and  C_11 
REMARK    7  A    between atoms: O_30  and  C_12 
REMARK    8  A    between atoms: C_13  and  C_17 
REMARK    9  A    between atoms: C_14  and  N_28 
REMARK   10  A    between atoms: C_18  and  C_15 
REMARK   11  A    between atoms: C_19  and  C_16 
REMARK   12  A    between atoms: O_31  and  C_17 
REMARK   13  A    between atoms: C_18  and  O_32 
REMARK   14  A    between atoms: O_34  and  C_19 
REMARK   15  A    between atoms: S_36  and  S_35 
ROOT
HETATM    1  C   UNK N   1      28.214  18.332   4.774  0.00  0.00     0.015 C 
HETATM    2  C   UNK N   1      27.625  16.492   6.445  0.00  0.00     0.015 C 
HETATM    3  C   UNK N   1      29.611  17.931   5.297  0.00  0.00     0.026 C 
HETATM    4  C   UNK N   1      28.221  17.508   7.398  0.00  0.00     0.026 C 
HETATM    5  C   UNK N   1      27.192  17.243   5.168  0.00  0.00     0.060 C 
HETATM    6  C   UNK N   1      29.598  17.918   6.849  0.00  0.00     0.083 C 
ENDROOT
BRANCH   5   7
HETATM    7  C   UNK N   1      25.773  17.730   5.333  0.00  0.00     0.115 C 
HETATM    8  N   UNK N   1      24.842  16.848   5.459  0.00  0.00    -0.373 N 
ATOM      9  HN  UNK N   1      25.102  15.912   5.769  1.00  0.00     0.161 HD
BRANCH   8  10
HETATM   10  C   UNK N   1      23.468  17.112   5.187  0.00  0.00     0.132 C 
BRANCH  10  11
HETATM   11  C   UNK N   1      22.799  15.967   5.924  0.00  0.00     0.105 C 
BRANCH  11  12
HETATM   12  S   UNK N   1      21.508  15.121   5.020  0.00  0.00    -0.096 SA
BRANCH  12  13
HETATM   13  S   UNK N   1      20.702  14.349   6.831  0.00  0.00    -0.096 SA
BRANCH  13  14
HETATM   14  C   UNK N   1      20.065  15.990   7.219  0.00  0.00     0.105 C 
BRANCH  14  15
HETATM   15  C   UNK N   1      20.007  16.089   8.727  0.00  0.00     0.132 C 
BRANCH  15  16
HETATM   16  N   UNK N   1      18.669  16.402   9.150  0.00  0.00    -0.374 N 
HETATM   17  C   UNK N   1      18.332  17.603   9.458  0.00  0.00     0.106 C 
HETATM   18  C   UNK N   1      16.939  17.887   9.896  0.00  0.00     0.097 C 
ATOM     19  HN  UNK N   1      17.974  15.657   9.207  1.00  0.00     0.161 HD
BRANCH  17  20
HETATM   20  O   UNK N   1      19.229  18.608   9.399  0.00  0.00    -0.350 OA
HETATM   21  H   UNK N   1      19.639  18.827   8.584  0.00  0.00     0.219 HD
ENDBRANCH  17  20
ENDBRANCH  15  16
ENDBRANCH  14  15
ENDBRANCH  13  14
ENDBRANCH  12  13
ENDBRANCH  11  12
ENDBRANCH  10  11
ENDBRANCH   8  10
BRANCH   7  22
HETATM   22  O   UNK N   1      25.474  19.032   5.146  0.00  0.00    -0.349 OA
HETATM   23  H   UNK N   1      24.762  19.290   4.595  0.00  0.00     0.219 HD
ENDBRANCH   7  22
ENDBRANCH   5   7
BRANCH   6  24
HETATM   24  N   UNK N   1      30.718  17.147   7.402  0.00  0.00    -0.364 N 
HETATM   25  C   UNK N   1      31.333  17.322   8.536  0.00  0.00     0.166 C 
ATOM     26  HN  UNK N   1      31.057  16.376   6.825  1.00  0.00     0.162 HD
BRANCH  25  27
HETATM   27  C   UNK N   1      32.557  16.516   8.823  0.00  0.00     0.117 A 
HETATM   28  C   UNK N   1      33.922  16.845   8.476  0.00  0.00     0.137 A 
HETATM   29  N   UNK N   1      34.890  15.936   8.789  0.00  0.00    -0.357 N 
HETATM   30  C   UNK N   1      34.627  14.760   9.405  0.00  0.00     0.105 A 
ATOM     31  HN  UNK N   1      35.857  16.153   8.547  1.00  0.00     0.165 HD
HETATM   32  C   UNK N   1      33.323  14.444   9.733  0.00  0.00     0.105 A 
HETATM   33  N   UNK N   1      32.333  15.313   9.435  0.00  0.00    -0.359 N 
ATOM     34  HN  UNK N   1      31.374  15.061   9.676  1.00  0.00     0.165 HD
BRANCH  28  35
HETATM   35  C   UNK N   1      34.421  18.069   7.757  0.00  0.00     0.196 C 
HETATM   36  O   UNK N   1      34.320  18.108   6.540  0.00  0.00    -0.645 OA
BRANCH  35  37
HETATM   37  O   UNK N   1      34.959  19.126   8.375  0.00  0.00    -0.772 OA
HETATM   38  H   UNK N   1      35.503  19.722   7.898  0.00  0.00     0.167 HD
ENDBRANCH  35  37
ENDBRANCH  28  35
ENDBRANCH  25  27
BRANCH  25  39
HETATM   39  O   UNK N   1      30.898  18.244   9.410  0.00  0.00    -0.345 OA
HETATM   40  H   UNK N   1      30.327  18.002  10.112  0.00  0.00     0.219 HD
ENDBRANCH  25  39
ENDBRANCH   6  24
TORSDOF 15
ENDMDL
