MODEL 1
REMARK VINA RESULT:      -6.5      0.000      0.000
REMARK  4 active torsions:
REMARK  status: ('A' for Active; 'I' for Inactive)
REMARK    1  A    between atoms: C_9  and  C_4 
REMARK    2  A    between atoms: O_16  and  C_4 
REMARK    3  A    between atoms: S_21  and  N_10 
REMARK    4  A    between atoms: S_21  and  O_16 
ROOT
HETATM    1  C   UNK N   1      28.103  29.090  -6.260  0.00  0.00     0.078 C 
HETATM    2  C   UNK N   1      28.009  27.670  -8.279  0.00  0.00     0.078 C 
HETATM    3  C   UNK N   1      26.270  24.937  -3.781  0.00  0.00     0.207 C 
HETATM    4  C   UNK N   1      27.509  24.034  -4.060  0.00  0.00     0.201 C 
HETATM    5  C   UNK N   1      28.592  24.749  -4.821  0.00  0.00     0.211 C 
HETATM    6  C   UNK N   1      28.090  26.123  -5.253  0.00  0.00     0.223 C 
HETATM    7  C   UNK N   1      27.871  27.677  -6.766  0.00  0.00     0.161 C 
HETATM    8  C   UNK N   1      26.737  25.979  -5.889  0.00  0.00     0.219 C 
HETATM    9  O   UNK N   1      29.549  23.181  -1.709  0.00  0.00    -0.169 OA
HETATM   10  O   UNK N   1      30.830  24.177  -2.605  0.00  0.00    -0.169 OA
HETATM   11  O   UNK N   1      25.741  25.625  -4.924  0.00  0.00    -0.348 OA
HETATM   12  O   UNK N   1      28.841  26.806  -6.201  0.00  0.00    -0.342 OA
HETATM   13  O   UNK N   1      28.129  23.721  -2.851  0.00  0.00    -0.243 OA
HETATM   14  O   UNK N   1      29.612  24.859  -3.887  0.00  0.00    -0.243 OA
HETATM   15  O   UNK N   1      26.553  27.263  -6.407  0.00  0.00    -0.315 OA
HETATM   16  S   UNK N   1      29.770  23.258  -3.228  0.00  0.00     0.403 S 
ENDROOT
BRANCH   8  17
HETATM   17  C   UNK N   1      26.688  24.949  -7.048  0.00  0.00     0.263 C 
BRANCH  17  18
HETATM   18  O   UNK N   1      25.406  24.392  -7.228  0.00  0.00    -0.254 OA
BRANCH  18  19
HETATM   19  S   UNK N   1      25.598  22.768  -7.777  0.00  0.00     0.355 S 
HETATM   20  O   UNK N   1      24.560  23.433  -8.693  0.00  0.00    -0.176 OA
HETATM   21  O   UNK N   1      24.991  22.748  -6.364  0.00  0.00    -0.176 OA
BRANCH  19  22
HETATM   22  N   UNK N   1      24.197  21.696  -7.811  0.00  0.00    -0.306 N 
HETATM   23  H   UNK N   1      23.465  21.836  -8.505  0.00  0.00     0.171 HD
HETATM   24  H   UNK N   1      24.122  20.935  -7.135  0.00  0.00     0.171 HD
ENDBRANCH  19  22
ENDBRANCH  18  19
ENDBRANCH  17  18
ENDBRANCH   8  17
TORSDOF 4
ENDMDL
MODEL 2
REMARK VINA RESULT:      -6.3     15.591     17.392
REMARK  4 active torsions:
REMARK  status: ('A' for Active; 'I' for Inactive)
REMARK    1  A    between atoms: C_9  and  C_4 
REMARK    2  A    between atoms: O_16  and  C_4 
REMARK    3  A    between atoms: S_21  and  N_10 
REMARK    4  A    between atoms: S_21  and  O_16 
ROOT
HETATM    1  C   UNK N   1      32.937  15.090   4.366  0.00  0.00     0.078 C 
HETATM    2  C   UNK N   1      30.868  14.641   5.638  0.00  0.00     0.078 C 
HETATM    3  C   UNK N   1      34.211  18.135   8.348  0.00  0.00     0.207 C 
HETATM    4  C   UNK N   1      34.271  16.989   9.402  0.00  0.00     0.201 C 
HETATM    5  C   UNK N   1      33.997  15.634   8.807  0.00  0.00     0.211 C 
HETATM    6  C   UNK N   1      33.568  15.793   7.353  0.00  0.00     0.223 C 
HETATM    7  C   UNK N   1      32.238  15.293   5.698  0.00  0.00     0.161 C 
HETATM    8  C   UNK N   1      32.502  16.849   7.263  0.00  0.00     0.219 C 
HETATM    9  O   UNK N   1      37.069  16.004  10.675  0.00  0.00    -0.169 OA
HETATM   10  O   UNK N   1      36.764  14.386   9.823  0.00  0.00    -0.169 OA
HETATM   11  O   UNK N   1      33.034  18.151   7.526  0.00  0.00    -0.348 OA
HETATM   12  O   UNK N   1      33.003  14.687   6.732  0.00  0.00    -0.342 OA
HETATM   13  O   UNK N   1      35.579  16.867   9.871  0.00  0.00    -0.243 OA
HETATM   14  O   UNK N   1      35.226  14.997   8.900  0.00  0.00    -0.243 OA
HETATM   15  O   UNK N   1      32.089  16.693   5.939  0.00  0.00    -0.315 OA
HETATM   16  S   UNK N   1      35.730  15.263  10.543  0.00  0.00     0.403 S 
ENDROOT
BRANCH   8  17
HETATM   17  C   UNK N   1      31.294  16.611   8.207  0.00  0.00     0.263 C 
BRANCH  17  18
HETATM   18  O   UNK N   1      30.760  17.810   8.721  0.00  0.00    -0.254 OA
BRANCH  18  19
HETATM   19  S   UNK N   1      29.221  17.459   9.416  0.00  0.00     0.355 S 
HETATM   20  O   UNK N   1      29.037  17.461   7.891  0.00  0.00    -0.176 OA
HETATM   21  O   UNK N   1      29.633  18.887   9.811  0.00  0.00    -0.176 OA
BRANCH  19  22
HETATM   22  N   UNK N   1      27.856  18.523   9.076  0.00  0.00    -0.306 N 
HETATM   23  H   UNK N   1      27.802  19.014   8.184  0.00  0.00     0.171 HD
HETATM   24  H   UNK N   1      27.120  18.647   9.772  0.00  0.00     0.171 HD
ENDBRANCH  19  22
ENDBRANCH  18  19
ENDBRANCH  17  18
ENDBRANCH   8  17
TORSDOF 4
ENDMDL
MODEL 3
REMARK VINA RESULT:      -6.2      3.048      5.543
REMARK  4 active torsions:
REMARK  status: ('A' for Active; 'I' for Inactive)
REMARK    1  A    between atoms: C_9  and  C_4 
REMARK    2  A    between atoms: O_16  and  C_4 
REMARK    3  A    between atoms: S_21  and  N_10 
REMARK    4  A    between atoms: S_21  and  O_16 
ROOT
HETATM    1  C   UNK N   1      30.085  22.268  -3.585  0.00  0.00     0.078 C 
HETATM    2  C   UNK N   1      30.818  24.627  -3.555  0.00  0.00     0.078 C 
HETATM    3  C   UNK N   1      25.431  24.180  -4.785  0.00  0.00     0.207 C 
HETATM    4  C   UNK N   1      25.867  24.796  -6.149  0.00  0.00     0.201 C 
HETATM    5  C   UNK N   1      27.312  24.529  -6.474  0.00  0.00     0.211 C 
HETATM    6  C   UNK N   1      27.989  23.866  -5.280  0.00  0.00     0.223 C 
HETATM    7  C   UNK N   1      29.671  23.694  -3.902  0.00  0.00     0.161 C 
HETATM    8  C   UNK N   1      27.661  24.636  -4.032  0.00  0.00     0.219 C 
HETATM    9  O   UNK N   1      24.874  23.560  -8.960  0.00  0.00    -0.169 OA
HETATM   10  O   UNK N   1      26.650  23.130  -9.276  0.00  0.00    -0.169 OA
HETATM   11  O   UNK N   1      26.285  24.486  -3.673  0.00  0.00    -0.348 OA
HETATM   12  O   UNK N   1      29.377  23.805  -5.289  0.00  0.00    -0.342 OA
HETATM   13  O   UNK N   1      25.188  24.149  -7.181  0.00  0.00    -0.243 OA
HETATM   14  O   UNK N   1      27.235  23.660  -7.553  0.00  0.00    -0.243 OA
HETATM   15  O   UNK N   1      28.527  24.033  -3.117  0.00  0.00    -0.315 OA
HETATM   16  S   UNK N   1      26.108  24.418  -8.640  0.00  0.00     0.403 S 
ENDROOT
BRANCH   8  17
HETATM   17  C   UNK N   1      27.985  26.151  -4.120  0.00  0.00     0.263 C 
BRANCH  17  18
HETATM   18  O   UNK N   1      27.156  26.934  -3.292  0.00  0.00    -0.254 OA
BRANCH  18  19
HETATM   19  S   UNK N   1      26.275  28.027  -4.293  0.00  0.00     0.355 S 
HETATM   20  O   UNK N   1      27.638  28.675  -4.011  0.00  0.00    -0.176 OA
HETATM   21  O   UNK N   1      25.558  27.902  -2.938  0.00  0.00    -0.176 OA
BRANCH  19  22
HETATM   22  N   UNK N   1      25.945  29.659  -3.709  0.00  0.00    -0.306 N 
HETATM   23  H   UNK N   1      25.222  30.223  -4.153  0.00  0.00     0.171 HD
HETATM   24  H   UNK N   1      26.478  30.037  -2.925  0.00  0.00     0.171 HD
ENDBRANCH  19  22
ENDBRANCH  18  19
ENDBRANCH  17  18
ENDBRANCH   8  17
TORSDOF 4
ENDMDL
MODEL 4
REMARK VINA RESULT:      -6.1     15.742     18.175
REMARK  4 active torsions:
REMARK  status: ('A' for Active; 'I' for Inactive)
REMARK    1  A    between atoms: C_9  and  C_4 
REMARK    2  A    between atoms: O_16  and  C_4 
REMARK    3  A    between atoms: S_21  and  N_10 
REMARK    4  A    between atoms: S_21  and  O_16 
ROOT
HETATM    1  C   UNK N   1      23.063  11.177   8.925  0.00  0.00     0.078 C 
HETATM    2  C   UNK N   1      22.490  12.824  10.674  0.00  0.00     0.078 C 
HETATM    3  C   UNK N   1      20.602  14.387   5.701  0.00  0.00     0.207 C 
HETATM    4  C   UNK N   1      21.588  15.578   5.891  0.00  0.00     0.201 C 
HETATM    5  C   UNK N   1      22.730  15.249   6.815  0.00  0.00     0.211 C 
HETATM    6  C   UNK N   1      22.499  13.878   7.441  0.00  0.00     0.223 C 
HETATM    7  C   UNK N   1      22.489  12.559   9.178  0.00  0.00     0.161 C 
HETATM    8  C   UNK N   1      21.096  13.806   7.974  0.00  0.00     0.219 C 
HETATM    9  O   UNK N   1      23.593  16.509   3.540  0.00  0.00    -0.169 OA
HETATM   10  O   UNK N   1      24.976  15.974   4.653  0.00  0.00    -0.169 OA
HETATM   11  O   UNK N   1      20.136  13.777   6.914  0.00  0.00    -0.348 OA
HETATM   12  O   UNK N   1      23.294  13.533   8.527  0.00  0.00    -0.342 OA
HETATM   13  O   UNK N   1      22.229  15.839   4.681  0.00  0.00    -0.243 OA
HETATM   14  O   UNK N   1      23.826  15.234   5.965  0.00  0.00    -0.243 OA
HETATM   15  O   UNK N   1      21.148  12.606   8.687  0.00  0.00    -0.315 OA
HETATM   16  S   UNK N   1      23.692  16.713   5.059  0.00  0.00     0.403 S 
ENDROOT
BRANCH   8  17
HETATM   17  C   UNK N   1      20.726  14.960   8.942  0.00  0.00     0.263 C 
BRANCH  17  18
HETATM   18  O   UNK N   1      19.338  15.193   9.007  0.00  0.00    -0.254 OA
BRANCH  18  19
HETATM   19  S   UNK N   1      19.017  16.728   8.289  0.00  0.00     0.355 S 
HETATM   20  O   UNK N   1      20.348  16.854   9.044  0.00  0.00    -0.176 OA
HETATM   21  O   UNK N   1      17.937  16.435   9.344  0.00  0.00    -0.176 OA
BRANCH  19  22
HETATM   22  N   UNK N   1      18.876  18.152   9.320  0.00  0.00    -0.306 N 
HETATM   23  H   UNK N   1      18.026  18.715   9.300  0.00  0.00     0.171 HD
HETATM   24  H   UNK N   1      19.646  18.412   9.938  0.00  0.00     0.171 HD
ENDBRANCH  19  22
ENDBRANCH  18  19
ENDBRANCH  17  18
ENDBRANCH   8  17
TORSDOF 4
ENDMDL
MODEL 5
REMARK VINA RESULT:      -5.8     12.757     15.068
REMARK  4 active torsions:
REMARK  status: ('A' for Active; 'I' for Inactive)
REMARK    1  A    between atoms: C_9  and  C_4 
REMARK    2  A    between atoms: O_16  and  C_4 
REMARK    3  A    between atoms: S_21  and  N_10 
REMARK    4  A    between atoms: S_21  and  O_16 
ROOT
HETATM    1  C   UNK N   1      24.868  14.995   3.990  0.00  0.00     0.078 C 
HETATM    2  C   UNK N   1      24.590  15.631   6.360  0.00  0.00     0.078 C 
HETATM    3  C   UNK N   1      20.080  16.851   3.378  0.00  0.00     0.207 C 
HETATM    4  C   UNK N   1      20.437  18.320   3.755  0.00  0.00     0.201 C 
HETATM    5  C   UNK N   1      21.900  18.507   4.053  0.00  0.00     0.211 C 
HETATM    6  C   UNK N   1      22.595  17.150   4.064  0.00  0.00     0.223 C 
HETATM    7  C   UNK N   1      23.975  15.728   4.975  0.00  0.00     0.161 C 
HETATM    8  C   UNK N   1      21.803  16.193   4.910  0.00  0.00     0.219 C 
HETATM    9  O   UNK N   1      20.457  20.678   1.551  0.00  0.00    -0.169 OA
HETATM   10  O   UNK N   1      22.283  20.796   1.850  0.00  0.00    -0.169 OA
HETATM   11  O   UNK N   1      20.562  15.850   4.287  0.00  0.00    -0.348 OA
HETATM   12  O   UNK N   1      23.876  17.095   4.598  0.00  0.00    -0.342 OA
HETATM   13  O   UNK N   1      20.237  19.139   2.645  0.00  0.00    -0.243 OA
HETATM   14  O   UNK N   1      22.340  19.286   2.993  0.00  0.00    -0.243 OA
HETATM   15  O   UNK N   1      22.686  15.114   4.983  0.00  0.00    -0.315 OA
HETATM   16  S   UNK N   1      21.185  20.583   2.901  0.00  0.00     0.403 S 
ENDROOT
BRANCH   8  17
HETATM   17  C   UNK N   1      21.507  16.710   6.343  0.00  0.00     0.263 C 
BRANCH  17  18
HETATM   18  O   UNK N   1      20.183  16.454   6.752  0.00  0.00    -0.254 OA
BRANCH  18  19
HETATM   19  S   UNK N   1      20.083  16.733   8.451  0.00  0.00     0.355 S 
HETATM   20  O   UNK N   1      18.657  16.442   7.958  0.00  0.00    -0.176 OA
HETATM   21  O   UNK N   1      20.533  18.030   7.758  0.00  0.00    -0.176 OA
BRANCH  19  22
HETATM   22  N   UNK N   1      19.066  18.042   9.053  0.00  0.00    -0.306 N 
HETATM   23  H   UNK N   1      18.825  18.087  10.043  0.00  0.00     0.171 HD
HETATM   24  H   UNK N   1      18.719  18.755   8.411  0.00  0.00     0.171 HD
ENDBRANCH  19  22
ENDBRANCH  18  19
ENDBRANCH  17  18
ENDBRANCH   8  17
TORSDOF 4
ENDMDL
MODEL 6
REMARK VINA RESULT:      -5.7      1.884      2.310
REMARK  4 active torsions:
REMARK  status: ('A' for Active; 'I' for Inactive)
REMARK    1  A    between atoms: C_9  and  C_4 
REMARK    2  A    between atoms: O_16  and  C_4 
REMARK    3  A    between atoms: S_21  and  N_10 
REMARK    4  A    between atoms: S_21  and  O_16 
ROOT
HETATM    1  C   UNK N   1      27.142  28.718  -2.701  0.00  0.00     0.078 C 
HETATM    2  C   UNK N   1      26.028  28.481  -4.893  0.00  0.00     0.078 C 
HETATM    3  C   UNK N   1      27.910  23.613  -3.024  0.00  0.00     0.207 C 
HETATM    4  C   UNK N   1      28.824  23.676  -4.284  0.00  0.00     0.201 C 
HETATM    5  C   UNK N   1      29.073  25.085  -4.754  0.00  0.00     0.211 C 
HETATM    6  C   UNK N   1      28.210  26.050  -3.950  0.00  0.00     0.223 C 
HETATM    7  C   UNK N   1      26.863  27.762  -3.847  0.00  0.00     0.161 C 
HETATM    8  C   UNK N   1      26.797  25.541  -3.914  0.00  0.00     0.219 C 
HETATM    9  O   UNK N   1      31.983  23.038  -4.120  0.00  0.00    -0.169 OA
HETATM   10  O   UNK N   1      32.257  24.815  -4.576  0.00  0.00    -0.169 OA
HETATM   11  O   UNK N   1      26.687  24.360  -3.115  0.00  0.00    -0.348 OA
HETATM   12  O   UNK N   1      28.093  27.349  -4.429  0.00  0.00    -0.342 OA
HETATM   13  O   UNK N   1      30.100  23.228  -3.947  0.00  0.00    -0.243 OA
HETATM   14  O   UNK N   1      30.421  25.272  -4.483  0.00  0.00    -0.243 OA
HETATM   15  O   UNK N   1      26.138  26.636  -3.351  0.00  0.00    -0.315 OA
HETATM   16  S   UNK N   1      31.196  23.864  -5.148  0.00  0.00     0.403 S 
ENDROOT
BRANCH   8  17
HETATM   17  C   UNK N   1      26.195  25.247  -5.313  0.00  0.00     0.263 C 
BRANCH  17  18
HETATM   18  O   UNK N   1      25.557  23.991  -5.378  0.00  0.00    -0.254 OA
BRANCH  18  19
HETATM   19  S   UNK N   1      26.020  23.229  -6.854  0.00  0.00     0.355 S 
HETATM   20  O   UNK N   1      25.435  24.601  -7.221  0.00  0.00    -0.176 OA
HETATM   21  O   UNK N   1      24.880  22.422  -6.212  0.00  0.00    -0.176 OA
BRANCH  19  22
HETATM   22  N   UNK N   1      24.802  22.940  -8.097  0.00  0.00    -0.306 N 
HETATM   23  H   UNK N   1      24.241  23.714  -8.451  0.00  0.00     0.171 HD
HETATM   24  H   UNK N   1      24.660  21.998  -8.462  0.00  0.00     0.171 HD
ENDBRANCH  19  22
ENDBRANCH  18  19
ENDBRANCH  17  18
ENDBRANCH   8  17
TORSDOF 4
ENDMDL
MODEL 7
REMARK VINA RESULT:      -5.7     12.642     14.959
REMARK  4 active torsions:
REMARK  status: ('A' for Active; 'I' for Inactive)
REMARK    1  A    between atoms: C_9  and  C_4 
REMARK    2  A    between atoms: O_16  and  C_4 
REMARK    3  A    between atoms: S_21  and  N_10 
REMARK    4  A    between atoms: S_21  and  O_16 
ROOT
HETATM    1  C   UNK N   1      22.658  13.654   3.787  0.00  0.00     0.078 C 
HETATM    2  C   UNK N   1      22.397  14.076   6.207  0.00  0.00     0.078 C 
HETATM    3  C   UNK N   1      20.939  18.496   3.194  0.00  0.00     0.207 C 
HETATM    4  C   UNK N   1      22.140  19.173   3.920  0.00  0.00     0.201 C 
HETATM    5  C   UNK N   1      23.178  18.184   4.379  0.00  0.00     0.211 C 
HETATM    6  C   UNK N   1      22.669  16.766   4.145  0.00  0.00     0.223 C 
HETATM    7  C   UNK N   1      22.368  14.718   4.830  0.00  0.00     0.161 C 
HETATM    8  C   UNK N   1      21.271  16.646   4.683  0.00  0.00     0.219 C 
HETATM    9  O   UNK N   1      24.328  20.916   2.312  0.00  0.00    -0.169 OA
HETATM   10  O   UNK N   1      25.559  19.613   2.786  0.00  0.00    -0.169 OA
HETATM   11  O   UNK N   1      20.341  17.394   3.893  0.00  0.00    -0.348 OA
HETATM   12  O   UNK N   1      23.361  15.732   4.762  0.00  0.00    -0.342 OA
HETATM   13  O   UNK N   1      22.840  19.962   3.009  0.00  0.00    -0.243 OA
HETATM   14  O   UNK N   1      24.263  18.468   3.562  0.00  0.00    -0.243 OA
HETATM   15  O   UNK N   1      21.072  15.267   4.588  0.00  0.00    -0.315 OA
HETATM   16  S   UNK N   1      24.441  20.195   3.664  0.00  0.00     0.403 S 
ENDROOT
BRANCH   8  17
HETATM   17  C   UNK N   1      21.123  17.083   6.164  0.00  0.00     0.263 C 
BRANCH  17  18
HETATM   18  O   UNK N   1      19.951  16.580   6.766  0.00  0.00    -0.254 OA
BRANCH  18  19
HETATM   19  S   UNK N   1      20.056  16.863   8.464  0.00  0.00     0.355 S 
HETATM   20  O   UNK N   1      18.574  16.629   8.138  0.00  0.00    -0.176 OA
HETATM   21  O   UNK N   1      20.475  18.141   7.719  0.00  0.00    -0.176 OA
BRANCH  19  22
HETATM   22  N   UNK N   1      19.167  18.211   9.173  0.00  0.00    -0.306 N 
HETATM   23  H   UNK N   1      18.866  18.988   8.585  0.00  0.00     0.171 HD
HETATM   24  H   UNK N   1      18.954  18.213  10.170  0.00  0.00     0.171 HD
ENDBRANCH  19  22
ENDBRANCH  18  19
ENDBRANCH  17  18
ENDBRANCH   8  17
TORSDOF 4
ENDMDL
MODEL 8
REMARK VINA RESULT:      -5.7     14.063     15.873
REMARK  4 active torsions:
REMARK  status: ('A' for Active; 'I' for Inactive)
REMARK    1  A    between atoms: C_9  and  C_4 
REMARK    2  A    between atoms: O_16  and  C_4 
REMARK    3  A    between atoms: S_21  and  N_10 
REMARK    4  A    between atoms: S_21  and  O_16 
ROOT
HETATM    1  C   UNK N   1      28.883  17.062   6.001  0.00  0.00     0.078 C 
HETATM    2  C   UNK N   1      30.489  16.705   7.844  0.00  0.00     0.078 C 
HETATM    3  C   UNK N   1      33.024  16.778   2.915  0.00  0.00     0.207 C 
HETATM    4  C   UNK N   1      33.373  15.300   3.264  0.00  0.00     0.201 C 
HETATM    5  C   UNK N   1      32.394  14.681   4.225  0.00  0.00     0.211 C 
HETATM    6  C   UNK N   1      31.421  15.746   4.718  0.00  0.00     0.223 C 
HETATM    7  C   UNK N   1      30.323  16.716   6.334  0.00  0.00     0.161 C 
HETATM    8  C   UNK N   1      32.193  16.959   5.157  0.00  0.00     0.219 C 
HETATM    9  O   UNK N   1      32.976  12.916   1.126  0.00  0.00    -0.169 OA
HETATM   10  O   UNK N   1      31.682  12.246   2.273  0.00  0.00    -0.169 OA
HETATM   11  O   UNK N   1      32.782  17.634   4.042  0.00  0.00    -0.348 OA
HETATM   12  O   UNK N   1      30.634  15.429   5.817  0.00  0.00    -0.342 OA
HETATM   13  O   UNK N   1      33.230  14.515   2.121  0.00  0.00    -0.243 OA
HETATM   14  O   UNK N   1      31.746  13.734   3.446  0.00  0.00    -0.243 OA
HETATM   15  O   UNK N   1      31.184  17.705   5.768  0.00  0.00    -0.315 OA
HETATM   16  S   UNK N   1      33.032  12.866   2.660  0.00  0.00     0.403 S 
ENDROOT
BRANCH   8  17
HETATM   17  C   UNK N   1      33.307  16.659   6.194  0.00  0.00     0.263 C 
BRANCH  17  18
HETATM   18  O   UNK N   1      34.048  17.805   6.545  0.00  0.00    -0.254 OA
BRANCH  18  19
HETATM   19  S   UNK N   1      33.753  18.148   8.209  0.00  0.00     0.355 S 
HETATM   20  O   UNK N   1      35.060  18.858   7.829  0.00  0.00    -0.176 OA
HETATM   21  O   UNK N   1      34.008  16.640   8.047  0.00  0.00    -0.176 OA
BRANCH  19  22
HETATM   22  N   UNK N   1      34.951  17.675   9.414  0.00  0.00    -0.306 N 
HETATM   23  H   UNK N   1      35.231  16.699   9.499  0.00  0.00     0.171 HD
HETATM   24  H   UNK N   1      35.364  18.380  10.026  0.00  0.00     0.171 HD
ENDBRANCH  19  22
ENDBRANCH  18  19
ENDBRANCH  17  18
ENDBRANCH   8  17
TORSDOF 4
ENDMDL
MODEL 9
REMARK VINA RESULT:      -5.7     13.347     15.335
REMARK  4 active torsions:
REMARK  status: ('A' for Active; 'I' for Inactive)
REMARK    1  A    between atoms: C_9  and  C_4 
REMARK    2  A    between atoms: O_16  and  C_4 
REMARK    3  A    between atoms: S_21  and  N_10 
REMARK    4  A    between atoms: S_21  and  O_16 
ROOT
HETATM    1  C   UNK N   1      25.111  13.685   6.127  0.00  0.00     0.078 C 
HETATM    2  C   UNK N   1      23.429  12.677   4.624  0.00  0.00     0.078 C 
HETATM    3  C   UNK N   1      22.700  18.149   5.123  0.00  0.00     0.207 C 
HETATM    4  C   UNK N   1      21.343  17.738   5.767  0.00  0.00     0.201 C 
HETATM    5  C   UNK N   1      21.378  16.360   6.372  0.00  0.00     0.211 C 
HETATM    6  C   UNK N   1      22.702  15.687   6.029  0.00  0.00     0.223 C 
HETATM    7  C   UNK N   1      23.832  13.948   5.353  0.00  0.00     0.161 C 
HETATM    8  C   UNK N   1      22.968  15.835   4.557  0.00  0.00     0.219 C 
HETATM    9  O   UNK N   1      20.305  19.058   8.523  0.00  0.00    -0.169 OA
HETATM   10  O   UNK N   1      20.482  17.372   9.273  0.00  0.00    -0.169 OA
HETATM   11  O   UNK N   1      23.264  17.192   4.214  0.00  0.00    -0.348 OA
HETATM   12  O   UNK N   1      22.799  14.320   6.256  0.00  0.00    -0.342 OA
HETATM   13  O   UNK N   1      21.091  18.557   6.867  0.00  0.00    -0.243 OA
HETATM   14  O   UNK N   1      21.283  16.612   7.733  0.00  0.00    -0.243 OA
HETATM   15  O   UNK N   1      24.066  14.987   4.402  0.00  0.00    -0.315 OA
HETATM   16  S   UNK N   1      19.943  17.713   7.876  0.00  0.00     0.403 S 
ENDROOT
BRANCH   8  17
HETATM   17  C   UNK N   1      21.809  15.341   3.652  0.00  0.00     0.263 C 
BRANCH  17  18
HETATM   18  O   UNK N   1      21.700  16.078   2.455  0.00  0.00    -0.254 OA
BRANCH  18  19
HETATM   19  S   UNK N   1      20.077  15.942   1.887  0.00  0.00     0.355 S 
HETATM   20  O   UNK N   1      20.993  15.863   0.656  0.00  0.00    -0.176 OA
HETATM   21  O   UNK N   1      20.278  17.340   2.495  0.00  0.00    -0.176 OA
BRANCH  19  22
HETATM   22  N   UNK N   1      19.466  17.124   0.728  0.00  0.00    -0.306 N 
HETATM   23  H   UNK N   1      19.771  18.095   0.781  0.00  0.00     0.171 HD
HETATM   24  H   UNK N   1      18.808  16.834   0.004  0.00  0.00     0.171 HD
ENDBRANCH  19  22
ENDBRANCH  18  19
ENDBRANCH  17  18
ENDBRANCH   8  17
TORSDOF 4
ENDMDL
