REMARK  4 active torsions:
REMARK  status: ('A' for Active; 'I' for Inactive)
REMARK    1  A    between atoms: C_7  and  C_5 
REMARK    2  A    between atoms: C_9  and  C_5 
REMARK    3  A    between atoms: C_11  and  C_9 
REMARK    4  A    between atoms: O_16  and  C_11 
ROOT
HETATM    1  C   UNK N   1       4.399   2.020   0.000  0.00  0.00     0.001 A 
HETATM    2  C   UNK N   1       4.278   3.424   0.000  0.00  0.00     0.002 A 
HETATM    3  C   UNK N   1       3.250   1.214   0.000  0.00  0.00     0.014 A 
HETATM    4  C   UNK N   1       3.008   4.024  -0.000  0.00  0.00     0.030 A 
HETATM    5  C   UNK N   1      -0.134   2.446  -0.000  0.00  0.00     0.096 A 
HETATM    6  C   UNK N   1       0.698   1.328   0.000  0.00  0.00    -0.025 A 
HETATM    7  C   UNK N   1       1.997   1.826   0.000  0.00  0.00    -0.002 A 
HETATM    8  C   UNK N   1       1.891   3.191  -0.000  0.00  0.00     0.042 A 
HETATM    9  N   UNK N   1       0.607   3.581  -0.000  0.00  0.00    -0.365 N 
HETATM   10  H   UNK N   1       0.271   4.506  -0.000  0.00  0.00     0.165 HD
ENDROOT
BRANCH   6  11
HETATM   11  C   UNK N   1       0.124  -0.077   0.000  0.00  0.00     0.104 C 
BRANCH  11  12
HETATM   12  C   UNK N   1       0.984  -1.322  -0.000  0.00  0.00     0.081 C 
HETATM   13  N   UNK N   1       2.265  -1.244  -0.000  0.00  0.00    -0.397 N 
HETATM   14  H   UNK N   1       2.872  -2.074  -0.000  0.00  0.00     0.156 HD
ATOM     15  HN  UNK N   1       2.699  -0.321  -0.000  1.00  0.00     0.156 HD
BRANCH  12  16
HETATM   16  C   UNK N   1       0.324  -2.650   0.000  0.00  0.00     0.189 C 
HETATM   17  O   UNK N   1       0.990  -3.672  -0.000  0.00  0.00    -0.645 OA
BRANCH  16  18
HETATM   18  O   UNK N   1      -1.021  -2.735   0.000  0.00  0.00    -0.772 OA
HETATM   19  H   UNK N   1      -1.540  -1.955   0.000  0.00  0.00     0.167 HD
ENDBRANCH  16  18
ENDBRANCH  12  16
ENDBRANCH  11  12
ENDBRANCH   6  11
TORSDOF 4
