REMARK  8 active torsions:
REMARK  status: ('A' for Active; 'I' for Inactive)
REMARK    1  A    between atoms: O_1  and  N_2 
REMARK    2  A    between atoms: N_2  and  C_3 
REMARK    3  A    between atoms: N_2  and  C_10 
REMARK    4  A    between atoms: C_3  and  C_4 
REMARK    5  A    between atoms: C_4  and  C_5 
REMARK    6  A    between atoms: C_5  and  P_6 
REMARK    7  A    between atoms: P_6  and  O_7 
REMARK    8  A    between atoms: P_6  and  O_8 
ROOT
HETATM    1  C   UNK N   1       3.299   1.830  -0.412  0.00  0.00     0.034 C 
ENDROOT
BRANCH   1   2
HETATM    2  C   UNK N   1       4.385   0.802  -0.139  0.00  0.00     0.159 C 
BRANCH   2   3
HETATM    3  N   UNK N   1       5.688   1.431  -0.062  0.00  0.00    -0.236 N 
BRANCH   3   4
HETATM    4  O   UNK N   1       5.818   2.759  -0.176  0.00  0.00    -0.285 OA
HETATM    5  H   UNK N   1       6.699   3.158  -0.258  0.00  0.00     0.245 HD
ENDBRANCH   3   4
BRANCH   3   6
HETATM    6  C   UNK N   1       6.781   0.653   0.109  0.00  0.00     0.376 C 
HETATM    7  O   UNK N   1       7.895   1.156   0.156  0.00  0.00    -0.281 OA
ENDBRANCH   3   6
ENDBRANCH   2   3
ENDBRANCH   1   2
BRANCH   1   8
HETATM    8  C   UNK N   1       1.936   1.181  -0.476  0.00  0.00     0.127 C 
BRANCH   8   9
HETATM    9  P   UNK N   1       0.658   2.502  -0.216  0.00  0.00     0.235 P 
HETATM   10  O   UNK N   1       0.943   3.530   0.910  0.00  0.00    -0.653 OA
BRANCH   9  11
HETATM   11  O   UNK N   1      -1.013   2.599  -0.673  0.00  0.00    -0.329 OA
HETATM   12  H   UNK N   1      -1.434   3.435  -0.928  0.00  0.00     0.220 HD
ENDBRANCH   9  11
BRANCH   9  13
HETATM   13  O   UNK N   1       0.122   1.375   0.979  0.00  0.00    -0.329 OA
HETATM   14  H   UNK N   1      -0.576   1.319   1.650  0.00  0.00     0.220 HD
ENDBRANCH   9  13
ENDBRANCH   8   9
ENDBRANCH   1   8
TORSDOF 8
