MODEL 1
REMARK VINA RESULT:      -6.2      0.000      0.000
REMARK  6 active torsions:
REMARK  status: ('A' for Active; 'I' for Inactive)
REMARK    1  A    between atoms: C_4  and  C_1 
REMARK    2  A    between atoms: O_20  and  C_1 
REMARK    3  A    between atoms: C_6  and  O_18 
REMARK    4  A    between atoms: C_7  and  O_19 
REMARK    5  A    between atoms: S_22  and  C_9 
REMARK    6  A    between atoms: C_10  and  N_17 
ROOT
HETATM    1  C   UNK N   1      28.210  17.605   7.854  0.00  0.00     0.183 A 
HETATM    2  C   UNK N   1      31.381  17.322   4.780  0.00  0.00     0.188 A 
HETATM    3  C   UNK N   1      29.399  17.820   5.415  0.00  0.00     0.112 A 
HETATM    4  C   UNK N   1      30.087  17.368   6.484  0.00  0.00     0.141 A 
HETATM    5  C   UNK N   1      28.065  18.190   5.541  0.00  0.00     0.101 A 
HETATM    6  N   UNK N   1      29.524  17.248   7.711  0.00  0.00    -0.336 N 
ATOM      7  HN  UNK N   1      30.064  16.901   8.504  1.00  0.00     0.168 HD
HETATM    8  N   UNK N   1      27.494  18.072   6.778  0.00  0.00    -0.345 N 
ATOM      9  HN  UNK N   1      26.517  18.336   6.904  1.00  0.00     0.167 HD
HETATM   10  N   UNK N   1      30.195  17.813   4.329  0.00  0.00    -0.347 N 
ATOM     11  HN  UNK N   1      29.960  18.109   3.381  1.00  0.00     0.167 HD
HETATM   12  N   UNK N   1      31.337  17.055   6.111  0.00  0.00    -0.297 N 
ENDROOT
BRANCH  12  13
HETATM   13  C   UNK N   1      32.425  16.488   6.914  0.00  0.00     0.262 C 
HETATM   14  C   UNK N   1      33.247  17.556   7.598  0.00  0.00     0.198 C 
HETATM   15  C   UNK N   1      33.897  16.715   8.628  0.00  0.00     0.182 C 
HETATM   16  C   UNK N   1      32.696  15.924   9.076  0.00  0.00     0.179 C 
HETATM   17  O   UNK N   1      31.942  15.617   7.920  0.00  0.00    -0.353 OA
BRANCH  14  18
HETATM   18  O   UNK N   1      34.193  18.095   6.724  0.00  0.00    -0.388 OA
HETATM   19  H   UNK N   1      34.009  18.743   6.026  0.00  0.00     0.210 HD
ENDBRANCH  14  18
BRANCH  15  20
HETATM   20  O   UNK N   1      34.427  17.487   9.662  0.00  0.00    -0.390 OA
HETATM   21  H   UNK N   1      34.229  17.652  10.598  0.00  0.00     0.210 HD
ENDBRANCH  15  20
BRANCH  16  22
HETATM   22  C   UNK N   1      33.135  14.660   9.793  0.00  0.00     0.198 C 
BRANCH  22  23
HETATM   23  O   UNK N   1      33.419  14.951  11.128  0.00  0.00    -0.398 OA
HETATM   24  H   UNK N   1      33.920  14.335  11.685  0.00  0.00     0.209 HD
ENDBRANCH  22  23
ENDBRANCH  16  22
ENDBRANCH  12  13
BRANCH   5  25
HETATM   25  S   UNK N   1      27.105  18.845   4.164  0.00  0.00    -0.114 SA
HETATM   26  C   UNK N   1      26.935  20.535   4.816  0.00  0.00     0.097 C 
ENDBRANCH   5  25
TORSDOF 6
ENDMDL
MODEL 2
REMARK VINA RESULT:      -5.9      4.678      6.879
REMARK  6 active torsions:
REMARK  status: ('A' for Active; 'I' for Inactive)
REMARK    1  A    between atoms: C_4  and  C_1 
REMARK    2  A    between atoms: O_20  and  C_1 
REMARK    3  A    between atoms: C_6  and  O_18 
REMARK    4  A    between atoms: C_7  and  O_19 
REMARK    5  A    between atoms: S_22  and  C_9 
REMARK    6  A    between atoms: C_10  and  N_17 
ROOT
HETATM    1  C   UNK N   1      32.751  14.007   8.625  0.00  0.00     0.183 A 
HETATM    2  C   UNK N   1      35.470  15.964  11.517  0.00  0.00     0.188 A 
HETATM    3  C   UNK N   1      34.152  16.005   9.831  0.00  0.00     0.112 A 
HETATM    4  C   UNK N   1      34.192  14.743  10.309  0.00  0.00     0.141 A 
HETATM    5  C   UNK N   1      33.387  16.309   8.711  0.00  0.00     0.101 A 
HETATM    6  N   UNK N   1      33.508  13.727   9.731  0.00  0.00    -0.336 N 
ATOM      7  HN  UNK N   1      33.555  12.780  10.109  1.00  0.00     0.168 HD
HETATM    8  N   UNK N   1      32.694  15.286   8.125  0.00  0.00    -0.345 N 
ATOM      9  HN  UNK N   1      32.123  15.477   7.302  1.00  0.00     0.167 HD
HETATM   10  N   UNK N   1      34.939  16.798  10.581  0.00  0.00    -0.347 N 
ATOM     11  HN  UNK N   1      35.102  17.800  10.472  1.00  0.00     0.167 HD
HETATM   12  N   UNK N   1      35.008  14.695  11.372  0.00  0.00    -0.297 N 
ENDROOT
BRANCH  12  13
HETATM   13  C   UNK N   1      35.395  13.538  12.187  0.00  0.00     0.262 C 
HETATM   14  C   UNK N   1      36.800  13.663  12.727  0.00  0.00     0.198 C 
HETATM   15  C   UNK N   1      36.715  12.659  13.811  0.00  0.00     0.182 C 
HETATM   16  C   UNK N   1      35.376  13.046  14.383  0.00  0.00     0.179 C 
HETATM   17  O   UNK N   1      34.531  13.357  13.294  0.00  0.00    -0.353 OA
BRANCH  14  18
HETATM   18  O   UNK N   1      37.741  13.283  11.768  0.00  0.00    -0.388 OA
HETATM   19  H   UNK N   1      37.577  12.671  11.033  0.00  0.00     0.210 HD
ENDBRANCH  14  18
BRANCH  15  20
HETATM   20  O   UNK N   1      37.743  12.819  14.741  0.00  0.00    -0.390 OA
HETATM   21  H   UNK N   1      37.941  12.512  15.640  0.00  0.00     0.210 HD
ENDBRANCH  15  20
BRANCH  16  22
HETATM   22  C   UNK N   1      34.807  11.905  15.207  0.00  0.00     0.198 C 
BRANCH  22  23
HETATM   23  O   UNK N   1      35.491  11.812  16.418  0.00  0.00    -0.398 OA
HETATM   24  H   UNK N   1      36.135  11.105  16.585  0.00  0.00     0.209 HD
ENDBRANCH  22  23
ENDBRANCH  16  22
ENDBRANCH  12  13
BRANCH   5  25
HETATM   25  S   UNK N   1      33.255  17.982   8.051  0.00  0.00    -0.114 SA
HETATM   26  C   UNK N   1      33.488  17.533   6.304  0.00  0.00     0.097 C 
ENDBRANCH   5  25
TORSDOF 6
ENDMDL
MODEL 3
REMARK VINA RESULT:      -5.7      6.871      9.700
REMARK  6 active torsions:
REMARK  status: ('A' for Active; 'I' for Inactive)
REMARK    1  A    between atoms: C_4  and  C_1 
REMARK    2  A    between atoms: O_20  and  C_1 
REMARK    3  A    between atoms: C_6  and  O_18 
REMARK    4  A    between atoms: C_7  and  O_19 
REMARK    5  A    between atoms: S_22  and  C_9 
REMARK    6  A    between atoms: C_10  and  N_17 
ROOT
HETATM    1  C   UNK N   1      34.325  10.791  12.812  0.00  0.00     0.183 A 
HETATM    2  C   UNK N   1      36.468  14.522  13.849  0.00  0.00     0.188 A 
HETATM    3  C   UNK N   1      35.968  12.469  14.189  0.00  0.00     0.112 A 
HETATM    4  C   UNK N   1      35.335  12.881  13.071  0.00  0.00     0.141 A 
HETATM    5  C   UNK N   1      35.795  11.172  14.658  0.00  0.00     0.101 A 
HETATM    6  N   UNK N   1      34.510  12.071  12.364  0.00  0.00    -0.336 N 
ATOM      7  HN  UNK N   1      34.041  12.406  11.522  1.00  0.00     0.168 HD
HETATM    8  N   UNK N   1      34.964  10.351  13.947  0.00  0.00    -0.345 N 
ATOM      9  HN  UNK N   1      34.816   9.393  14.264  1.00  0.00     0.167 HD
HETATM   10  N   UNK N   1      36.699  13.480  14.694  0.00  0.00    -0.347 N 
ATOM     11  HN  UNK N   1      37.292  13.468  15.525  1.00  0.00     0.167 HD
HETATM   12  N   UNK N   1      35.640  14.166  12.834  0.00  0.00    -0.297 N 
ENDROOT
BRANCH  12  13
HETATM   13  C   UNK N   1      35.157  15.047  11.765  0.00  0.00     0.262 C 
HETATM   14  C   UNK N   1      36.058  15.019  10.552  0.00  0.00     0.198 C 
HETATM   15  C   UNK N   1      35.115  15.581   9.558  0.00  0.00     0.182 C 
HETATM   16  C   UNK N   1      33.889  14.786   9.924  0.00  0.00     0.179 C 
HETATM   17  O   UNK N   1      33.856  14.693  11.334  0.00  0.00    -0.353 OA
BRANCH  14  18
HETATM   18  O   UNK N   1      37.158  15.859  10.726  0.00  0.00    -0.388 OA
HETATM   19  H   UNK N   1      37.553  16.418  10.038  0.00  0.00     0.210 HD
ENDBRANCH  14  18
BRANCH  15  20
HETATM   20  O   UNK N   1      35.531  15.324   8.252  0.00  0.00    -0.390 OA
HETATM   21  H   UNK N   1      35.434  14.608   7.604  0.00  0.00     0.210 HD
ENDBRANCH  15  20
BRANCH  16  22
HETATM   22  C   UNK N   1      32.641  15.470   9.393  0.00  0.00     0.198 C 
BRANCH  22  23
HETATM   23  O   UNK N   1      32.899  16.825   9.188  0.00  0.00    -0.398 OA
HETATM   24  H   UNK N   1      33.615  17.282   9.658  0.00  0.00     0.209 HD
ENDBRANCH  22  23
ENDBRANCH  16  22
ENDBRANCH  12  13
BRANCH   5  25
HETATM   25  S   UNK N   1      36.647  10.546  16.118  0.00  0.00    -0.114 SA
HETATM   26  C   UNK N   1      35.505  11.255  17.343  0.00  0.00     0.097 C 
ENDBRANCH   5  25
TORSDOF 6
ENDMDL
MODEL 4
REMARK VINA RESULT:      -5.7      4.217      7.027
REMARK  6 active torsions:
REMARK  status: ('A' for Active; 'I' for Inactive)
REMARK    1  A    between atoms: C_4  and  C_1 
REMARK    2  A    between atoms: O_20  and  C_1 
REMARK    3  A    between atoms: C_6  and  O_18 
REMARK    4  A    between atoms: C_7  and  O_19 
REMARK    5  A    between atoms: S_22  and  C_9 
REMARK    6  A    between atoms: C_10  and  N_17 
ROOT
HETATM    1  C   UNK N   1      35.487  16.798  10.915  0.00  0.00     0.183 A 
HETATM    2  C   UNK N   1      32.552  14.387   8.644  0.00  0.00     0.188 A 
HETATM    3  C   UNK N   1      34.010  14.629  10.191  0.00  0.00     0.112 A 
HETATM    4  C   UNK N   1      33.859  15.813   9.562  0.00  0.00     0.141 A 
HETATM    5  C   UNK N   1      34.926  14.495  11.229  0.00  0.00     0.101 A 
HETATM    6  N   UNK N   1      34.579  16.910   9.897  0.00  0.00    -0.336 N 
ATOM      7  HN  UNK N   1      34.448  17.794   9.405  1.00  0.00     0.168 HD
HETATM    8  N   UNK N   1      35.654  15.601  11.571  0.00  0.00    -0.345 N 
ATOM      9  HN  UNK N   1      36.334  15.537  12.329  1.00  0.00     0.167 HD
HETATM   10  N   UNK N   1      33.190  13.715   9.641  0.00  0.00    -0.347 N 
ATOM     11  HN  UNK N   1      33.073  12.737   9.910  1.00  0.00     0.167 HD
HETATM   12  N   UNK N   1      32.942  15.687   8.590  0.00  0.00    -0.297 N 
ENDROOT
BRANCH  12  13
HETATM   13  C   UNK N   1      32.482  16.687   7.621  0.00  0.00     0.262 C 
HETATM   14  C   UNK N   1      33.443  16.848   6.466  0.00  0.00     0.198 C 
HETATM   15  C   UNK N   1      32.531  17.509   5.505  0.00  0.00     0.182 C 
HETATM   16  C   UNK N   1      31.318  16.636   5.695  0.00  0.00     0.179 C 
HETATM   17  O   UNK N   1      31.218  16.355   7.077  0.00  0.00    -0.353 OA
BRANCH  14  18
HETATM   18  O   UNK N   1      34.501  17.691   6.810  0.00  0.00    -0.388 OA
HETATM   19  H   UNK N   1      34.872  17.793   7.701  0.00  0.00     0.210 HD
ENDBRANCH  14  18
BRANCH  15  20
HETATM   20  O   UNK N   1      33.022  17.441   4.201  0.00  0.00    -0.390 OA
HETATM   21  H   UNK N   1      32.664  17.263   3.317  0.00  0.00     0.210 HD
ENDBRANCH  15  20
BRANCH  16  22
HETATM   22  C   UNK N   1      30.075  17.346   5.191  0.00  0.00     0.198 C 
BRANCH  22  23
HETATM   23  O   UNK N   1      30.152  17.505   3.808  0.00  0.00    -0.398 OA
HETATM   24  H   UNK N   1      30.344  18.367   3.406  0.00  0.00     0.209 HD
ENDBRANCH  22  23
ENDBRANCH  16  22
ENDBRANCH  12  13
BRANCH   5  25
HETATM   25  S   UNK N   1      35.143  12.956  12.141  0.00  0.00    -0.114 SA
HETATM   26  C   UNK N   1      35.670  13.716  13.706  0.00  0.00     0.097 C 
ENDBRANCH   5  25
TORSDOF 6
ENDMDL
MODEL 5
REMARK VINA RESULT:      -5.4      4.851      7.533
REMARK  6 active torsions:
REMARK  status: ('A' for Active; 'I' for Inactive)
REMARK    1  A    between atoms: C_4  and  C_1 
REMARK    2  A    between atoms: O_20  and  C_1 
REMARK    3  A    between atoms: C_6  and  O_18 
REMARK    4  A    between atoms: C_7  and  O_19 
REMARK    5  A    between atoms: S_22  and  C_9 
REMARK    6  A    between atoms: C_10  and  N_17 
ROOT
HETATM    1  C   UNK N   1      34.239  12.651   9.622  0.00  0.00     0.183 A 
HETATM    2  C   UNK N   1      35.419  16.734  10.854  0.00  0.00     0.188 A 
HETATM    3  C   UNK N   1      35.529  14.603  11.013  0.00  0.00     0.112 A 
HETATM    4  C   UNK N   1      34.680  14.911  10.011  0.00  0.00     0.141 A 
HETATM    5  C   UNK N   1      35.764  13.275  11.353  0.00  0.00     0.101 A 
HETATM    6  N   UNK N   1      34.021  13.963   9.300  0.00  0.00    -0.336 N 
ATOM      7  HN  UNK N   1      33.382  14.221   8.548  1.00  0.00     0.168 HD
HETATM    8  N   UNK N   1      35.103  12.316  10.638  0.00  0.00    -0.345 N 
ATOM      9  HN  UNK N   1      35.254  11.332  10.861  1.00  0.00     0.167 HD
HETATM   10  N   UNK N   1      36.019  15.733  11.555  0.00  0.00    -0.347 N 
ATOM     11  HN  UNK N   1      36.689  15.820  12.320  1.00  0.00     0.167 HD
HETATM   12  N   UNK N   1      34.601  16.244   9.888  0.00  0.00    -0.297 N 
ENDROOT
BRANCH  12  13
HETATM   13  C   UNK N   1      33.777  17.039   8.970  0.00  0.00     0.262 C 
HETATM   14  C   UNK N   1      34.571  17.560   7.795  0.00  0.00     0.198 C 
HETATM   15  C   UNK N   1      33.446  17.878   6.886  0.00  0.00     0.182 C 
HETATM   16  C   UNK N   1      32.631  16.625   7.078  0.00  0.00     0.179 C 
HETATM   17  O   UNK N   1      32.693  16.292   8.450  0.00  0.00    -0.353 OA
BRANCH  14  18
HETATM   18  O   UNK N   1      35.274  18.716   8.140  0.00  0.00    -0.388 OA
HETATM   19  H   UNK N   1      34.928  19.621   8.089  0.00  0.00     0.210 HD
ENDBRANCH  14  18
BRANCH  15  20
HETATM   20  O   UNK N   1      33.876  18.021   5.567  0.00  0.00    -0.390 OA
HETATM   21  H   UNK N   1      34.233  18.731   5.010  0.00  0.00     0.210 HD
ENDBRANCH  15  20
BRANCH  16  22
HETATM   22  C   UNK N   1      31.197  16.858   6.637  0.00  0.00     0.198 C 
BRANCH  22  23
HETATM   23  O   UNK N   1      31.151  17.018   5.252  0.00  0.00    -0.398 OA
HETATM   24  H   UNK N   1      30.954  17.877   4.847  0.00  0.00     0.209 HD
ENDBRANCH  22  23
ENDBRANCH  16  22
ENDBRANCH  12  13
BRANCH   5  25
HETATM   25  S   UNK N   1      36.921  12.796  12.650  0.00  0.00    -0.114 SA
HETATM   26  C   UNK N   1      35.814  13.141  14.051  0.00  0.00     0.097 C 
ENDBRANCH   5  25
TORSDOF 6
ENDMDL
MODEL 6
REMARK VINA RESULT:      -5.4      3.434      5.246
REMARK  6 active torsions:
REMARK  status: ('A' for Active; 'I' for Inactive)
REMARK    1  A    between atoms: C_4  and  C_1 
REMARK    2  A    between atoms: O_20  and  C_1 
REMARK    3  A    between atoms: C_6  and  O_18 
REMARK    4  A    between atoms: C_7  and  O_19 
REMARK    5  A    between atoms: S_22  and  C_9 
REMARK    6  A    between atoms: C_10  and  N_17 
ROOT
HETATM    1  C   UNK N   1      34.812  14.338   5.482  0.00  0.00     0.183 A 
HETATM    2  C   UNK N   1      33.884  17.342   8.597  0.00  0.00     0.188 A 
HETATM    3  C   UNK N   1      33.833  16.629   6.579  0.00  0.00     0.112 A 
HETATM    4  C   UNK N   1      34.443  15.698   7.344  0.00  0.00     0.141 A 
HETATM    5  C   UNK N   1      33.690  16.431   5.211  0.00  0.00     0.101 A 
HETATM    6  N   UNK N   1      34.942  14.548   6.828  0.00  0.00    -0.336 N 
ATOM      7  HN  UNK N   1      35.400  13.861   7.426  1.00  0.00     0.168 HD
HETATM    8  N   UNK N   1      34.192  15.271   4.687  0.00  0.00    -0.345 N 
ATOM      9  HN  UNK N   1      34.102  15.096   3.686  1.00  0.00     0.167 HD
HETATM   10  N   UNK N   1      33.460  17.670   7.345  0.00  0.00    -0.347 N 
ATOM     11  HN  UNK N   1      32.970  18.517   7.053  1.00  0.00     0.167 HD
HETATM   12  N   UNK N   1      34.480  16.121   8.616  0.00  0.00    -0.297 N 
ENDROOT
BRANCH  12  13
HETATM   13  C   UNK N   1      35.078  15.472   9.788  0.00  0.00     0.262 C 
HETATM   14  C   UNK N   1      34.148  14.460  10.417  0.00  0.00     0.198 C 
HETATM   15  C   UNK N   1      35.144  13.698  11.204  0.00  0.00     0.182 C 
HETATM   16  C   UNK N   1      36.218  13.567  10.156  0.00  0.00     0.179 C 
HETATM   17  O   UNK N   1      36.279  14.798   9.463  0.00  0.00    -0.353 OA
BRANCH  14  18
HETATM   18  O   UNK N   1      33.222  15.085  11.255  0.00  0.00    -0.388 OA
HETATM   19  H   UNK N   1      33.433  15.757  11.922  0.00  0.00     0.210 HD
ENDBRANCH  14  18
BRANCH  15  20
HETATM   20  O   UNK N   1      34.646  12.456  11.597  0.00  0.00    -0.390 OA
HETATM   21  H   UNK N   1      35.001  11.639  11.983  0.00  0.00     0.210 HD
ENDBRANCH  15  20
BRANCH  16  22
HETATM   22  C   UNK N   1      37.550  13.241  10.807  0.00  0.00     0.198 C 
BRANCH  22  23
HETATM   23  O   UNK N   1      37.473  13.476  12.180  0.00  0.00    -0.398 OA
HETATM   24  H   UNK N   1      37.083  14.291  12.534  0.00  0.00     0.209 HD
ENDBRANCH  22  23
ENDBRANCH  16  22
ENDBRANCH  12  13
BRANCH   5  25
HETATM   25  S   UNK N   1      32.847  17.612   4.142  0.00  0.00    -0.114 SA
HETATM   26  C   UNK N   1      31.155  17.163   4.635  0.00  0.00     0.097 C 
ENDBRANCH   5  25
TORSDOF 6
ENDMDL
MODEL 7
REMARK VINA RESULT:      -5.4      2.919      4.356
REMARK  6 active torsions:
REMARK  status: ('A' for Active; 'I' for Inactive)
REMARK    1  A    between atoms: C_4  and  C_1 
REMARK    2  A    between atoms: O_20  and  C_1 
REMARK    3  A    between atoms: C_6  and  O_18 
REMARK    4  A    between atoms: C_7  and  O_19 
REMARK    5  A    between atoms: S_22  and  C_9 
REMARK    6  A    between atoms: C_10  and  N_17 
ROOT
HETATM    1  C   UNK N   1      31.060  17.363   8.472  0.00  0.00     0.183 A 
HETATM    2  C   UNK N   1      34.838  15.516   7.092  0.00  0.00     0.188 A 
HETATM    3  C   UNK N   1      32.980  16.517   6.737  0.00  0.00     0.112 A 
HETATM    4  C   UNK N   1      33.132  16.363   8.069  0.00  0.00     0.141 A 
HETATM    5  C   UNK N   1      31.836  17.117   6.225  0.00  0.00     0.101 A 
HETATM    6  N   UNK N   1      32.195  16.771   8.959  0.00  0.00    -0.336 N 
ATOM      7  HN  UNK N   1      32.331  16.642   9.962  1.00  0.00     0.168 HD
HETATM    8  N   UNK N   1      30.888  17.533   7.119  0.00  0.00    -0.345 N 
ATOM      9  HN  UNK N   1      30.037  17.978   6.775  1.00  0.00     0.167 HD
HETATM   10  N   UNK N   1      34.046  16.003   6.097  0.00  0.00    -0.347 N 
ATOM     11  HN  UNK N   1      34.221  15.982   5.092  1.00  0.00     0.167 HD
HETATM   12  N   UNK N   1      34.295  15.742   8.316  0.00  0.00    -0.297 N 
ENDROOT
BRANCH  12  13
HETATM   13  C   UNK N   1      34.863  15.325   9.603  0.00  0.00     0.262 C 
HETATM   14  C   UNK N   1      33.968  14.350  10.333  0.00  0.00     0.198 C 
HETATM   15  C   UNK N   1      34.964  13.795  11.277  0.00  0.00     0.182 C 
HETATM   16  C   UNK N   1      36.108  13.591  10.318  0.00  0.00     0.179 C 
HETATM   17  O   UNK N   1      36.126  14.705   9.447  0.00  0.00    -0.353 OA
BRANCH  14  18
HETATM   18  O   UNK N   1      32.952  15.020  11.016  0.00  0.00    -0.388 OA
HETATM   19  H   UNK N   1      32.505  15.825  10.711  0.00  0.00     0.210 HD
ENDBRANCH  14  18
BRANCH  15  20
HETATM   20  O   UNK N   1      34.530  12.590  11.831  0.00  0.00    -0.390 OA
HETATM   21  H   UNK N   1      34.876  11.928  12.451  0.00  0.00     0.210 HD
ENDBRANCH  15  20
BRANCH  16  22
HETATM   22  C   UNK N   1      37.416  13.471  11.077  0.00  0.00     0.198 C 
BRANCH  22  23
HETATM   23  O   UNK N   1      37.199  13.722  12.432  0.00  0.00    -0.398 OA
HETATM   24  H   UNK N   1      36.909  14.594  12.746  0.00  0.00     0.209 HD
ENDBRANCH  22  23
ENDBRANCH  16  22
ENDBRANCH  12  13
BRANCH   5  25
HETATM   25  S   UNK N   1      31.592  17.395   4.460  0.00  0.00    -0.114 SA
HETATM   26  C   UNK N   1      30.971  15.730   4.074  0.00  0.00     0.097 C 
ENDBRANCH   5  25
TORSDOF 6
ENDMDL
MODEL 8
REMARK VINA RESULT:      -5.3      6.045      8.494
REMARK  6 active torsions:
REMARK  status: ('A' for Active; 'I' for Inactive)
REMARK    1  A    between atoms: C_4  and  C_1 
REMARK    2  A    between atoms: O_20  and  C_1 
REMARK    3  A    between atoms: C_6  and  O_18 
REMARK    4  A    between atoms: C_7  and  O_19 
REMARK    5  A    between atoms: S_22  and  C_9 
REMARK    6  A    between atoms: C_10  and  N_17 
ROOT
HETATM    1  C   UNK N   1      34.668  11.753  12.095  0.00  0.00     0.183 A 
HETATM    2  C   UNK N   1      35.719  15.992  11.377  0.00  0.00     0.188 A 
HETATM    3  C   UNK N   1      35.758  14.205  12.554  0.00  0.00     0.112 A 
HETATM    4  C   UNK N   1      35.087  13.947  11.412  0.00  0.00     0.141 A 
HETATM    5  C   UNK N   1      35.909  13.217  13.520  0.00  0.00     0.101 A 
HETATM    6  N   UNK N   1      34.532  12.738  11.154  0.00  0.00    -0.336 N 
ATOM      7  HN  UNK N   1      34.027  12.567  10.284  1.00  0.00     0.168 HD
HETATM    8  N   UNK N   1      35.352  11.995  13.263  0.00  0.00    -0.345 N 
ATOM      9  HN  UNK N   1      35.445  11.248  13.951  1.00  0.00     0.167 HD
HETATM   10  N   UNK N   1      36.178  15.483  12.553  0.00  0.00    -0.347 N 
ATOM     11  HN  UNK N   1      36.719  15.964  13.274  1.00  0.00     0.167 HD
HETATM   12  N   UNK N   1      35.056  15.053  10.654  0.00  0.00    -0.297 N 
ENDROOT
BRANCH  12  13
HETATM   13  C   UNK N   1      34.405  15.264   9.356  0.00  0.00     0.262 C 
HETATM   14  C   UNK N   1      34.535  16.691   8.877  0.00  0.00     0.198 C 
HETATM   15  C   UNK N   1      34.230  16.477   7.444  0.00  0.00     0.182 C 
HETATM   16  C   UNK N   1      35.075  15.252   7.207  0.00  0.00     0.179 C 
HETATM   17  O   UNK N   1      34.948  14.430   8.350  0.00  0.00    -0.353 OA
BRANCH  14  18
HETATM   18  O   UNK N   1      33.574  17.509   9.474  0.00  0.00    -0.388 OA
HETATM   19  H   UNK N   1      33.744  18.378   9.871  0.00  0.00     0.210 HD
ENDBRANCH  14  18
BRANCH  15  20
HETATM   20  O   UNK N   1      34.648  17.555   6.663  0.00  0.00    -0.390 OA
HETATM   21  H   UNK N   1      34.294  18.076   5.925  0.00  0.00     0.210 HD
ENDBRANCH  15  20
BRANCH  16  22
HETATM   22  C   UNK N   1      34.609  14.526   5.958  0.00  0.00     0.198 C 
BRANCH  22  23
HETATM   23  O   UNK N   1      34.471  15.435   4.909  0.00  0.00    -0.398 OA
HETATM   24  H   UNK N   1      34.675  15.187   3.993  0.00  0.00     0.209 HD
ENDBRANCH  22  23
ENDBRANCH  16  22
ENDBRANCH  12  13
BRANCH   5  25
HETATM   25  S   UNK N   1      36.833  13.482  15.045  0.00  0.00    -0.114 SA
HETATM   26  C   UNK N   1      35.771  12.460  16.110  0.00  0.00     0.097 C 
ENDBRANCH   5  25
TORSDOF 6
ENDMDL
MODEL 9
REMARK VINA RESULT:      -5.3      1.937      2.834
REMARK  6 active torsions:
REMARK  status: ('A' for Active; 'I' for Inactive)
REMARK    1  A    between atoms: C_4  and  C_1 
REMARK    2  A    between atoms: O_20  and  C_1 
REMARK    3  A    between atoms: C_6  and  O_18 
REMARK    4  A    between atoms: C_7  and  O_19 
REMARK    5  A    between atoms: S_22  and  C_9 
REMARK    6  A    between atoms: C_10  and  N_17 
ROOT
HETATM    1  C   UNK N   1      29.580  18.680   9.337  0.00  0.00     0.183 A 
HETATM    2  C   UNK N   1      31.404  15.425   6.958  0.00  0.00     0.188 A 
HETATM    3  C   UNK N   1      30.015  17.032   7.214  0.00  0.00     0.112 A 
HETATM    4  C   UNK N   1      30.762  16.933   8.334  0.00  0.00     0.141 A 
HETATM    5  C   UNK N   1      29.007  17.985   7.123  0.00  0.00     0.101 A 
HETATM    6  N   UNK N   1      30.570  17.737   9.408  0.00  0.00    -0.336 N 
ATOM      7  HN  UNK N   1      31.146  17.642  10.244  1.00  0.00     0.168 HD
HETATM    8  N   UNK N   1      28.811  18.800   8.204  0.00  0.00    -0.345 N 
ATOM      9  HN  UNK N   1      28.080  19.510   8.169  1.00  0.00     0.167 HD
HETATM   10  N   UNK N   1      30.406  16.101   6.325  0.00  0.00    -0.347 N 
ATOM     11  HN  UNK N   1      30.037  15.938   5.388  1.00  0.00     0.167 HD
HETATM   12  N   UNK N   1      31.646  15.934   8.193  0.00  0.00    -0.297 N 
ENDROOT
BRANCH  12  13
HETATM   13  C   UNK N   1      32.630  15.430   9.157  0.00  0.00     0.262 C 
HETATM   14  C   UNK N   1      33.215  14.102   8.734  0.00  0.00     0.198 C 
HETATM   15  C   UNK N   1      34.422  14.105   9.592  0.00  0.00     0.182 C 
HETATM   16  C   UNK N   1      34.869  15.525   9.361  0.00  0.00     0.179 C 
HETATM   17  O   UNK N   1      33.708  16.330   9.334  0.00  0.00    -0.353 OA
BRANCH  14  18
HETATM   18  O   UNK N   1      32.364  13.049   9.075  0.00  0.00    -0.388 OA
HETATM   19  H   UNK N   1      32.563  12.351   9.718  0.00  0.00     0.210 HD
ENDBRANCH  14  18
BRANCH  15  20
HETATM   20  O   UNK N   1      35.369  13.182   9.148  0.00  0.00    -0.390 OA
HETATM   21  H   UNK N   1      35.369  12.275   8.802  0.00  0.00     0.210 HD
ENDBRANCH  15  20
BRANCH  16  22
HETATM   22  C   UNK N   1      35.813  15.965  10.465  0.00  0.00     0.198 C 
BRANCH  22  23
HETATM   23  O   UNK N   1      35.193  16.931  11.257  0.00  0.00    -0.398 OA
HETATM   24  H   UNK N   1      35.575  17.215  12.102  0.00  0.00     0.209 HD
ENDBRANCH  22  23
ENDBRANCH  16  22
ENDBRANCH  12  13
BRANCH   5  25
HETATM   25  S   UNK N   1      28.005  18.200   5.640  0.00  0.00    -0.114 SA
HETATM   26  C   UNK N   1      27.258  19.786   6.124  0.00  0.00     0.097 C 
ENDBRANCH   5  25
TORSDOF 6
ENDMDL
