REMARK  2 active torsions:
REMARK  status: ('A' for Active; 'I' for Inactive)
REMARK    1  A    between atoms: O_1  and  C_8 
REMARK    2  A    between atoms: C_4  and  C_8 
ROOT
HETATM    1  N   UNK N   1      32.609 -25.530   0.000  0.00  0.00    -0.361 N 
HETATM    2  C   UNK N   1      33.781 -24.873  -0.000  0.00  0.00     0.106 A 
HETATM    3  C   UNK N   1      33.582 -23.510  -0.000  0.00  0.00     0.038 A 
HETATM    4  C   UNK N   1      31.645 -24.592   0.000  0.00  0.00     0.088 A 
HETATM    5  C   UNK N   1      32.213 -23.330  -0.000  0.00  0.00     0.019 A 
HETATM    6  H   UNK N   1      32.481 -26.506   0.000  0.00  0.00     0.165 HD
ENDROOT
BRANCH   2   7
HETATM    7  C   UNK N   1      35.092 -25.538   0.000  0.00  0.00     0.193 C 
HETATM    8  O   UNK N   1      35.163 -26.756   0.000  0.00  0.00    -0.645 OA
BRANCH   7   9
HETATM    9  O   UNK N   1      36.222 -24.804   0.000  0.00  0.00    -0.772 OA
HETATM   10  H   UNK N   1      37.057 -25.229  -0.000  0.00  0.00     0.167 HD
ENDBRANCH   7   9
ENDBRANCH   2   7
TORSDOF 2
