MODEL 1
REMARK VINA RESULT:      -5.2      0.000      0.000
REMARK  12 active torsions:
REMARK  status: ('A' for Active; 'I' for Inactive)
REMARK    1  A    between atoms: C_3  and  C_2 
REMARK    2  A    between atoms: C_4  and  C_2 
REMARK    3  A    between atoms: C_5  and  C_3 
REMARK    4  A    between atoms: C_6  and  C_4 
REMARK    5  A    between atoms: C_9  and  C_5 
REMARK    6  A    between atoms: C_10  and  C_6 
REMARK    7  A    between atoms: C_9  and  C_7 
REMARK    8  A    between atoms: C_11  and  C_7 
REMARK    9  A    between atoms: C_9  and  C_8 
REMARK   10  A    between atoms: C_8  and  N_12 
REMARK   11  A    between atoms: O_14  and  C_10 
REMARK   12  A    between atoms: O_16  and  C_11 
ROOT
HETATM    1  C   UNK N   1      28.546  17.689   6.785  0.00  0.00     0.017 C 
ENDROOT
BRANCH   1   2
HETATM    2  C   UNK N   1      29.627  16.700   6.332  0.00  0.00     0.007 C 
BRANCH   2   3
HETATM    3  C   UNK N   1      30.998  17.128   6.841  0.00  0.00     0.000 C 
BRANCH   3   4
HETATM    4  C   UNK N   1      31.691  16.009   7.586  0.00  0.00     0.001 C 
BRANCH   4   5
HETATM    5  C   UNK N   1      32.632  16.617   8.605  0.00  0.00     0.010 C 
BRANCH   5   6
HETATM    6  C   UNK N   1      32.891  18.074   8.263  0.00  0.00     0.110 C 
BRANCH   6   7
HETATM    7  C   UNK N   1      34.294  18.297   7.783  0.00  0.00     0.139 C 
HETATM    8  O   UNK N   1      34.657  17.790   6.736  0.00  0.00    -0.650 OA
BRANCH   7   9
HETATM    9  O   UNK N   1      35.157  19.052   8.492  0.00  0.00    -0.776 OA
HETATM   10  H   UNK N   1      34.929  19.930   8.728  0.00  0.00     0.167 HD
ENDBRANCH   7   9
ENDBRANCH   6   7
ENDBRANCH   5   6
ENDBRANCH   4   5
ENDBRANCH   3   4
ENDBRANCH   2   3
ENDBRANCH   1   2
BRANCH   1  11
HETATM   11  C   UNK N   1      29.193  18.640   7.801  0.00  0.00     0.116 C 
BRANCH  11  12
HETATM   12  C   UNK N   1      28.722  18.439   9.212  0.00  0.00     0.139 C 
HETATM   13  O   UNK N   1      29.483  18.659  10.138  0.00  0.00    -0.650 OA
BRANCH  12  14
HETATM   14  O   UNK N   1      27.454  18.063   9.465  0.00  0.00    -0.776 OA
HETATM   15  H   UNK N   1      26.803  18.089   8.791  0.00  0.00     0.167 HD
ENDBRANCH  12  14
ENDBRANCH  11  12
ENDBRANCH   1  11
BRANCH   1  16
HETATM   16  C   UNK N   1      27.911  18.443   5.588  0.00  0.00     0.074 C 
HETATM   17  C   UNK N   1      27.361  19.801   6.000  0.00  0.00     0.032 C 
BRANCH  16  18
HETATM   18  N   UNK N   1      28.879  18.633   4.520  0.00  0.00    -0.426 N 
HETATM   19  H   UNK N   1      28.883  19.326   3.772  0.00  0.00     0.150 HD
HETATM   20  H   UNK N   1      29.665  17.981   4.519  0.00  0.00     0.150 HD
ENDBRANCH  16  18
ENDBRANCH   1  16
TORSDOF 12
ENDMDL
MODEL 2
REMARK VINA RESULT:      -5.1      8.772     10.921
REMARK  12 active torsions:
REMARK  status: ('A' for Active; 'I' for Inactive)
REMARK    1  A    between atoms: C_3  and  C_2 
REMARK    2  A    between atoms: C_4  and  C_2 
REMARK    3  A    between atoms: C_5  and  C_3 
REMARK    4  A    between atoms: C_6  and  C_4 
REMARK    5  A    between atoms: C_9  and  C_5 
REMARK    6  A    between atoms: C_10  and  C_6 
REMARK    7  A    between atoms: C_9  and  C_7 
REMARK    8  A    between atoms: C_11  and  C_7 
REMARK    9  A    between atoms: C_9  and  C_8 
REMARK   10  A    between atoms: C_8  and  N_12 
REMARK   11  A    between atoms: O_14  and  C_10 
REMARK   12  A    between atoms: O_16  and  C_11 
ROOT
HETATM    1  C   UNK N   1      22.510  13.038  10.053  0.00  0.00     0.017 C 
ENDROOT
BRANCH   1   2
HETATM    2  C   UNK N   1      21.040  13.393   9.795  0.00  0.00     0.007 C 
BRANCH   2   3
HETATM    3  C   UNK N   1      20.895  14.868   9.442  0.00  0.00     0.000 C 
BRANCH   3   4
HETATM    4  C   UNK N   1      21.002  15.098   7.952  0.00  0.00     0.001 C 
BRANCH   4   5
HETATM    5  C   UNK N   1      20.103  16.256   7.575  0.00  0.00     0.010 C 
BRANCH   5   6
HETATM    6  C   UNK N   1      19.615  16.960   8.830  0.00  0.00     0.110 C 
BRANCH   6   7
HETATM    7  C   UNK N   1      20.009  18.407   8.851  0.00  0.00     0.139 C 
HETATM    8  O   UNK N   1      20.512  18.906   7.860  0.00  0.00    -0.650 OA
BRANCH   7   9
HETATM    9  O   UNK N   1      19.813  19.162   9.951  0.00  0.00    -0.776 OA
HETATM   10  H   UNK N   1      20.499  19.718  10.268  0.00  0.00     0.167 HD
ENDBRANCH   7   9
ENDBRANCH   6   7
ENDBRANCH   5   6
ENDBRANCH   4   5
ENDBRANCH   3   4
ENDBRANCH   2   3
ENDBRANCH   1   2
BRANCH   1  11
HETATM   11  C   UNK N   1      22.535  11.973  11.158  0.00  0.00     0.116 C 
BRANCH  11  12
HETATM   12  C   UNK N   1      23.721  12.071  12.073  0.00  0.00     0.139 C 
HETATM   13  O   UNK N   1      24.842  11.900  11.626  0.00  0.00    -0.650 OA
BRANCH  12  14
HETATM   14  O   UNK N   1      23.561  12.391  13.371  0.00  0.00    -0.776 OA
HETATM   15  H   UNK N   1      22.706  12.533  13.728  0.00  0.00     0.167 HD
ENDBRANCH  12  14
ENDBRANCH  11  12
ENDBRANCH   1  11
BRANCH   1  16
HETATM   16  C   UNK N   1      23.229  12.570   8.762  0.00  0.00     0.074 C 
HETATM   17  C   UNK N   1      24.545  13.306   8.546  0.00  0.00     0.032 C 
BRANCH  16  18
HETATM   18  N   UNK N   1      23.492  11.141   8.801  0.00  0.00    -0.426 N 
HETATM   19  H   UNK N   1      24.204  10.604   8.305  0.00  0.00     0.150 HD
HETATM   20  H   UNK N   1      22.879  10.599   9.412  0.00  0.00     0.150 HD
ENDBRANCH  16  18
ENDBRANCH   1  16
TORSDOF 12
ENDMDL
MODEL 3
REMARK VINA RESULT:      -5.1      9.357     10.521
REMARK  12 active torsions:
REMARK  status: ('A' for Active; 'I' for Inactive)
REMARK    1  A    between atoms: C_3  and  C_2 
REMARK    2  A    between atoms: C_4  and  C_2 
REMARK    3  A    between atoms: C_5  and  C_3 
REMARK    4  A    between atoms: C_6  and  C_4 
REMARK    5  A    between atoms: C_9  and  C_5 
REMARK    6  A    between atoms: C_10  and  C_6 
REMARK    7  A    between atoms: C_9  and  C_7 
REMARK    8  A    between atoms: C_11  and  C_7 
REMARK    9  A    between atoms: C_9  and  C_8 
REMARK   10  A    between atoms: C_8  and  N_12 
REMARK   11  A    between atoms: O_14  and  C_10 
REMARK   12  A    between atoms: O_16  and  C_11 
ROOT
HETATM    1  C   UNK N   1      20.294  16.510   8.546  0.00  0.00     0.017 C 
ENDROOT
BRANCH   1   2
HETATM    2  C   UNK N   1      19.995  15.105   9.084  0.00  0.00     0.007 C 
BRANCH   2   3
HETATM    3  C   UNK N   1      21.276  14.413   9.532  0.00  0.00     0.000 C 
BRANCH   3   4
HETATM    4  C   UNK N   1      21.102  12.913   9.611  0.00  0.00     0.001 C 
BRANCH   4   5
HETATM    5  C   UNK N   1      21.602  12.438  10.958  0.00  0.00     0.010 C 
BRANCH   5   6
HETATM    6  C   UNK N   1      22.865  11.615  10.778  0.00  0.00     0.110 C 
BRANCH   6   7
HETATM    7  C   UNK N   1      23.932  12.001  11.758  0.00  0.00     0.139 C 
HETATM    8  O   UNK N   1      25.089  12.085  11.384  0.00  0.00    -0.650 OA
BRANCH   7   9
HETATM    9  O   UNK N   1      23.630  12.259  13.047  0.00  0.00    -0.776 OA
HETATM   10  H   UNK N   1      23.572  13.145  13.348  0.00  0.00     0.167 HD
ENDBRANCH   7   9
ENDBRANCH   6   7
ENDBRANCH   5   6
ENDBRANCH   4   5
ENDBRANCH   3   4
ENDBRANCH   2   3
ENDBRANCH   1   2
BRANCH   1  11
HETATM   11  C   UNK N   1      20.750  16.354   7.089  0.00  0.00     0.116 C 
BRANCH  11  12
HETATM   12  C   UNK N   1      21.635  17.465   6.603  0.00  0.00     0.139 C 
HETATM   13  O   UNK N   1      21.303  18.623   6.787  0.00  0.00    -0.650 OA
BRANCH  12  14
HETATM   14  O   UNK N   1      22.813  17.194   6.010  0.00  0.00    -0.776 OA
HETATM   15  H   UNK N   1      23.495  17.836   5.983  0.00  0.00     0.167 HD
ENDBRANCH  12  14
ENDBRANCH  11  12
ENDBRANCH   1  11
BRANCH   1  16
HETATM   16  C   UNK N   1      19.076  17.458   8.688  0.00  0.00     0.074 C 
HETATM   17  C   UNK N   1      17.911  16.784   9.398  0.00  0.00     0.032 C 
BRANCH  16  18
HETATM   18  N   UNK N   1      19.436  18.664   9.417  0.00  0.00    -0.426 N 
HETATM   19  H   UNK N   1      20.089  19.402   9.156  0.00  0.00     0.150 HD
HETATM   20  H   UNK N   1      18.968  18.789  10.315  0.00  0.00     0.150 HD
ENDBRANCH  16  18
ENDBRANCH   1  16
TORSDOF 12
ENDMDL
MODEL 4
REMARK VINA RESULT:      -4.9      9.116     10.768
REMARK  12 active torsions:
REMARK  status: ('A' for Active; 'I' for Inactive)
REMARK    1  A    between atoms: C_3  and  C_2 
REMARK    2  A    between atoms: C_4  and  C_2 
REMARK    3  A    between atoms: C_5  and  C_3 
REMARK    4  A    between atoms: C_6  and  C_4 
REMARK    5  A    between atoms: C_9  and  C_5 
REMARK    6  A    between atoms: C_10  and  C_6 
REMARK    7  A    between atoms: C_9  and  C_7 
REMARK    8  A    between atoms: C_11  and  C_7 
REMARK    9  A    between atoms: C_9  and  C_8 
REMARK   10  A    between atoms: C_8  and  N_12 
REMARK   11  A    between atoms: O_14  and  C_10 
REMARK   12  A    between atoms: O_16  and  C_11 
ROOT
HETATM    1  C   UNK N   1      20.080  16.203   8.081  0.00  0.00     0.017 C 
ENDROOT
BRANCH   1   2
HETATM    2  C   UNK N   1      20.996  15.435   9.043  0.00  0.00     0.007 C 
BRANCH   2   3
HETATM    3  C   UNK N   1      20.335  14.142   9.503  0.00  0.00     0.000 C 
BRANCH   3   4
HETATM    4  C   UNK N   1      21.297  12.977   9.455  0.00  0.00     0.001 C 
BRANCH   4   5
HETATM    5  C   UNK N   1      21.703  12.627  10.871  0.00  0.00     0.010 C 
BRANCH   5   6
HETATM    6  C   UNK N   1      22.886  11.674  10.848  0.00  0.00     0.110 C 
BRANCH   6   7
HETATM    7  C   UNK N   1      23.923  12.041  11.867  0.00  0.00     0.139 C 
HETATM    8  O   UNK N   1      23.633  12.023  13.050  0.00  0.00    -0.650 OA
BRANCH   7   9
HETATM    9  O   UNK N   1      25.171  12.388  11.493  0.00  0.00    -0.776 OA
HETATM   10  H   UNK N   1      25.904  12.152  12.028  0.00  0.00     0.167 HD
ENDBRANCH   7   9
ENDBRANCH   6   7
ENDBRANCH   5   6
ENDBRANCH   4   5
ENDBRANCH   3   4
ENDBRANCH   2   3
ENDBRANCH   1   2
BRANCH   1  11
HETATM   11  C   UNK N   1      19.498  17.393   8.857  0.00  0.00     0.116 C 
BRANCH  11  12
HETATM   12  C   UNK N   1      18.014  17.317   9.069  0.00  0.00     0.139 C 
HETATM   13  O   UNK N   1      17.516  17.864  10.037  0.00  0.00    -0.650 OA
BRANCH  12  14
HETATM   14  O   UNK N   1      17.225  16.690   8.176  0.00  0.00    -0.776 OA
HETATM   15  H   UNK N   1      17.534  16.504   7.311  0.00  0.00     0.167 HD
ENDBRANCH  12  14
ENDBRANCH  11  12
ENDBRANCH   1  11
BRANCH   1  16
HETATM   16  C   UNK N   1      20.826  16.641   6.795  0.00  0.00     0.074 C 
HETATM   17  C   UNK N   1      22.178  15.955   6.659  0.00  0.00     0.032 C 
BRANCH  16  18
HETATM   18  N   UNK N   1      20.033  16.354   5.610  0.00  0.00    -0.426 N 
HETATM   19  H   UNK N   1      20.032  16.826   4.706  0.00  0.00     0.150 HD
HETATM   20  H   UNK N   1      19.388  15.567   5.695  0.00  0.00     0.150 HD
ENDBRANCH  16  18
ENDBRANCH   1  16
TORSDOF 12
ENDMDL
MODEL 5
REMARK VINA RESULT:      -4.9      3.182      6.788
REMARK  12 active torsions:
REMARK  status: ('A' for Active; 'I' for Inactive)
REMARK    1  A    between atoms: C_3  and  C_2 
REMARK    2  A    between atoms: C_4  and  C_2 
REMARK    3  A    between atoms: C_5  and  C_3 
REMARK    4  A    between atoms: C_6  and  C_4 
REMARK    5  A    between atoms: C_9  and  C_5 
REMARK    6  A    between atoms: C_10  and  C_6 
REMARK    7  A    between atoms: C_9  and  C_7 
REMARK    8  A    between atoms: C_11  and  C_7 
REMARK    9  A    between atoms: C_9  and  C_8 
REMARK   10  A    between atoms: C_8  and  N_12 
REMARK   11  A    between atoms: O_14  and  C_10 
REMARK   12  A    between atoms: O_16  and  C_11 
ROOT
HETATM    1  C   UNK N   1      33.812  14.973   9.275  0.00  0.00     0.017 C 
ENDROOT
BRANCH   1   2
HETATM    2  C   UNK N   1      32.352  15.431   9.377  0.00  0.00     0.007 C 
BRANCH   2   3
HETATM    3  C   UNK N   1      31.964  16.274   8.168  0.00  0.00     0.000 C 
BRANCH   3   4
HETATM    4  C   UNK N   1      31.880  17.743   8.517  0.00  0.00     0.001 C 
BRANCH   4   5
HETATM    5  C   UNK N   1      30.457  18.211   8.295  0.00  0.00     0.010 C 
BRANCH   5   6
HETATM    6  C   UNK N   1      29.653  18.041   9.573  0.00  0.00     0.110 C 
BRANCH   6   7
HETATM    7  C   UNK N   1      28.181  17.949   9.303  0.00  0.00     0.139 C 
HETATM    8  O   UNK N   1      27.579  16.934   9.604  0.00  0.00    -0.650 OA
BRANCH   7   9
HETATM    9  O   UNK N   1      27.515  18.975   8.734  0.00  0.00    -0.776 OA
HETATM   10  H   UNK N   1      27.225  18.911   7.845  0.00  0.00     0.167 HD
ENDBRANCH   7   9
ENDBRANCH   6   7
ENDBRANCH   5   6
ENDBRANCH   4   5
ENDBRANCH   3   4
ENDBRANCH   2   3
ENDBRANCH   1   2
BRANCH   1  11
HETATM   11  C   UNK N   1      34.497  15.326  10.603  0.00  0.00     0.116 C 
BRANCH  11  12
HETATM   12  C   UNK N   1      35.579  16.359  10.476  0.00  0.00     0.139 C 
HETATM   13  O   UNK N   1      35.308  17.463  10.038  0.00  0.00    -0.650 OA
BRANCH  12  14
HETATM   14  O   UNK N   1      36.833  16.091  10.885  0.00  0.00    -0.776 OA
HETATM   15  H   UNK N   1      37.477  16.770  10.931  0.00  0.00     0.167 HD
ENDBRANCH  12  14
ENDBRANCH  11  12
ENDBRANCH   1  11
BRANCH   1  16
HETATM   16  C   UNK N   1      33.924  13.465   8.933  0.00  0.00     0.074 C 
HETATM   17  C   UNK N   1      35.015  12.778   9.743  0.00  0.00     0.032 C 
BRANCH  16  18
HETATM   18  N   UNK N   1      32.663  12.781   9.172  0.00  0.00    -0.426 N 
HETATM   19  H   UNK N   1      32.046  12.835   9.982  0.00  0.00     0.150 HD
HETATM   20  H   UNK N   1      32.351  12.163   8.422  0.00  0.00     0.150 HD
ENDBRANCH  16  18
ENDBRANCH   1  16
TORSDOF 12
ENDMDL
MODEL 6
REMARK VINA RESULT:      -4.8      1.971      2.570
REMARK  12 active torsions:
REMARK  status: ('A' for Active; 'I' for Inactive)
REMARK    1  A    between atoms: C_3  and  C_2 
REMARK    2  A    between atoms: C_4  and  C_2 
REMARK    3  A    between atoms: C_5  and  C_3 
REMARK    4  A    between atoms: C_6  and  C_4 
REMARK    5  A    between atoms: C_9  and  C_5 
REMARK    6  A    between atoms: C_10  and  C_6 
REMARK    7  A    between atoms: C_9  and  C_7 
REMARK    8  A    between atoms: C_11  and  C_7 
REMARK    9  A    between atoms: C_9  and  C_8 
REMARK   10  A    between atoms: C_8  and  N_12 
REMARK   11  A    between atoms: O_14  and  C_10 
REMARK   12  A    between atoms: O_16  and  C_11 
ROOT
HETATM    1  C   UNK N   1      27.990  17.919   6.655  0.00  0.00     0.017 C 
ENDROOT
BRANCH   1   2
HETATM    2  C   UNK N   1      29.479  17.666   6.924  0.00  0.00     0.007 C 
BRANCH   2   3
HETATM    3  C   UNK N   1      29.801  17.857   8.400  0.00  0.00     0.000 C 
BRANCH   3   4
HETATM    4  C   UNK N   1      31.231  18.306   8.605  0.00  0.00     0.001 C 
BRANCH   4   5
HETATM    5  C   UNK N   1      32.156  17.204   8.132  0.00  0.00     0.010 C 
BRANCH   5   6
HETATM    6  C   UNK N   1      33.522  17.367   8.775  0.00  0.00     0.110 C 
BRANCH   6   7
HETATM    7  C   UNK N   1      34.440  18.206   7.938  0.00  0.00     0.139 C 
HETATM    8  O   UNK N   1      34.488  18.024   6.734  0.00  0.00    -0.650 OA
BRANCH   7   9
HETATM    9  O   UNK N   1      35.213  19.159   8.498  0.00  0.00    -0.776 OA
HETATM   10  H   UNK N   1      35.672  19.771   7.956  0.00  0.00     0.167 HD
ENDBRANCH   7   9
ENDBRANCH   6   7
ENDBRANCH   5   6
ENDBRANCH   4   5
ENDBRANCH   3   4
ENDBRANCH   2   3
ENDBRANCH   1   2
BRANCH   1  11
HETATM   11  C   UNK N   1      27.882  19.251   5.899  0.00  0.00     0.116 C 
BRANCH  11  12
HETATM   12  C   UNK N   1      27.371  20.388   6.735  0.00  0.00     0.139 C 
HETATM   13  O   UNK N   1      27.474  21.531   6.324  0.00  0.00    -0.650 OA
BRANCH  12  14
HETATM   14  O   UNK N   1      26.759  20.154   7.911  0.00  0.00    -0.776 OA
HETATM   15  H   UNK N   1      25.954  20.582   8.126  0.00  0.00     0.167 HD
ENDBRANCH  12  14
ENDBRANCH  11  12
ENDBRANCH   1  11
BRANCH   1  16
HETATM   16  C   UNK N   1      27.331  16.746   5.885  0.00  0.00     0.074 C 
HETATM   17  C   UNK N   1      28.285  15.573   5.711  0.00  0.00     0.032 C 
BRANCH  16  18
HETATM   18  N   UNK N   1      26.135  16.280   6.570  0.00  0.00    -0.426 N 
HETATM   19  H   UNK N   1      26.028  15.965   7.534  0.00  0.00     0.150 HD
HETATM   20  H   UNK N   1      25.284  16.269   6.008  0.00  0.00     0.150 HD
ENDBRANCH  16  18
ENDBRANCH   1  16
TORSDOF 12
ENDMDL
MODEL 7
REMARK VINA RESULT:      -4.8      2.398      6.007
REMARK  12 active torsions:
REMARK  status: ('A' for Active; 'I' for Inactive)
REMARK    1  A    between atoms: C_3  and  C_2 
REMARK    2  A    between atoms: C_4  and  C_2 
REMARK    3  A    between atoms: C_5  and  C_3 
REMARK    4  A    between atoms: C_6  and  C_4 
REMARK    5  A    between atoms: C_9  and  C_5 
REMARK    6  A    between atoms: C_10  and  C_6 
REMARK    7  A    between atoms: C_9  and  C_7 
REMARK    8  A    between atoms: C_11  and  C_7 
REMARK    9  A    between atoms: C_9  and  C_8 
REMARK   10  A    between atoms: C_8  and  N_12 
REMARK   11  A    between atoms: O_14  and  C_10 
REMARK   12  A    between atoms: O_16  and  C_11 
ROOT
HETATM    1  C   UNK N   1      33.256  16.072   8.306  0.00  0.00     0.017 C 
ENDROOT
BRANCH   1   2
HETATM    2  C   UNK N   1      31.831  16.411   7.853  0.00  0.00     0.007 C 
BRANCH   2   3
HETATM    3  C   UNK N   1      31.422  15.550   6.664  0.00  0.00     0.000 C 
BRANCH   3   4
HETATM    4  C   UNK N   1      30.076  15.963   6.114  0.00  0.00     0.001 C 
BRANCH   4   5
HETATM    5  C   UNK N   1      29.745  17.347   6.632  0.00  0.00     0.010 C 
BRANCH   5   6
HETATM    6  C   UNK N   1      28.419  17.317   7.373  0.00  0.00     0.110 C 
BRANCH   6   7
HETATM    7  C   UNK N   1      28.454  18.149   8.620  0.00  0.00     0.139 C 
HETATM    8  O   UNK N   1      29.483  18.724   8.929  0.00  0.00    -0.650 OA
BRANCH   7   9
HETATM    9  O   UNK N   1      27.363  18.270   9.403  0.00  0.00    -0.776 OA
HETATM   10  H   UNK N   1      26.947  19.104   9.503  0.00  0.00     0.167 HD
ENDBRANCH   7   9
ENDBRANCH   6   7
ENDBRANCH   5   6
ENDBRANCH   4   5
ENDBRANCH   3   4
ENDBRANCH   2   3
ENDBRANCH   1   2
BRANCH   1  11
HETATM   11  C   UNK N   1      33.832  17.324   8.983  0.00  0.00     0.116 C 
BRANCH  11  12
HETATM   12  C   UNK N   1      34.571  18.238   8.050  0.00  0.00     0.139 C 
HETATM   13  O   UNK N   1      35.222  19.163   8.504  0.00  0.00    -0.650 OA
BRANCH  12  14
HETATM   14  O   UNK N   1      34.559  18.018   6.722  0.00  0.00    -0.776 OA
HETATM   15  H   UNK N   1      34.137  17.261   6.365  0.00  0.00     0.167 HD
ENDBRANCH  12  14
ENDBRANCH  11  12
ENDBRANCH   1  11
BRANCH   1  16
HETATM   16  C   UNK N   1      33.291  14.828   9.231  0.00  0.00     0.074 C 
HETATM   17  C   UNK N   1      34.490  13.937   8.941  0.00  0.00     0.032 C 
BRANCH  16  18
HETATM   18  N   UNK N   1      33.327  15.222  10.631  0.00  0.00    -0.426 N 
HETATM   19  H   UNK N   1      32.713  14.938  11.394  0.00  0.00     0.150 HD
HETATM   20  H   UNK N   1      34.071  15.873  10.884  0.00  0.00     0.150 HD
ENDBRANCH  16  18
ENDBRANCH   1  16
TORSDOF 12
ENDMDL
MODEL 8
REMARK VINA RESULT:      -4.8      2.358      3.150
REMARK  12 active torsions:
REMARK  status: ('A' for Active; 'I' for Inactive)
REMARK    1  A    between atoms: C_3  and  C_2 
REMARK    2  A    between atoms: C_4  and  C_2 
REMARK    3  A    between atoms: C_5  and  C_3 
REMARK    4  A    between atoms: C_6  and  C_4 
REMARK    5  A    between atoms: C_9  and  C_5 
REMARK    6  A    between atoms: C_10  and  C_6 
REMARK    7  A    between atoms: C_9  and  C_7 
REMARK    8  A    between atoms: C_11  and  C_7 
REMARK    9  A    between atoms: C_9  and  C_8 
REMARK   10  A    between atoms: C_8  and  N_12 
REMARK   11  A    between atoms: O_14  and  C_10 
REMARK   12  A    between atoms: O_16  and  C_11 
ROOT
HETATM    1  C   UNK N   1      29.406  17.912   7.423  0.00  0.00     0.017 C 
ENDROOT
BRANCH   1   2
HETATM    2  C   UNK N   1      30.757  17.205   7.591  0.00  0.00     0.007 C 
BRANCH   2   3
HETATM    3  C   UNK N   1      31.025  16.268   6.420  0.00  0.00     0.000 C 
BRANCH   3   4
HETATM    4  C   UNK N   1      32.394  16.502   5.822  0.00  0.00     0.001 C 
BRANCH   4   5
HETATM    5  C   UNK N   1      33.066  17.629   6.577  0.00  0.00     0.010 C 
BRANCH   5   6
HETATM    6  C   UNK N   1      34.281  17.099   7.319  0.00  0.00     0.110 C 
BRANCH   6   7
HETATM    7  C   UNK N   1      34.601  17.922   8.531  0.00  0.00     0.139 C 
HETATM    8  O   UNK N   1      35.029  19.054   8.392  0.00  0.00    -0.650 OA
BRANCH   7   9
HETATM    9  O   UNK N   1      34.421  17.427   9.773  0.00  0.00    -0.776 OA
HETATM   10  H   UNK N   1      35.056  16.845  10.143  0.00  0.00     0.167 HD
ENDBRANCH   7   9
ENDBRANCH   6   7
ENDBRANCH   5   6
ENDBRANCH   4   5
ENDBRANCH   3   4
ENDBRANCH   2   3
ENDBRANCH   1   2
BRANCH   1  11
HETATM   11  C   UNK N   1      28.824  17.471   6.072  0.00  0.00     0.116 C 
BRANCH  11  12
HETATM   12  C   UNK N   1      28.304  18.601   5.233  0.00  0.00     0.139 C 
HETATM   13  O   UNK N   1      27.901  19.616   5.774  0.00  0.00    -0.650 OA
BRANCH  12  14
HETATM   14  O   UNK N   1      28.322  18.523   3.889  0.00  0.00    -0.776 OA
HETATM   15  H   UNK N   1      27.620  18.111   3.424  0.00  0.00     0.167 HD
ENDBRANCH  12  14
ENDBRANCH  11  12
ENDBRANCH   1  11
BRANCH   1  16
HETATM   16  C   UNK N   1      28.447  17.620   8.605  0.00  0.00     0.074 C 
HETATM   17  C   UNK N   1      29.205  17.280   9.881  0.00  0.00     0.032 C 
BRANCH  16  18
HETATM   18  N   UNK N   1      27.579  18.758   8.864  0.00  0.00    -0.426 N 
HETATM   19  H   UNK N   1      26.598  18.888   8.616  0.00  0.00     0.150 HD
HETATM   20  H   UNK N   1      28.011  19.534   9.367  0.00  0.00     0.150 HD
ENDBRANCH  16  18
ENDBRANCH   1  16
TORSDOF 12
ENDMDL
MODEL 9
REMARK VINA RESULT:      -4.8      2.771      6.410
REMARK  12 active torsions:
REMARK  status: ('A' for Active; 'I' for Inactive)
REMARK    1  A    between atoms: C_3  and  C_2 
REMARK    2  A    between atoms: C_4  and  C_2 
REMARK    3  A    between atoms: C_5  and  C_3 
REMARK    4  A    between atoms: C_6  and  C_4 
REMARK    5  A    between atoms: C_9  and  C_5 
REMARK    6  A    between atoms: C_10  and  C_6 
REMARK    7  A    between atoms: C_9  and  C_7 
REMARK    8  A    between atoms: C_11  and  C_7 
REMARK    9  A    between atoms: C_9  and  C_8 
REMARK   10  A    between atoms: C_8  and  N_12 
REMARK   11  A    between atoms: O_14  and  C_10 
REMARK   12  A    between atoms: O_16  and  C_11 
ROOT
HETATM    1  C   UNK N   1      32.366  16.901   8.239  0.00  0.00     0.017 C 
ENDROOT
BRANCH   1   2
HETATM    2  C   UNK N   1      31.193  17.809   8.630  0.00  0.00     0.007 C 
BRANCH   2   3
HETATM    3  C   UNK N   1      29.950  17.464   7.820  0.00  0.00     0.000 C 
BRANCH   3   4
HETATM    4  C   UNK N   1      28.821  18.433   8.093  0.00  0.00     0.001 C 
BRANCH   4   5
HETATM    5  C   UNK N   1      27.937  18.504   6.866  0.00  0.00     0.010 C 
BRANCH   5   6
HETATM    6  C   UNK N   1      27.684  19.956   6.497  0.00  0.00     0.110 C 
BRANCH   6   7
HETATM    7  C   UNK N   1      26.574  20.096   5.499  0.00  0.00     0.139 C 
HETATM    8  O   UNK N   1      26.724  20.824   4.533  0.00  0.00    -0.650 OA
BRANCH   7   9
HETATM    9  O   UNK N   1      25.413  19.428   5.655  0.00  0.00    -0.776 OA
HETATM   10  H   UNK N   1      25.373  18.508   5.478  0.00  0.00     0.167 HD
ENDBRANCH   7   9
ENDBRANCH   6   7
ENDBRANCH   5   6
ENDBRANCH   4   5
ENDBRANCH   3   4
ENDBRANCH   2   3
ENDBRANCH   1   2
BRANCH   1  11
HETATM   11  C   UNK N   1      33.626  17.467   8.908  0.00  0.00     0.116 C 
BRANCH  11  12
HETATM   12  C   UNK N   1      34.481  18.297   7.995  0.00  0.00     0.139 C 
HETATM   13  O   UNK N   1      35.234  19.131   8.468  0.00  0.00    -0.650 OA
BRANCH  12  14
HETATM   14  O   UNK N   1      34.460  18.096   6.664  0.00  0.00    -0.776 OA
HETATM   15  H   UNK N   1      34.682  17.260   6.302  0.00  0.00     0.167 HD
ENDBRANCH  12  14
ENDBRANCH  11  12
ENDBRANCH   1  11
BRANCH   1  16
HETATM   16  C   UNK N   1      32.106  15.420   8.621  0.00  0.00     0.074 C 
HETATM   17  C   UNK N   1      33.097  14.479   7.951  0.00  0.00     0.032 C 
BRANCH  16  18
HETATM   18  N   UNK N   1      32.182  15.233  10.061  0.00  0.00    -0.426 N 
HETATM   19  H   UNK N   1      32.247  15.935  10.798  0.00  0.00     0.150 HD
HETATM   20  H   UNK N   1      32.165  14.264  10.378  0.00  0.00     0.150 HD
ENDBRANCH  16  18
ENDBRANCH   1  16
TORSDOF 12
ENDMDL
