MODEL 1
REMARK VINA RESULT:      -6.9      0.000      0.000
REMARK  2 active torsions:
REMARK  status: ('A' for Active; 'I' for Inactive)
REMARK       I    between atoms: N_1  and  C_2 
REMARK    1  A    between atoms: C_10  and  C_11 
REMARK    2  A    between atoms: C_11  and  C_12 
ROOT
HETATM    1  N   UNK N   1      33.770  12.709   9.764  0.00  0.00    -0.234 N 
HETATM    2  C   UNK N   1      34.565  13.367  10.722  0.00  0.00     0.679 A 
HETATM    3  N   UNK N   1      35.300  14.467  10.366  0.00  0.00    -0.154 N 
ATOM      4  HN  UNK N   1      35.268  14.807   9.405  1.00  0.00     0.187 HD
HETATM    5  C   UNK N   1      36.081  15.120  11.294  0.00  0.00     0.288 A 
HETATM    6  O   UNK N   1      36.733  16.097  10.975  0.00  0.00    -0.265 OA
HETATM    7  C   UNK N   1      36.100  14.630  12.593  0.00  0.00     0.129 A 
HETATM    8  C   UNK N   1      35.365  13.541  12.921  0.00  0.00     0.089 A 
HETATM    9  N   UNK N   1      34.599  12.904  12.006  0.00  0.00    -0.189 N 
HETATM   10  C   UNK N   1      35.576  13.285  14.265  0.00  0.00    -0.009 A 
HETATM   11  C   UNK N   1      36.464  14.275  14.690  0.00  0.00     0.098 A 
HETATM   12  N   UNK N   1      36.780  15.097  13.655  0.00  0.00    -0.359 N 
HETATM   13  H   UNK N   1      33.742  13.040   8.837  0.00  0.00     0.174 HD
HETATM   14  H   UNK N   1      33.243  11.919  10.021  0.00  0.00     0.174 HD
HETATM   15  H   UNK N   1      34.071  12.114  12.262  0.00  0.00     0.184 HD
HETATM   16  H   UNK N   1      37.382  15.874  13.678  0.00  0.00     0.165 HD
ENDROOT
BRANCH  10  17
HETATM   17  C   UNK N   1      35.049  12.222  15.212  0.00  0.00     0.082 C 
BRANCH  17  18
HETATM   18  C   UNK N   1      35.174  12.295  16.717  0.00  0.00    -0.038 A 
HETATM   19  C   UNK N   1      35.022  13.540  17.335  0.00  0.00     0.095 A 
HETATM   20  N   UNK N   1      35.126  13.656  18.688  0.00  0.00    -0.375 N 
HETATM   21  C   UNK N   1      35.378  12.579  19.478  0.00  0.00     0.087 A 
ATOM     22  HN  UNK N   1      35.012  14.574  19.119  1.00  0.00     0.164 HD
HETATM   23  C   UNK N   1      35.537  11.320  18.906  0.00  0.00     0.018 A 
HETATM   24  C   UNK N   1      35.433  11.188  17.524  0.00  0.00     0.010 A 
ENDBRANCH  17  18
ENDBRANCH  10  17
TORSDOF 2
ENDMDL
MODEL 2
REMARK VINA RESULT:      -6.8      1.707      2.247
REMARK  2 active torsions:
REMARK  status: ('A' for Active; 'I' for Inactive)
REMARK       I    between atoms: N_1  and  C_2 
REMARK    1  A    between atoms: C_10  and  C_11 
REMARK    2  A    between atoms: C_11  and  C_12 
ROOT
HETATM    1  N   UNK N   1      32.368  14.593   8.876  0.00  0.00    -0.234 N 
HETATM    2  C   UNK N   1      33.406  14.934   9.764  0.00  0.00     0.679 A 
HETATM    3  N   UNK N   1      34.075  16.119   9.616  0.00  0.00    -0.154 N 
ATOM      4  HN  UNK N   1      33.818  16.753   8.859  1.00  0.00     0.187 HD
HETATM    5  C   UNK N   1      35.092  16.464  10.478  0.00  0.00     0.288 A 
HETATM    6  O   UNK N   1      35.685  17.518  10.344  0.00  0.00    -0.265 OA
HETATM    7  C   UNK N   1      35.415  15.577  11.496  0.00  0.00     0.129 A 
HETATM    8  C   UNK N   1      34.739  14.410  11.623  0.00  0.00     0.089 A 
HETATM    9  N   UNK N   1      33.741  14.077  10.773  0.00  0.00    -0.189 N 
HETATM   10  C   UNK N   1      35.269  13.737  12.710  0.00  0.00    -0.009 A 
HETATM   11  C   UNK N   1      36.277  14.570  13.198  0.00  0.00     0.098 A 
HETATM   12  N   UNK N   1      36.359  15.698  12.445  0.00  0.00    -0.359 N 
HETATM   13  H   UNK N   1      32.122  15.208   8.146  0.00  0.00     0.174 HD
HETATM   14  H   UNK N   1      31.887  13.740   8.983  0.00  0.00     0.174 HD
HETATM   15  H   UNK N   1      33.259  13.225  10.880  0.00  0.00     0.184 HD
HETATM   16  H   UNK N   1      36.982  16.450  12.569  0.00  0.00     0.165 HD
ENDROOT
BRANCH  10  17
HETATM   17  C   UNK N   1      34.950  12.402  13.357  0.00  0.00     0.082 C 
BRANCH  17  18
HETATM   18  C   UNK N   1      35.244  12.072  14.803  0.00  0.00    -0.038 A 
HETATM   19  C   UNK N   1      36.105  11.006  15.078  0.00  0.00     0.095 A 
HETATM   20  N   UNK N   1      36.400  10.671  16.365  0.00  0.00    -0.375 N 
HETATM   21  C   UNK N   1      35.873  11.353  17.417  0.00  0.00     0.087 A 
ATOM     22  HN  UNK N   1      37.031   9.890  16.544  1.00  0.00     0.164 HD
HETATM   23  C   UNK N   1      35.010  12.422  17.190  0.00  0.00     0.018 A 
HETATM   24  C   UNK N   1      34.702  12.773  15.879  0.00  0.00     0.010 A 
ENDBRANCH  17  18
ENDBRANCH  10  17
TORSDOF 2
ENDMDL
MODEL 3
REMARK VINA RESULT:      -6.8      5.556      8.559
REMARK  2 active torsions:
REMARK  status: ('A' for Active; 'I' for Inactive)
REMARK       I    between atoms: N_1  and  C_2 
REMARK    1  A    between atoms: C_10  and  C_11 
REMARK    2  A    between atoms: C_11  and  C_12 
ROOT
HETATM    1  N   UNK N   1      33.750  12.762  10.102  0.00  0.00    -0.234 N 
HETATM    2  C   UNK N   1      34.095  14.105   9.857  0.00  0.00     0.679 A 
HETATM    3  N   UNK N   1      35.235  14.632  10.403  0.00  0.00    -0.154 N 
ATOM      4  HN  UNK N   1      35.833  14.046  10.988  1.00  0.00     0.187 HD
HETATM    5  C   UNK N   1      35.584  15.944  10.171  0.00  0.00     0.288 A 
HETATM    6  O   UNK N   1      36.598  16.409  10.658  0.00  0.00    -0.265 OA
HETATM    7  C   UNK N   1      34.747  16.711   9.372  0.00  0.00     0.129 A 
HETATM    8  C   UNK N   1      33.625  16.168   8.843  0.00  0.00     0.089 A 
HETATM    9  N   UNK N   1      33.288  14.879   9.074  0.00  0.00    -0.189 N 
HETATM   10  C   UNK N   1      32.995  17.152   8.100  0.00  0.00    -0.009 A 
HETATM   11  C   UNK N   1      33.807  18.281   8.228  0.00  0.00     0.098 A 
HETATM   12  N   UNK N   1      34.881  17.999   9.011  0.00  0.00    -0.359 N 
HETATM   13  H   UNK N   1      34.329  12.200  10.667  0.00  0.00     0.174 HD
HETATM   14  H   UNK N   1      32.930  12.385   9.709  0.00  0.00     0.174 HD
HETATM   15  H   UNK N   1      32.468  14.500   8.681  0.00  0.00     0.184 HD
HETATM   16  H   UNK N   1      35.608  18.612   9.263  0.00  0.00     0.165 HD
ENDROOT
BRANCH  10  17
HETATM   17  C   UNK N   1      31.719  17.173   7.278  0.00  0.00     0.082 C 
BRANCH  17  18
HETATM   18  C   UNK N   1      30.355  17.490   7.845  0.00  0.00    -0.038 A 
HETATM   19  C   UNK N   1      29.227  17.115   7.107  0.00  0.00     0.095 A 
HETATM   20  N   UNK N   1      27.976  17.379   7.576  0.00  0.00    -0.375 N 
HETATM   21  C   UNK N   1      27.780  18.010   8.765  0.00  0.00     0.087 A 
ATOM     22  HN  UNK N   1      27.167  17.097   7.023  1.00  0.00     0.164 HD
HETATM   23  C   UNK N   1      28.873  18.401   9.533  0.00  0.00     0.018 A 
HETATM   24  C   UNK N   1      30.157  18.137   9.064  0.00  0.00     0.010 A 
ENDBRANCH  17  18
ENDBRANCH  10  17
TORSDOF 2
ENDMDL
MODEL 4
REMARK VINA RESULT:      -6.8     14.767     17.567
REMARK  2 active torsions:
REMARK  status: ('A' for Active; 'I' for Inactive)
REMARK       I    between atoms: N_1  and  C_2 
REMARK    1  A    between atoms: C_10  and  C_11 
REMARK    2  A    between atoms: C_11  and  C_12 
ROOT
HETATM    1  N   UNK N   1      20.305  21.296   0.477  0.00  0.00    -0.234 N 
HETATM    2  C   UNK N   1      20.659  20.415   1.517  0.00  0.00     0.679 A 
HETATM    3  N   UNK N   1      19.740  19.525   2.005  0.00  0.00    -0.154 N 
ATOM      4  HN  UNK N   1      18.799  19.503   1.611  1.00  0.00     0.187 HD
HETATM    5  C   UNK N   1      20.074  18.658   3.021  0.00  0.00     0.288 A 
HETATM    6  O   UNK N   1      19.255  17.868   3.454  0.00  0.00    -0.265 OA
HETATM    7  C   UNK N   1      21.363  18.716   3.533  0.00  0.00     0.129 A 
HETATM    8  C   UNK N   1      22.255  19.605   3.034  0.00  0.00     0.089 A 
HETATM    9  N   UNK N   1      21.921  20.454   2.035  0.00  0.00    -0.189 N 
HETATM   10  C   UNK N   1      23.442  19.439   3.726  0.00  0.00    -0.009 A 
HETATM   11  C   UNK N   1      23.190  18.415   4.642  0.00  0.00     0.098 A 
HETATM   12  N   UNK N   1      21.910  17.978   4.515  0.00  0.00    -0.359 N 
HETATM   13  H   UNK N   1      19.396  21.272   0.099  0.00  0.00     0.174 HD
HETATM   14  H   UNK N   1      20.967  21.936   0.127  0.00  0.00     0.174 HD
HETATM   15  H   UNK N   1      22.582  21.094   1.684  0.00  0.00     0.184 HD
HETATM   16  H   UNK N   1      21.472  17.267   5.036  0.00  0.00     0.165 HD
ENDROOT
BRANCH  10  17
HETATM   17  C   UNK N   1      24.796  20.120   3.640  0.00  0.00     0.082 C 
BRANCH  17  18
HETATM   18  C   UNK N   1      25.940  19.848   4.589  0.00  0.00    -0.038 A 
HETATM   19  C   UNK N   1      26.773  18.756   4.327  0.00  0.00     0.095 A 
HETATM   20  N   UNK N   1      27.818  18.470   5.154  0.00  0.00    -0.375 N 
HETATM   21  C   UNK N   1      28.085  19.228   6.251  0.00  0.00     0.087 A 
ATOM     22  HN  UNK N   1      28.413  17.669   4.945  1.00  0.00     0.164 HD
HETATM   23  C   UNK N   1      27.283  20.325   6.551  0.00  0.00     0.018 A 
HETATM   24  C   UNK N   1      26.212  20.627   5.713  0.00  0.00     0.010 A 
ENDBRANCH  17  18
ENDBRANCH  10  17
TORSDOF 2
ENDMDL
MODEL 5
REMARK VINA RESULT:      -6.8      1.816      2.328
REMARK  2 active torsions:
REMARK  status: ('A' for Active; 'I' for Inactive)
REMARK       I    between atoms: N_1  and  C_2 
REMARK    1  A    between atoms: C_10  and  C_11 
REMARK    2  A    between atoms: C_11  and  C_12 
ROOT
HETATM    1  N   UNK N   1      33.632  10.490  12.787  0.00  0.00    -0.234 N 
HETATM    2  C   UNK N   1      34.546  11.499  13.148  0.00  0.00     0.679 A 
HETATM    3  N   UNK N   1      35.401  12.017  12.212  0.00  0.00    -0.154 N 
ATOM      4  HN  UNK N   1      35.373  11.668  11.254  1.00  0.00     0.187 HD
HETATM    5  C   UNK N   1      36.300  13.003  12.552  0.00  0.00     0.288 A 
HETATM    6  O   UNK N   1      37.059  13.462  11.719  0.00  0.00    -0.265 OA
HETATM    7  C   UNK N   1      36.311  13.454  13.866  0.00  0.00     0.129 A 
HETATM    8  C   UNK N   1      35.455  12.926  14.774  0.00  0.00     0.089 A 
HETATM    9  N   UNK N   1      34.575  11.957  14.434  0.00  0.00    -0.189 N 
HETATM   10  C   UNK N   1      35.689  13.557  15.983  0.00  0.00    -0.009 A 
HETATM   11  C   UNK N   1      36.715  14.468  15.727  0.00  0.00     0.098 A 
HETATM   12  N   UNK N   1      37.090  14.397  14.423  0.00  0.00    -0.359 N 
HETATM   13  H   UNK N   1      33.607  10.157  11.861  0.00  0.00     0.174 HD
HETATM   14  H   UNK N   1      33.018  10.119  13.461  0.00  0.00     0.174 HD
HETATM   15  H   UNK N   1      33.960  11.584  15.106  0.00  0.00     0.184 HD
HETATM   16  H   UNK N   1      37.789  14.927  13.977  0.00  0.00     0.165 HD
ENDROOT
BRANCH  10  17
HETATM   17  C   UNK N   1      35.069  13.416  17.362  0.00  0.00     0.082 C 
BRANCH  17  18
HETATM   18  C   UNK N   1      35.359  12.271  18.305  0.00  0.00    -0.038 A 
HETATM   19  C   UNK N   1      35.256  12.503  19.680  0.00  0.00     0.095 A 
HETATM   20  N   UNK N   1      35.507  11.503  20.570  0.00  0.00    -0.375 N 
HETATM   21  C   UNK N   1      35.862  10.256  20.158  0.00  0.00     0.087 A 
ATOM     22  HN  UNK N   1      35.427  11.693  21.569  1.00  0.00     0.164 HD
HETATM   23  C   UNK N   1      35.976   9.980  18.799  0.00  0.00     0.018 A 
HETATM   24  C   UNK N   1      35.722  10.995  17.880  0.00  0.00     0.010 A 
ENDBRANCH  17  18
ENDBRANCH  10  17
TORSDOF 2
ENDMDL
MODEL 6
REMARK VINA RESULT:      -6.7      7.707     11.296
REMARK  2 active torsions:
REMARK  status: ('A' for Active; 'I' for Inactive)
REMARK       I    between atoms: N_1  and  C_2 
REMARK    1  A    between atoms: C_10  and  C_11 
REMARK    2  A    between atoms: C_11  and  C_12 
ROOT
HETATM    1  N   UNK N   1      32.140  15.273   9.922  0.00  0.00    -0.234 N 
HETATM    2  C   UNK N   1      32.362  15.788   8.630  0.00  0.00     0.679 A 
HETATM    3  N   UNK N   1      33.639  15.905   8.148  0.00  0.00    -0.154 N 
ATOM      4  HN  UNK N   1      34.427  15.617   8.729  1.00  0.00     0.187 HD
HETATM    5  C   UNK N   1      33.869  16.406   6.886  0.00  0.00     0.288 A 
HETATM    6  O   UNK N   1      35.005  16.509   6.460  0.00  0.00    -0.265 OA
HETATM    7  C   UNK N   1      32.773  16.788   6.124  0.00  0.00     0.129 A 
HETATM    8  C   UNK N   1      31.520  16.663   6.622  0.00  0.00     0.089 A 
HETATM    9  N   UNK N   1      31.300  16.169   7.862  0.00  0.00    -0.189 N 
HETATM   10  C   UNK N   1      30.639  17.114   5.655  0.00  0.00    -0.009 A 
HETATM   11  C   UNK N   1      31.444  17.502   4.582  0.00  0.00     0.098 A 
HETATM   12  N   UNK N   1      32.754  17.298   4.880  0.00  0.00    -0.359 N 
HETATM   13  H   UNK N   1      32.904  14.997  10.480  0.00  0.00     0.174 HD
HETATM   14  H   UNK N   1      31.222  15.190  10.268  0.00  0.00     0.174 HD
HETATM   15  H   UNK N   1      30.382  16.085   8.209  0.00  0.00     0.184 HD
HETATM   16  H   UNK N   1      33.529  17.484   4.304  0.00  0.00     0.165 HD
ENDROOT
BRANCH  10  17
HETATM   17  C   UNK N   1      29.127  17.231   5.604  0.00  0.00     0.082 C 
BRANCH  17  18
HETATM   18  C   UNK N   1      28.370  18.518   5.837  0.00  0.00    -0.038 A 
HETATM   19  C   UNK N   1      27.947  18.814   7.136  0.00  0.00     0.095 A 
HETATM   20  N   UNK N   1      27.262  19.962   7.396  0.00  0.00    -0.375 N 
HETATM   21  C   UNK N   1      26.968  20.853   6.411  0.00  0.00     0.087 A 
ATOM     22  HN  UNK N   1      26.963  20.158   8.351  1.00  0.00     0.164 HD
HETATM   23  C   UNK N   1      27.370  20.601   5.103  0.00  0.00     0.018 A 
HETATM   24  C   UNK N   1      28.070  19.430   4.826  0.00  0.00     0.010 A 
ENDBRANCH  17  18
ENDBRANCH  10  17
TORSDOF 2
ENDMDL
MODEL 7
REMARK VINA RESULT:      -6.7      5.447      9.502
REMARK  2 active torsions:
REMARK  status: ('A' for Active; 'I' for Inactive)
REMARK       I    between atoms: N_1  and  C_2 
REMARK    1  A    between atoms: C_10  and  C_11 
REMARK    2  A    between atoms: C_11  and  C_12 
ROOT
HETATM    1  N   UNK N   1      32.688  12.579   9.049  0.00  0.00    -0.234 N 
HETATM    2  C   UNK N   1      33.270  13.847   9.238  0.00  0.00     0.679 A 
HETATM    3  N   UNK N   1      33.870  14.156  10.429  0.00  0.00    -0.154 N 
ATOM      4  HN  UNK N   1      33.893  13.464  11.178  1.00  0.00     0.187 HD
HETATM    5  C   UNK N   1      34.444  15.392  10.626  0.00  0.00     0.288 A 
HETATM    6  O   UNK N   1      34.977  15.665  11.686  0.00  0.00    -0.265 OA
HETATM    7  C   UNK N   1      34.394  16.310   9.585  0.00  0.00     0.129 A 
HETATM    8  C   UNK N   1      33.795  15.981   8.416  0.00  0.00     0.089 A 
HETATM    9  N   UNK N   1      33.233  14.765   8.228  0.00  0.00    -0.189 N 
HETATM   10  C   UNK N   1      33.895  17.075   7.573  0.00  0.00    -0.009 A 
HETATM   11  C   UNK N   1      34.578  18.043   8.313  0.00  0.00     0.098 A 
HETATM   12  N   UNK N   1      34.880  17.563   9.548  0.00  0.00    -0.359 N 
HETATM   13  H   UNK N   1      32.712  11.913   9.775  0.00  0.00     0.174 HD
HETATM   14  H   UNK N   1      32.256  12.358   8.192  0.00  0.00     0.174 HD
HETATM   15  H   UNK N   1      32.802  14.542   7.372  0.00  0.00     0.184 HD
HETATM   16  H   UNK N   1      35.357  18.035  10.267  0.00  0.00     0.165 HD
ENDROOT
BRANCH  10  17
HETATM   17  C   UNK N   1      33.430  17.334   6.152  0.00  0.00     0.082 C 
BRANCH  17  18
HETATM   18  C   UNK N   1      31.980  17.349   5.727  0.00  0.00    -0.038 A 
HETATM   19  C   UNK N   1      31.687  17.539   4.373  0.00  0.00     0.095 A 
HETATM   20  N   UNK N   1      30.396  17.561   3.942  0.00  0.00    -0.375 N 
HETATM   21  C   UNK N   1      29.355  17.400   4.802  0.00  0.00     0.087 A 
ATOM     22  HN  UNK N   1      30.204  17.701   2.950  1.00  0.00     0.164 HD
HETATM   23  C   UNK N   1      29.599  17.207   6.159  0.00  0.00     0.018 A 
HETATM   24  C   UNK N   1      30.915  17.183   6.612  0.00  0.00     0.010 A 
ENDBRANCH  17  18
ENDBRANCH  10  17
TORSDOF 2
ENDMDL
MODEL 8
REMARK VINA RESULT:      -6.6      8.992     11.792
REMARK  2 active torsions:
REMARK  status: ('A' for Active; 'I' for Inactive)
REMARK       I    between atoms: N_1  and  C_2 
REMARK    1  A    between atoms: C_10  and  C_11 
REMARK    2  A    between atoms: C_11  and  C_12 
ROOT
HETATM    1  N   UNK N   1      31.790  17.175   2.485  0.00  0.00    -0.234 N 
HETATM    2  C   UNK N   1      31.987  17.197   3.879  0.00  0.00     0.679 A 
HETATM    3  N   UNK N   1      33.253  17.111   4.395  0.00  0.00    -0.154 N 
ATOM      4  HN  UNK N   1      34.051  17.031   3.764  1.00  0.00     0.187 HD
HETATM    5  C   UNK N   1      33.459  17.131   5.756  0.00  0.00     0.288 A 
HETATM    6  O   UNK N   1      34.585  17.054   6.212  0.00  0.00    -0.265 OA
HETATM    7  C   UNK N   1      32.350  17.240   6.584  0.00  0.00     0.129 A 
HETATM    8  C   UNK N   1      31.107  17.324   6.051  0.00  0.00     0.089 A 
HETATM    9  N   UNK N   1      30.911  17.304   4.713  0.00  0.00    -0.189 N 
HETATM   10  C   UNK N   1      30.209  17.423   7.099  0.00  0.00    -0.009 A 
HETATM   11  C   UNK N   1      30.992  17.392   8.255  0.00  0.00     0.098 A 
HETATM   12  N   UNK N   1      32.306  17.279   7.927  0.00  0.00    -0.359 N 
HETATM   13  H   UNK N   1      32.563  17.098   1.880  0.00  0.00     0.174 HD
HETATM   14  H   UNK N   1      30.879  17.237   2.116  0.00  0.00     0.174 HD
HETATM   15  H   UNK N   1      30.001  17.366   4.342  0.00  0.00     0.184 HD
HETATM   16  H   UNK N   1      33.070  17.236   8.546  0.00  0.00     0.165 HD
ENDROOT
BRANCH  10  17
HETATM   17  C   UNK N   1      28.697  17.544   7.160  0.00  0.00     0.082 C 
BRANCH  17  18
HETATM   18  C   UNK N   1      27.909  18.636   6.475  0.00  0.00    -0.038 A 
HETATM   19  C   UNK N   1      27.346  18.363   5.224  0.00  0.00     0.095 A 
HETATM   20  N   UNK N   1      26.627  19.315   4.567  0.00  0.00    -0.375 N 
HETATM   21  C   UNK N   1      26.432  20.552   5.098  0.00  0.00     0.087 A 
ATOM     22  HN  UNK N   1      26.225  19.096   3.656  1.00  0.00     0.164 HD
HETATM   23  C   UNK N   1      26.974  20.869   6.341  0.00  0.00     0.018 A 
HETATM   24  C   UNK N   1      27.710  19.903   7.021  0.00  0.00     0.010 A 
ENDBRANCH  17  18
ENDBRANCH  10  17
TORSDOF 2
ENDMDL
MODEL 9
REMARK VINA RESULT:      -6.5      9.612     12.382
REMARK  2 active torsions:
REMARK  status: ('A' for Active; 'I' for Inactive)
REMARK       I    between atoms: N_1  and  C_2 
REMARK    1  A    between atoms: C_10  and  C_11 
REMARK    2  A    between atoms: C_11  and  C_12 
ROOT
HETATM    1  N   UNK N   1      26.721  20.557   3.175  0.00  0.00    -0.234 N 
HETATM    2  C   UNK N   1      26.941  20.274   4.536  0.00  0.00     0.679 A 
HETATM    3  N   UNK N   1      26.360  21.052   5.502  0.00  0.00    -0.154 N 
ATOM      4  HN  UNK N   1      25.769  21.838   5.230  1.00  0.00     0.187 HD
HETATM    5  C   UNK N   1      26.568  20.785   6.837  0.00  0.00     0.288 A 
HETATM    6  O   UNK N   1      26.051  21.478   7.694  0.00  0.00    -0.265 OA
HETATM    7  C   UNK N   1      27.378  19.708   7.171  0.00  0.00     0.129 A 
HETATM    8  C   UNK N   1      27.941  18.953   6.197  0.00  0.00     0.089 A 
HETATM    9  N   UNK N   1      27.734  19.220   4.887  0.00  0.00    -0.189 N 
HETATM   10  C   UNK N   1      28.687  17.964   6.815  0.00  0.00    -0.009 A 
HETATM   11  C   UNK N   1      28.526  18.188   8.184  0.00  0.00     0.098 A 
HETATM   12  N   UNK N   1      27.720  19.262   8.392  0.00  0.00    -0.359 N 
HETATM   13  H   UNK N   1      26.149  21.317   2.916  0.00  0.00     0.174 HD
HETATM   14  H   UNK N   1      27.138  19.997   2.481  0.00  0.00     0.174 HD
HETATM   15  H   UNK N   1      28.151  18.660   4.193  0.00  0.00     0.184 HD
HETATM   16  H   UNK N   1      27.443  19.637   9.258  0.00  0.00     0.165 HD
ENDROOT
BRANCH  10  17
HETATM   17  C   UNK N   1      29.540  16.826   6.286  0.00  0.00     0.082 C 
BRANCH  17  18
HETATM   18  C   UNK N   1      31.019  16.942   5.997  0.00  0.00    -0.038 A 
HETATM   19  C   UNK N   1      31.921  16.593   7.007  0.00  0.00     0.095 A 
HETATM   20  N   UNK N   1      33.264  16.681   6.794  0.00  0.00    -0.375 N 
HETATM   21  C   UNK N   1      33.770  17.107   5.606  0.00  0.00     0.087 A 
ATOM     22  HN  UNK N   1      33.905  16.422   7.544  1.00  0.00     0.164 HD
HETATM   23  C   UNK N   1      32.910  17.464   4.572  0.00  0.00     0.018 A 
HETATM   24  C   UNK N   1      31.535  17.379   4.778  0.00  0.00     0.010 A 
ENDBRANCH  17  18
ENDBRANCH  10  17
TORSDOF 2
ENDMDL
