MODEL 1
REMARK VINA RESULT:      -7.2      0.000      0.000
REMARK  24 active torsions:
REMARK  status: ('A' for Active; 'I' for Inactive)
REMARK    1  A    between atoms: C_7  and  C_5 
REMARK    2  A    between atoms: C_12  and  C_5 
REMARK    3  A    between atoms: C_8  and  C_6 
REMARK    4  A    between atoms: C_11  and  C_6 
REMARK    5  A    between atoms: C_18  and  C_7 
REMARK    6  A    between atoms: C_21  and  C_8 
REMARK    7  A    between atoms: C_27  and  C_11 
REMARK    8  A    between atoms: C_29  and  C_12 
REMARK    9  A    between atoms: C_19  and  C_17 
REMARK   10  A    between atoms: C_26  and  C_17 
REMARK   11  A    between atoms: N_34  and  C_18 
REMARK   12  A    between atoms: N_37  and  C_19 
REMARK   13  A    between atoms: N_43  and  C_21 
REMARK   14  A    between atoms: C_28  and  C_23 
REMARK   15  A    between atoms: C_31  and  C_23 
REMARK   16  A    between atoms: C_30  and  C_24 
REMARK   17  A    between atoms: O_44  and  C_24 
REMARK   18  A    between atoms: C_32  and  C_29 
REMARK   19  A    between atoms: C_29  and  N_41 
REMARK   20  A    between atoms: C_33  and  C_30 
REMARK   21  A    between atoms: C_30  and  N_39 
REMARK   22  A    between atoms: C_31  and  O_45 
REMARK   23  A    between atoms: O_46  and  C_32 
REMARK   24  A    between atoms: C_33  and  O_47 
ROOT
HETATM    1  C   UNK N   1      34.007  17.547   9.054  0.00  0.00     0.181 C 
ENDROOT
BRANCH   1   2
HETATM    2  C   UNK N   1      34.666  18.490   8.042  0.00  0.00     0.197 C 
BRANCH   2   3
HETATM    3  O   UNK N   1      35.486  19.411   8.699  0.00  0.00    -0.398 OA
HETATM    4  H   UNK N   1      35.117  19.981   9.392  0.00  0.00     0.209 HD
ENDBRANCH   2   3
ENDBRANCH   1   2
BRANCH   1   5
HETATM    5  C   UNK N   1      34.991  16.628   9.752  0.00  0.00     0.137 C 
HETATM    6  N   UNK N   1      34.972  15.346   9.531  0.00  0.00    -0.361 N 
ATOM      7  HN  UNK N   1      34.268  15.014   8.873  1.00  0.00     0.162 HD
BRANCH   6   8
HETATM    8  C   UNK N   1      35.846  14.320  10.119  0.00  0.00     0.157 C 
BRANCH   8   9
HETATM    9  C   UNK N   1      36.182  13.160   9.184  0.00  0.00     0.033 C 
BRANCH   9  10
HETATM   10  C   UNK N   1      34.999  12.861   8.287  0.00  0.00     0.004 C 
BRANCH  10  11
HETATM   11  C   UNK N   1      34.591  11.422   8.455  0.00  0.00     0.019 C 
BRANCH  11  12
HETATM   12  C   UNK N   1      33.355  11.380   9.317  0.00  0.00     0.111 C 
BRANCH  12  13
HETATM   13  N   UNK N   1      32.643  12.639   9.198  0.00  0.00    -0.430 N 
HETATM   14  H   UNK N   1      31.660  12.657   8.926  0.00  0.00     0.149 HD
HETATM   15  H   UNK N   1      33.130  13.515   9.389  0.00  0.00     0.149 HD
ENDBRANCH  12  13
ENDBRANCH  11  12
ENDBRANCH  10  11
ENDBRANCH   9  10
ENDBRANCH   8   9
BRANCH   8  16
HETATM   16  C   UNK N   1      35.310  13.780  11.424  0.00  0.00     0.134 C 
HETATM   17  N   UNK N   1      36.077  13.139  12.233  0.00  0.00    -0.373 N 
ATOM     18  HN  UNK N   1      37.066  13.044  12.002  1.00  0.00     0.161 HD
BRANCH  17  19
HETATM   19  C   UNK N   1      35.588  12.548  13.459  0.00  0.00     0.121 C 
BRANCH  19  20
HETATM   20  C   UNK N   1      35.711  13.518  14.638  0.00  0.00     0.024 C 
BRANCH  20  21
HETATM   21  C   UNK N   1      36.013  12.829  15.966  0.00  0.00    -0.013 C 
HETATM   22  C   UNK N   1      35.973  11.314  15.785  0.00  0.00     0.005 C 
HETATM   23  C   UNK N   1      36.234  10.612  17.119  0.00  0.00     0.000 C 
HETATM   24  C   UNK N   1      35.208  11.047  18.161  0.00  0.00     0.000 C 
HETATM   25  C   UNK N   1      35.257  12.556  18.329  0.00  0.00     0.000 C 
HETATM   26  C   UNK N   1      34.964  13.233  17.001  0.00  0.00     0.005 C 
ENDBRANCH  20  21
ENDBRANCH  19  20
ENDBRANCH  17  19
BRANCH  16  27
HETATM   27  O   UNK N   1      34.003  13.955  11.721  0.00  0.00    -0.348 OA
HETATM   28  H   UNK N   1      33.752  14.503  12.438  0.00  0.00     0.219 HD
ENDBRANCH  16  27
ENDBRANCH   8  16
ENDBRANCH   6   8
BRANCH   5  29
HETATM   29  O   UNK N   1      35.925  17.186  10.552  0.00  0.00    -0.348 OA
HETATM   30  H   UNK N   1      36.627  17.076  11.162  0.00  0.00     0.219 HD
ENDBRANCH   5  29
ENDBRANCH   1   5
BRANCH   1  31
HETATM   31  N   UNK N   1      32.918  16.808   8.431  0.00  0.00    -0.360 N 
HETATM   32  C   UNK N   1      31.671  17.141   8.470  0.00  0.00     0.116 C 
ATOM     33  HN  UNK N   1      33.160  15.957   7.924  1.00  0.00     0.162 HD
BRANCH  32  34
HETATM   34  C   UNK N   1      30.664  16.248   7.814  0.00  0.00     0.122 C 
BRANCH  34  35
HETATM   35  C   UNK N   1      29.856  16.969   6.788  0.00  0.00    -0.051 A 
HETATM   36  C   UNK N   1      28.554  17.372   7.102  0.00  0.00     0.008 A 
HETATM   37  C   UNK N   1      27.785  18.057   6.157  0.00  0.00     0.007 A 
HETATM   38  C   UNK N   1      28.315  18.344   4.895  0.00  0.00    -0.058 A 
HETATM   39  C   UNK N   1      29.616  17.927   4.578  0.00  0.00     0.007 A 
HETATM   40  C   UNK N   1      30.386  17.243   5.522  0.00  0.00     0.008 A 
BRANCH  38  41
HETATM   41  C   UNK N   1      27.479  19.074   3.893  0.00  0.00     0.038 C 
BRANCH  41  42
HETATM   42  C   UNK N   1      26.791  20.286   4.502  0.00  0.00     0.006 C 
BRANCH  42  43
HETATM   43  C   UNK N   1      25.292  20.146   4.306  0.00  0.00     0.021 C 
BRANCH  43  44
HETATM   44  C   UNK N   1      24.937  18.830   3.632  0.00  0.00     0.130 C 
BRANCH  44  45
HETATM   45  N   UNK N   1      24.128  17.949   4.473  0.00  0.00    -0.346 N 
HETATM   46  C   UNK N   1      23.008  18.253   5.150  0.00  0.00     0.109 A 
HETATM   47  C   UNK N   1      22.598  17.111   5.820  0.00  0.00     0.106 A 
HETATM   48  N   UNK N   1      23.469  16.115   5.552  0.00  0.00    -0.355 N 
HETATM   49  C   UNK N   1      24.388  16.655   4.729  0.00  0.00     0.079 A 
ATOM     50  HN  UNK N   1      23.438  15.157   5.899  1.00  0.00     0.166 HD
HETATM   51  C   UNK N   1      25.553  15.900   4.193  0.00  0.00     0.089 C 
ENDBRANCH  44  45
ENDBRANCH  43  44
ENDBRANCH  42  43
ENDBRANCH  41  42
ENDBRANCH  38  41
ENDBRANCH  34  35
ENDBRANCH  32  34
BRANCH  32  52
HETATM   52  O   UNK N   1      31.263  18.245   9.130  0.00  0.00    -0.349 OA
HETATM   53  H   UNK N   1      31.032  18.714   9.908  0.00  0.00     0.219 HD
ENDBRANCH  32  52
ENDBRANCH   1  31
TORSDOF 24
ENDMDL
MODEL 2
REMARK VINA RESULT:      -7.2      3.458     13.416
REMARK  24 active torsions:
REMARK  status: ('A' for Active; 'I' for Inactive)
REMARK    1  A    between atoms: C_7  and  C_5 
REMARK    2  A    between atoms: C_12  and  C_5 
REMARK    3  A    between atoms: C_8  and  C_6 
REMARK    4  A    between atoms: C_11  and  C_6 
REMARK    5  A    between atoms: C_18  and  C_7 
REMARK    6  A    between atoms: C_21  and  C_8 
REMARK    7  A    between atoms: C_27  and  C_11 
REMARK    8  A    between atoms: C_29  and  C_12 
REMARK    9  A    between atoms: C_19  and  C_17 
REMARK   10  A    between atoms: C_26  and  C_17 
REMARK   11  A    between atoms: N_34  and  C_18 
REMARK   12  A    between atoms: N_37  and  C_19 
REMARK   13  A    between atoms: N_43  and  C_21 
REMARK   14  A    between atoms: C_28  and  C_23 
REMARK   15  A    between atoms: C_31  and  C_23 
REMARK   16  A    between atoms: C_30  and  C_24 
REMARK   17  A    between atoms: O_44  and  C_24 
REMARK   18  A    between atoms: C_32  and  C_29 
REMARK   19  A    between atoms: C_29  and  N_41 
REMARK   20  A    between atoms: C_33  and  C_30 
REMARK   21  A    between atoms: C_30  and  N_39 
REMARK   22  A    between atoms: C_31  and  O_45 
REMARK   23  A    between atoms: O_46  and  C_32 
REMARK   24  A    between atoms: C_33  and  O_47 
ROOT
HETATM    1  C   UNK N   1      35.001  14.519  10.569  0.00  0.00     0.181 C 
ENDROOT
BRANCH   1   2
HETATM    2  C   UNK N   1      35.805  13.806   9.477  0.00  0.00     0.197 C 
BRANCH   2   3
HETATM    3  O   UNK N   1      35.723  14.512   8.275  0.00  0.00    -0.398 OA
HETATM    4  H   UNK N   1      36.320  14.292   7.542  0.00  0.00     0.209 HD
ENDBRANCH   2   3
ENDBRANCH   1   2
BRANCH   1   5
HETATM    5  C   UNK N   1      34.453  15.865  10.133  0.00  0.00     0.137 C 
HETATM    6  N   UNK N   1      33.488  15.938   9.263  0.00  0.00    -0.361 N 
ATOM      7  HN  UNK N   1      33.136  15.050   8.907  1.00  0.00     0.162 HD
BRANCH   6   8
HETATM    8  C   UNK N   1      32.845  17.149   8.734  0.00  0.00     0.157 C 
BRANCH   8   9
HETATM    9  C   UNK N   1      31.319  17.095   8.699  0.00  0.00     0.033 C 
BRANCH   9  10
HETATM   10  C   UNK N   1      30.751  18.497   8.773  0.00  0.00     0.004 C 
BRANCH  10  11
HETATM   11  C   UNK N   1      29.679  18.551   9.829  0.00  0.00     0.019 C 
BRANCH  11  12
HETATM   12  C   UNK N   1      28.455  17.851   9.294  0.00  0.00     0.111 C 
BRANCH  12  13
HETATM   13  N   UNK N   1      27.579  18.825   8.671  0.00  0.00    -0.430 N 
HETATM   14  H   UNK N   1      26.860  18.530   8.010  0.00  0.00     0.149 HD
HETATM   15  H   UNK N   1      27.681  19.815   8.896  0.00  0.00     0.149 HD
ENDBRANCH  12  13
ENDBRANCH  11  12
ENDBRANCH  10  11
ENDBRANCH   9  10
ENDBRANCH   8   9
BRANCH   8  16
HETATM   16  C   UNK N   1      33.369  17.536   7.371  0.00  0.00     0.134 C 
HETATM   17  N   UNK N   1      32.729  17.210   6.304  0.00  0.00    -0.373 N 
ATOM     18  HN  UNK N   1      31.835  16.728   6.396  1.00  0.00     0.161 HD
BRANCH  17  19
HETATM   19  C   UNK N   1      33.231  17.501   4.980  0.00  0.00     0.121 C 
BRANCH  19  20
HETATM   20  C   UNK N   1      32.090  17.708   3.980  0.00  0.00     0.024 C 
BRANCH  20  21
HETATM   21  C   UNK N   1      30.823  16.933   4.329  0.00  0.00    -0.013 C 
HETATM   22  C   UNK N   1      30.259  16.269   3.075  0.00  0.00     0.005 C 
HETATM   23  C   UNK N   1      28.966  15.522   3.405  0.00  0.00     0.000 C 
HETATM   24  C   UNK N   1      27.937  16.476   4.006  0.00  0.00     0.000 C 
HETATM   25  C   UNK N   1      28.511  17.131   5.250  0.00  0.00     0.000 C 
HETATM   26  C   UNK N   1      29.777  17.892   4.895  0.00  0.00     0.005 C 
ENDBRANCH  20  21
ENDBRANCH  19  20
ENDBRANCH  17  19
BRANCH  16  27
HETATM   27  O   UNK N   1      34.538  18.209   7.283  0.00  0.00    -0.348 OA
HETATM   28  H   UNK N   1      34.557  19.080   6.939  0.00  0.00     0.219 HD
ENDBRANCH  16  27
ENDBRANCH   8  16
ENDBRANCH   6   8
BRANCH   5  29
HETATM   29  O   UNK N   1      34.948  16.974  10.721  0.00  0.00    -0.348 OA
HETATM   30  H   UNK N   1      34.923  17.584  11.432  0.00  0.00     0.219 HD
ENDBRANCH   5  29
ENDBRANCH   1   5
BRANCH   1  31
HETATM   31  N   UNK N   1      35.779  14.619  11.795  0.00  0.00    -0.360 N 
HETATM   32  C   UNK N   1      35.526  13.989  12.893  0.00  0.00     0.116 C 
ATOM     33  HN  UNK N   1      36.589  15.238  11.787  1.00  0.00     0.162 HD
BRANCH  32  34
HETATM   34  C   UNK N   1      36.400  14.234  14.085  0.00  0.00     0.122 C 
BRANCH  34  35
HETATM   35  C   UNK N   1      36.119  13.276  15.194  0.00  0.00    -0.051 A 
HETATM   36  C   UNK N   1      36.645  11.982  15.129  0.00  0.00     0.008 A 
HETATM   37  C   UNK N   1      36.400  11.074  16.163  0.00  0.00     0.007 A 
HETATM   38  C   UNK N   1      35.630  11.456  17.266  0.00  0.00    -0.058 A 
HETATM   39  C   UNK N   1      35.091  12.750  17.322  0.00  0.00     0.007 A 
HETATM   40  C   UNK N   1      35.337  13.659  16.290  0.00  0.00     0.008 A 
BRANCH  38  41
HETATM   41  C   UNK N   1      35.373  10.471  18.362  0.00  0.00     0.038 C 
BRANCH  41  42
HETATM   42  C   UNK N   1      34.746   9.188  17.838  0.00  0.00     0.006 C 
BRANCH  42  43
HETATM   43  C   UNK N   1      33.833   8.619  18.909  0.00  0.00     0.021 C 
BRANCH  43  44
HETATM   44  C   UNK N   1      34.514   8.594  20.269  0.00  0.00     0.130 C 
BRANCH  44  45
HETATM   45  N   UNK N   1      33.668   9.103  21.348  0.00  0.00    -0.346 N 
HETATM   46  C   UNK N   1      33.518  10.377  21.749  0.00  0.00     0.109 A 
HETATM   47  C   UNK N   1      32.631  10.381  22.813  0.00  0.00     0.106 A 
HETATM   48  N   UNK N   1      32.244   9.111  23.060  0.00  0.00    -0.355 N 
HETATM   49  C   UNK N   1      32.891   8.357  22.152  0.00  0.00     0.079 A 
ATOM     50  HN  UNK N   1      31.598   8.792  23.781  1.00  0.00     0.166 HD
HETATM   51  C   UNK N   1      32.762   6.876  22.075  0.00  0.00     0.089 C 
ENDBRANCH  44  45
ENDBRANCH  43  44
ENDBRANCH  42  43
ENDBRANCH  41  42
ENDBRANCH  38  41
ENDBRANCH  34  35
ENDBRANCH  32  34
BRANCH  32  52
HETATM   52  O   UNK N   1      34.466  13.159  12.995  0.00  0.00    -0.349 OA
HETATM   53  H   UNK N   1      33.945  12.523  13.444  0.00  0.00     0.219 HD
ENDBRANCH  32  52
ENDBRANCH   1  31
TORSDOF 24
ENDMDL
MODEL 3
REMARK VINA RESULT:      -7.0      8.877     12.546
REMARK  24 active torsions:
REMARK  status: ('A' for Active; 'I' for Inactive)
REMARK    1  A    between atoms: C_7  and  C_5 
REMARK    2  A    between atoms: C_12  and  C_5 
REMARK    3  A    between atoms: C_8  and  C_6 
REMARK    4  A    between atoms: C_11  and  C_6 
REMARK    5  A    between atoms: C_18  and  C_7 
REMARK    6  A    between atoms: C_21  and  C_8 
REMARK    7  A    between atoms: C_27  and  C_11 
REMARK    8  A    between atoms: C_29  and  C_12 
REMARK    9  A    between atoms: C_19  and  C_17 
REMARK   10  A    between atoms: C_26  and  C_17 
REMARK   11  A    between atoms: N_34  and  C_18 
REMARK   12  A    between atoms: N_37  and  C_19 
REMARK   13  A    between atoms: N_43  and  C_21 
REMARK   14  A    between atoms: C_28  and  C_23 
REMARK   15  A    between atoms: C_31  and  C_23 
REMARK   16  A    between atoms: C_30  and  C_24 
REMARK   17  A    between atoms: O_44  and  C_24 
REMARK   18  A    between atoms: C_32  and  C_29 
REMARK   19  A    between atoms: C_29  and  N_41 
REMARK   20  A    between atoms: C_33  and  C_30 
REMARK   21  A    between atoms: C_30  and  N_39 
REMARK   22  A    between atoms: C_31  and  O_45 
REMARK   23  A    between atoms: O_46  and  C_32 
REMARK   24  A    between atoms: C_33  and  O_47 
ROOT
HETATM    1  C   UNK N   1      20.582  20.079   2.003  0.00  0.00     0.181 C 
ENDROOT
BRANCH   1   2
HETATM    2  C   UNK N   1      20.484  21.287   1.066  0.00  0.00     0.197 C 
BRANCH   2   3
HETATM    3  O   UNK N   1      20.809  20.916  -0.241  0.00  0.00    -0.398 OA
HETATM    4  H   UNK N   1      21.004  19.989  -0.447  0.00  0.00     0.209 HD
ENDBRANCH   2   3
ENDBRANCH   1   2
BRANCH   1   5
HETATM    5  C   UNK N   1      21.799  20.113   2.906  0.00  0.00     0.137 C 
HETATM    6  N   UNK N   1      22.195  19.039   3.526  0.00  0.00    -0.361 N 
ATOM      7  HN  UNK N   1      21.644  18.198   3.364  1.00  0.00     0.162 HD
BRANCH   6   8
HETATM    8  C   UNK N   1      23.345  18.898   4.432  0.00  0.00     0.157 C 
BRANCH   8   9
HETATM    9  C   UNK N   1      24.703  18.862   3.734  0.00  0.00     0.033 C 
BRANCH   9  10
HETATM   10  C   UNK N   1      25.592  19.960   4.279  0.00  0.00     0.004 C 
BRANCH  10  11
HETATM   11  C   UNK N   1      26.987  19.794   3.738  0.00  0.00     0.019 C 
BRANCH  11  12
HETATM   12  C   UNK N   1      27.868  19.290   4.853  0.00  0.00     0.111 C 
BRANCH  12  13
HETATM   13  N   UNK N   1      28.953  18.507   4.293  0.00  0.00    -0.430 N 
HETATM   14  H   UNK N   1      28.764  17.761   3.623  0.00  0.00     0.149 HD
HETATM   15  H   UNK N   1      29.915  18.705   4.569  0.00  0.00     0.149 HD
ENDBRANCH  12  13
ENDBRANCH  11  12
ENDBRANCH  10  11
ENDBRANCH   9  10
ENDBRANCH   8   9
BRANCH   8  16
HETATM   16  C   UNK N   1      23.216  17.704   5.350  0.00  0.00     0.134 C 
HETATM   17  N   UNK N   1      22.083  17.404   5.880  0.00  0.00    -0.373 N 
ATOM     18  HN  UNK N   1      21.262  17.956   5.632  1.00  0.00     0.161 HD
BRANCH  17  19
HETATM   19  C   UNK N   1      21.932  16.312   6.816  0.00  0.00     0.121 C 
BRANCH  19  20
HETATM   20  C   UNK N   1      21.168  15.140   6.194  0.00  0.00     0.024 C 
BRANCH  20  21
HETATM   21  C   UNK N   1      21.592  13.778   6.735  0.00  0.00    -0.013 C 
HETATM   22  C   UNK N   1      21.290  13.697   8.229  0.00  0.00     0.005 C 
HETATM   23  C   UNK N   1      21.749  12.351   8.792  0.00  0.00     0.000 C 
HETATM   24  C   UNK N   1      23.240  12.148   8.543  0.00  0.00     0.000 C 
HETATM   25  C   UNK N   1      23.528  12.234   7.054  0.00  0.00     0.000 C 
HETATM   26  C   UNK N   1      23.094  13.589   6.522  0.00  0.00     0.005 C 
ENDBRANCH  20  21
ENDBRANCH  19  20
ENDBRANCH  17  19
BRANCH  16  27
HETATM   27  O   UNK N   1      24.314  16.969   5.631  0.00  0.00    -0.348 OA
HETATM   28  H   UNK N   1      25.128  17.391   5.826  0.00  0.00     0.219 HD
ENDBRANCH  16  27
ENDBRANCH   8  16
ENDBRANCH   6   8
BRANCH   5  29
HETATM   29  O   UNK N   1      22.494  21.267   2.994  0.00  0.00    -0.348 OA
HETATM   30  H   UNK N   1      23.067  21.891   2.593  0.00  0.00     0.219 HD
ENDBRANCH   5  29
ENDBRANCH   1   5
BRANCH   1  31
HETATM   31  N   UNK N   1      20.497  18.838   1.247  0.00  0.00    -0.360 N 
HETATM   32  C   UNK N   1      19.909  17.760   1.644  0.00  0.00     0.116 C 
ATOM     33  HN  UNK N   1      20.942  18.817   0.329  1.00  0.00     0.162 HD
BRANCH  32  34
HETATM   34  C   UNK N   1      19.949  16.548   0.765  0.00  0.00     0.122 C 
BRANCH  34  35
HETATM   35  C   UNK N   1      20.787  15.459   1.346  0.00  0.00    -0.051 A 
HETATM   36  C   UNK N   1      21.804  15.786   2.250  0.00  0.00     0.008 A 
HETATM   37  C   UNK N   1      22.593  14.779   2.810  0.00  0.00     0.007 A 
HETATM   38  C   UNK N   1      22.370  13.441   2.472  0.00  0.00    -0.058 A 
HETATM   39  C   UNK N   1      21.360  13.116   1.555  0.00  0.00     0.007 A 
HETATM   40  C   UNK N   1      20.569  14.122   0.994  0.00  0.00     0.008 A 
BRANCH  38  41
HETATM   41  C   UNK N   1      23.226  12.375   3.078  0.00  0.00     0.038 C 
BRANCH  41  42
HETATM   42  C   UNK N   1      23.887  11.506   2.018  0.00  0.00     0.006 C 
BRANCH  42  43
HETATM   43  C   UNK N   1      24.946  12.328   1.305  0.00  0.00     0.021 C 
BRANCH  43  44
HETATM   44  C   UNK N   1      26.179  12.527   2.173  0.00  0.00     0.130 C 
BRANCH  44  45
HETATM   45  N   UNK N   1      26.333  13.900   2.652  0.00  0.00    -0.346 N 
HETATM   46  C   UNK N   1      26.365  15.030   1.925  0.00  0.00     0.109 A 
HETATM   47  C   UNK N   1      26.543  16.089   2.800  0.00  0.00     0.106 A 
HETATM   48  N   UNK N   1      26.621  15.603   4.058  0.00  0.00    -0.355 N 
HETATM   49  C   UNK N   1      26.488  14.270   3.935  0.00  0.00     0.079 A 
ATOM     50  HN  UNK N   1      26.752  16.135   4.917  1.00  0.00     0.166 HD
HETATM   51  C   UNK N   1      26.530  13.332   5.090  0.00  0.00     0.089 C 
ENDBRANCH  44  45
ENDBRANCH  43  44
ENDBRANCH  42  43
ENDBRANCH  41  42
ENDBRANCH  38  41
ENDBRANCH  34  35
ENDBRANCH  32  34
BRANCH  32  52
HETATM   52  O   UNK N   1      19.308  17.696   2.851  0.00  0.00    -0.349 OA
HETATM   53  H   UNK N   1      18.938  17.231   3.576  0.00  0.00     0.219 HD
ENDBRANCH  32  52
ENDBRANCH   1  31
TORSDOF 24
ENDMDL
MODEL 4
REMARK VINA RESULT:      -7.0      6.726     12.545
REMARK  24 active torsions:
REMARK  status: ('A' for Active; 'I' for Inactive)
REMARK    1  A    between atoms: C_7  and  C_5 
REMARK    2  A    between atoms: C_12  and  C_5 
REMARK    3  A    between atoms: C_8  and  C_6 
REMARK    4  A    between atoms: C_11  and  C_6 
REMARK    5  A    between atoms: C_18  and  C_7 
REMARK    6  A    between atoms: C_21  and  C_8 
REMARK    7  A    between atoms: C_27  and  C_11 
REMARK    8  A    between atoms: C_29  and  C_12 
REMARK    9  A    between atoms: C_19  and  C_17 
REMARK   10  A    between atoms: C_26  and  C_17 
REMARK   11  A    between atoms: N_34  and  C_18 
REMARK   12  A    between atoms: N_37  and  C_19 
REMARK   13  A    between atoms: N_43  and  C_21 
REMARK   14  A    between atoms: C_28  and  C_23 
REMARK   15  A    between atoms: C_31  and  C_23 
REMARK   16  A    between atoms: C_30  and  C_24 
REMARK   17  A    between atoms: O_44  and  C_24 
REMARK   18  A    between atoms: C_32  and  C_29 
REMARK   19  A    between atoms: C_29  and  N_41 
REMARK   20  A    between atoms: C_33  and  C_30 
REMARK   21  A    between atoms: C_30  and  N_39 
REMARK   22  A    between atoms: C_31  and  O_45 
REMARK   23  A    between atoms: O_46  and  C_32 
REMARK   24  A    between atoms: C_33  and  O_47 
ROOT
HETATM    1  C   UNK N   1      20.251  16.037   1.540  0.00  0.00     0.181 C 
ENDROOT
BRANCH   1   2
HETATM    2  C   UNK N   1      19.577  16.545   0.262  0.00  0.00     0.197 C 
BRANCH   2   3
HETATM    3  O   UNK N   1      20.213  17.701  -0.197  0.00  0.00    -0.398 OA
HETATM    4  H   UNK N   1      20.463  17.779  -1.131  0.00  0.00     0.209 HD
ENDBRANCH   2   3
ENDBRANCH   1   2
BRANCH   1   5
HETATM    5  C   UNK N   1      20.351  17.089   2.628  0.00  0.00     0.137 C 
HETATM    6  N   UNK N   1      21.440  17.216   3.330  0.00  0.00    -0.361 N 
ATOM      7  HN  UNK N   1      22.199  16.575   3.102  1.00  0.00     0.162 HD
BRANCH   6   8
HETATM    8  C   UNK N   1      21.703  18.174   4.413  0.00  0.00     0.157 C 
BRANCH   8   9
HETATM    9  C   UNK N   1      23.048  18.892   4.313  0.00  0.00     0.033 C 
BRANCH   9  10
HETATM   10  C   UNK N   1      24.168  17.878   4.221  0.00  0.00     0.004 C 
BRANCH  10  11
HETATM   11  C   UNK N   1      25.370  18.514   3.575  0.00  0.00     0.019 C 
BRANCH  11  12
HETATM   12  C   UNK N   1      25.323  19.997   3.849  0.00  0.00     0.111 C 
BRANCH  12  13
HETATM   13  N   UNK N   1      26.198  20.685   2.918  0.00  0.00    -0.430 N 
HETATM   14  H   UNK N   1      26.712  21.518   3.207  0.00  0.00     0.149 HD
HETATM   15  H   UNK N   1      26.301  20.334   1.966  0.00  0.00     0.149 HD
ENDBRANCH  12  13
ENDBRANCH  11  12
ENDBRANCH  10  11
ENDBRANCH   9  10
ENDBRANCH   8   9
BRANCH   8  16
HETATM   16  C   UNK N   1      21.562  17.553   5.784  0.00  0.00     0.134 C 
HETATM   17  N   UNK N   1      21.616  16.278   5.935  0.00  0.00    -0.373 N 
ATOM     18  HN  UNK N   1      21.805  15.693   5.121  1.00  0.00     0.161 HD
BRANCH  17  19
HETATM   19  C   UNK N   1      21.417  15.641   7.218  0.00  0.00     0.121 C 
BRANCH  19  20
HETATM   20  C   UNK N   1      22.513  14.612   7.510  0.00  0.00     0.024 C 
BRANCH  20  21
HETATM   21  C   UNK N   1      22.060  13.481   8.430  0.00  0.00    -0.013 C 
HETATM   22  C   UNK N   1      21.212  14.046   9.567  0.00  0.00     0.005 C 
HETATM   23  C   UNK N   1      20.786  12.927  10.519  0.00  0.00     0.000 C 
HETATM   24  C   UNK N   1      22.010  12.208  11.079  0.00  0.00     0.000 C 
HETATM   25  C   UNK N   1      22.845  11.653   9.938  0.00  0.00     0.000 C 
HETATM   26  C   UNK N   1      23.284  12.784   9.023  0.00  0.00     0.005 C 
ENDBRANCH  20  21
ENDBRANCH  19  20
ENDBRANCH  17  19
BRANCH  16  27
HETATM   27  O   UNK N   1      21.349  18.356   6.850  0.00  0.00    -0.348 OA
HETATM   28  H   UNK N   1      20.496  18.705   7.016  0.00  0.00     0.219 HD
ENDBRANCH  16  27
ENDBRANCH   8  16
ENDBRANCH   6   8
BRANCH   5  29
HETATM   29  O   UNK N   1      19.309  17.930   2.798  0.00  0.00    -0.348 OA
HETATM   30  H   UNK N   1      18.996  18.786   3.013  0.00  0.00     0.219 HD
ENDBRANCH   5  29
ENDBRANCH   1   5
BRANCH   1  31
HETATM   31  N   UNK N   1      21.545  15.443   1.235  0.00  0.00    -0.360 N 
HETATM   32  C   UNK N   1      21.775  14.179   1.111  0.00  0.00     0.116 C 
ATOM     33  HN  UNK N   1      22.334  16.077   1.112  1.00  0.00     0.162 HD
BRANCH  32  34
HETATM   34  C   UNK N   1      23.176  13.722   0.839  0.00  0.00     0.122 C 
BRANCH  34  35
HETATM   35  C   UNK N   1      24.087  13.988   1.989  0.00  0.00    -0.051 A 
HETATM   36  C   UNK N   1      23.702  13.592   3.274  0.00  0.00     0.008 A 
HETATM   37  C   UNK N   1      24.547  13.825   4.362  0.00  0.00     0.007 A 
HETATM   38  C   UNK N   1      25.781  14.453   4.171  0.00  0.00    -0.058 A 
HETATM   39  C   UNK N   1      26.160  14.862   2.884  0.00  0.00     0.007 A 
HETATM   40  C   UNK N   1      25.317  14.629   1.795  0.00  0.00     0.008 A 
BRANCH  38  41
HETATM   41  C   UNK N   1      26.672  14.699   5.347  0.00  0.00     0.038 C 
BRANCH  41  42
HETATM   42  C   UNK N   1      27.516  15.952   5.169  0.00  0.00     0.006 C 
BRANCH  42  43
HETATM   43  C   UNK N   1      27.637  16.652   6.510  0.00  0.00     0.021 C 
BRANCH  43  44
HETATM   44  C   UNK N   1      28.702  17.738   6.482  0.00  0.00     0.130 C 
BRANCH  44  45
HETATM   45  N   UNK N   1      29.873  17.422   7.298  0.00  0.00    -0.346 N 
HETATM   46  C   UNK N   1      30.990  16.775   6.924  0.00  0.00     0.109 A 
HETATM   47  C   UNK N   1      31.819  16.692   8.031  0.00  0.00     0.106 A 
HETATM   48  N   UNK N   1      31.205  17.286   9.077  0.00  0.00    -0.355 N 
HETATM   49  C   UNK N   1      30.024  17.721   8.599  0.00  0.00     0.079 A 
ATOM     50  HN  UNK N   1      31.561  17.384  10.027  1.00  0.00     0.166 HD
HETATM   51  C   UNK N   1      29.014  18.430   9.432  0.00  0.00     0.089 C 
ENDBRANCH  44  45
ENDBRANCH  43  44
ENDBRANCH  42  43
ENDBRANCH  41  42
ENDBRANCH  38  41
ENDBRANCH  34  35
ENDBRANCH  32  34
BRANCH  32  52
HETATM   52  O   UNK N   1      20.791  13.270   1.272  0.00  0.00    -0.349 OA
HETATM   53  H   UNK N   1      20.101  12.864   1.761  0.00  0.00     0.219 HD
ENDBRANCH  32  52
ENDBRANCH   1  31
TORSDOF 24
ENDMDL
MODEL 5
REMARK VINA RESULT:      -7.0      8.436     12.999
REMARK  24 active torsions:
REMARK  status: ('A' for Active; 'I' for Inactive)
REMARK    1  A    between atoms: C_7  and  C_5 
REMARK    2  A    between atoms: C_12  and  C_5 
REMARK    3  A    between atoms: C_8  and  C_6 
REMARK    4  A    between atoms: C_11  and  C_6 
REMARK    5  A    between atoms: C_18  and  C_7 
REMARK    6  A    between atoms: C_21  and  C_8 
REMARK    7  A    between atoms: C_27  and  C_11 
REMARK    8  A    between atoms: C_29  and  C_12 
REMARK    9  A    between atoms: C_19  and  C_17 
REMARK   10  A    between atoms: C_26  and  C_17 
REMARK   11  A    between atoms: N_34  and  C_18 
REMARK   12  A    between atoms: N_37  and  C_19 
REMARK   13  A    between atoms: N_43  and  C_21 
REMARK   14  A    between atoms: C_28  and  C_23 
REMARK   15  A    between atoms: C_31  and  C_23 
REMARK   16  A    between atoms: C_30  and  C_24 
REMARK   17  A    between atoms: O_44  and  C_24 
REMARK   18  A    between atoms: C_32  and  C_29 
REMARK   19  A    between atoms: C_29  and  N_41 
REMARK   20  A    between atoms: C_33  and  C_30 
REMARK   21  A    between atoms: C_30  and  N_39 
REMARK   22  A    between atoms: C_31  and  O_45 
REMARK   23  A    between atoms: O_46  and  C_32 
REMARK   24  A    between atoms: C_33  and  O_47 
ROOT
HETATM    1  C   UNK N   1      21.168  19.323   2.868  0.00  0.00     0.181 C 
ENDROOT
BRANCH   1   2
HETATM    2  C   UNK N   1      21.306  20.555   1.968  0.00  0.00     0.197 C 
BRANCH   2   3
HETATM    3  O   UNK N   1      21.688  21.667   2.721  0.00  0.00    -0.398 OA
HETATM    4  H   UNK N   1      22.050  22.451   2.278  0.00  0.00     0.209 HD
ENDBRANCH   2   3
ENDBRANCH   1   2
BRANCH   1   5
HETATM    5  C   UNK N   1      22.327  19.148   3.831  0.00  0.00     0.137 C 
HETATM    6  N   UNK N   1      23.541  19.449   3.470  0.00  0.00    -0.361 N 
ATOM      7  HN  UNK N   1      23.653  19.802   2.520  1.00  0.00     0.162 HD
BRANCH   6   8
HETATM    8  C   UNK N   1      24.769  19.340   4.271  0.00  0.00     0.157 C 
BRANCH   8   9
HETATM    9  C   UNK N   1      25.936  20.185   3.763  0.00  0.00     0.033 C 
BRANCH   9  10
HETATM   10  C   UNK N   1      26.616  20.877   4.925  0.00  0.00     0.004 C 
BRANCH  10  11
HETATM   11  C   UNK N   1      27.898  20.162   5.256  0.00  0.00     0.019 C 
BRANCH  11  12
HETATM   12  C   UNK N   1      27.924  19.907   6.742  0.00  0.00     0.111 C 
BRANCH  12  13
HETATM   13  N   UNK N   1      26.621  20.208   7.305  0.00  0.00    -0.430 N 
HETATM   14  H   UNK N   1      25.932  19.469   7.444  0.00  0.00     0.149 HD
HETATM   15  H   UNK N   1      26.392  21.167   7.564  0.00  0.00     0.149 HD
ENDBRANCH  12  13
ENDBRANCH  11  12
ENDBRANCH  10  11
ENDBRANCH   9  10
ENDBRANCH   8   9
BRANCH   8  16
HETATM   16  C   UNK N   1      25.220  17.909   4.449  0.00  0.00     0.134 C 
HETATM   17  N   UNK N   1      25.185  17.082   3.465  0.00  0.00    -0.373 N 
ATOM     18  HN  UNK N   1      24.894  17.421   2.548  1.00  0.00     0.161 HD
BRANCH  17  19
HETATM   19  C   UNK N   1      25.543  15.689   3.611  0.00  0.00     0.121 C 
BRANCH  19  20
HETATM   20  C   UNK N   1      24.339  14.840   4.027  0.00  0.00     0.024 C 
BRANCH  20  21
HETATM   21  C   UNK N   1      23.800  13.953   2.908  0.00  0.00    -0.013 C 
HETATM   22  C   UNK N   1      24.344  12.535   3.063  0.00  0.00     0.005 C 
HETATM   23  C   UNK N   1      23.844  11.646   1.923  0.00  0.00     0.000 C 
HETATM   24  C   UNK N   1      24.257  12.226   0.573  0.00  0.00     0.000 C 
HETATM   25  C   UNK N   1      23.712  13.637   0.433  0.00  0.00     0.000 C 
HETATM   26  C   UNK N   1      24.245  14.510   1.556  0.00  0.00     0.005 C 
ENDBRANCH  20  21
ENDBRANCH  19  20
ENDBRANCH  17  19
BRANCH  16  27
HETATM   27  O   UNK N   1      25.637  17.498   5.667  0.00  0.00    -0.348 OA
HETATM   28  H   UNK N   1      25.873  18.126   6.322  0.00  0.00     0.219 HD
ENDBRANCH  16  27
ENDBRANCH   8  16
ENDBRANCH   6   8
BRANCH   5  29
HETATM   29  O   UNK N   1      22.054  18.737   5.087  0.00  0.00    -0.348 OA
HETATM   30  H   UNK N   1      21.863  18.035   5.678  0.00  0.00     0.219 HD
ENDBRANCH   5  29
ENDBRANCH   1   5
BRANCH   1  31
HETATM   31  N   UNK N   1      20.937  18.128   2.070  0.00  0.00    -0.360 N 
HETATM   32  C   UNK N   1      19.780  17.665   1.736  0.00  0.00     0.116 C 
ATOM     33  HN  UNK N   1      21.757  17.614   1.749  1.00  0.00     0.162 HD
BRANCH  32  34
HETATM   34  C   UNK N   1      19.709  16.395   0.945  0.00  0.00     0.122 C 
BRANCH  34  35
HETATM   35  C   UNK N   1      19.986  15.194   1.785  0.00  0.00    -0.051 A 
HETATM   36  C   UNK N   1      20.116  15.342   3.170  0.00  0.00     0.008 A 
HETATM   37  C   UNK N   1      20.367  14.226   3.973  0.00  0.00     0.007 A 
HETATM   38  C   UNK N   1      20.487  12.958   3.397  0.00  0.00    -0.058 A 
HETATM   39  C   UNK N   1      20.370  12.814   2.007  0.00  0.00     0.007 A 
HETATM   40  C   UNK N   1      20.118  13.927   1.203  0.00  0.00     0.008 A 
BRANCH  38  41
HETATM   41  C   UNK N   1      20.759  11.775   4.270  0.00  0.00     0.038 C 
BRANCH  41  42
HETATM   42  C   UNK N   1      20.795  12.152   5.744  0.00  0.00     0.006 C 
BRANCH  42  43
HETATM   43  C   UNK N   1      22.244  12.235   6.190  0.00  0.00     0.021 C 
BRANCH  43  44
HETATM   44  C   UNK N   1      22.509  13.492   7.004  0.00  0.00     0.130 C 
BRANCH  44  45
HETATM   45  N   UNK N   1      23.151  13.225   8.290  0.00  0.00    -0.346 N 
HETATM   46  C   UNK N   1      24.408  12.808   8.513  0.00  0.00     0.109 A 
HETATM   47  C   UNK N   1      24.570  12.675   9.883  0.00  0.00     0.106 A 
HETATM   48  N   UNK N   1      23.411  13.008  10.491  0.00  0.00    -0.355 N 
HETATM   49  C   UNK N   1      22.568  13.339   9.495  0.00  0.00     0.079 A 
ATOM     50  HN  UNK N   1      23.217  13.009  11.491  1.00  0.00     0.166 HD
HETATM   51  C   UNK N   1      21.158  13.761   9.721  0.00  0.00     0.089 C 
ENDBRANCH  44  45
ENDBRANCH  43  44
ENDBRANCH  42  43
ENDBRANCH  41  42
ENDBRANCH  38  41
ENDBRANCH  34  35
ENDBRANCH  32  34
BRANCH  32  52
HETATM   52  O   UNK N   1      18.643  18.277   2.129  0.00  0.00    -0.349 OA
HETATM   53  H   UNK N   1      18.071  19.018   2.188  0.00  0.00     0.219 HD
ENDBRANCH  32  52
ENDBRANCH   1  31
TORSDOF 24
ENDMDL
MODEL 6
REMARK VINA RESULT:      -7.0      6.823     12.775
REMARK  24 active torsions:
REMARK  status: ('A' for Active; 'I' for Inactive)
REMARK    1  A    between atoms: C_7  and  C_5 
REMARK    2  A    between atoms: C_12  and  C_5 
REMARK    3  A    between atoms: C_8  and  C_6 
REMARK    4  A    between atoms: C_11  and  C_6 
REMARK    5  A    between atoms: C_18  and  C_7 
REMARK    6  A    between atoms: C_21  and  C_8 
REMARK    7  A    between atoms: C_27  and  C_11 
REMARK    8  A    between atoms: C_29  and  C_12 
REMARK    9  A    between atoms: C_19  and  C_17 
REMARK   10  A    between atoms: C_26  and  C_17 
REMARK   11  A    between atoms: N_34  and  C_18 
REMARK   12  A    between atoms: N_37  and  C_19 
REMARK   13  A    between atoms: N_43  and  C_21 
REMARK   14  A    between atoms: C_28  and  C_23 
REMARK   15  A    between atoms: C_31  and  C_23 
REMARK   16  A    between atoms: C_30  and  C_24 
REMARK   17  A    between atoms: O_44  and  C_24 
REMARK   18  A    between atoms: C_32  and  C_29 
REMARK   19  A    between atoms: C_29  and  N_41 
REMARK   20  A    between atoms: C_33  and  C_30 
REMARK   21  A    between atoms: C_30  and  N_39 
REMARK   22  A    between atoms: C_31  and  O_45 
REMARK   23  A    between atoms: O_46  and  C_32 
REMARK   24  A    between atoms: C_33  and  O_47 
ROOT
HETATM    1  C   UNK N   1      20.615  14.218   3.355  0.00  0.00     0.181 C 
ENDROOT
BRANCH   1   2
HETATM    2  C   UNK N   1      19.390  13.567   2.707  0.00  0.00     0.197 C 
BRANCH   2   3
HETATM    3  O   UNK N   1      18.365  13.419   3.644  0.00  0.00    -0.398 OA
HETATM    4  H   UNK N   1      17.988  12.542   3.816  0.00  0.00     0.209 HD
ENDBRANCH   2   3
ENDBRANCH   1   2
BRANCH   1   5
HETATM    5  C   UNK N   1      20.335  15.596   3.925  0.00  0.00     0.137 C 
HETATM    6  N   UNK N   1      21.235  16.217   4.630  0.00  0.00    -0.361 N 
ATOM      7  HN  UNK N   1      22.118  15.726   4.766  1.00  0.00     0.162 HD
BRANCH   6   8
HETATM    8  C   UNK N   1      21.130  17.545   5.252  0.00  0.00     0.157 C 
BRANCH   8   9
HETATM    9  C   UNK N   1      22.295  18.484   4.947  0.00  0.00     0.033 C 
BRANCH   9  10
HETATM   10  C   UNK N   1      22.235  18.927   3.500  0.00  0.00     0.004 C 
BRANCH  10  11
HETATM   11  C   UNK N   1      21.016  19.783   3.286  0.00  0.00     0.019 C 
BRANCH  11  12
HETATM   12  C   UNK N   1      20.295  19.277   2.061  0.00  0.00     0.111 C 
BRANCH  12  13
HETATM   13  N   UNK N   1      18.966  18.831   2.437  0.00  0.00    -0.430 N 
HETATM   14  H   UNK N   1      18.829  18.244   3.260  0.00  0.00     0.149 HD
HETATM   15  H   UNK N   1      18.162  19.106   1.873  0.00  0.00     0.149 HD
ENDBRANCH  12  13
ENDBRANCH  11  12
ENDBRANCH  10  11
ENDBRANCH   9  10
ENDBRANCH   8   9
BRANCH   8  16
HETATM   16  C   UNK N   1      20.918  17.470   6.747  0.00  0.00     0.134 C 
HETATM   17  N   UNK N   1      20.830  16.333   7.341  0.00  0.00    -0.373 N 
ATOM     18  HN  UNK N   1      20.954  15.481   6.793  1.00  0.00     0.161 HD
BRANCH  17  19
HETATM   19  C   UNK N   1      20.560  16.218   8.757  0.00  0.00     0.121 C 
BRANCH  19  20
HETATM   20  C   UNK N   1      20.244  14.773   9.152  0.00  0.00     0.024 C 
BRANCH  20  21
HETATM   21  C   UNK N   1      21.430  14.033   9.764  0.00  0.00    -0.013 C 
HETATM   22  C   UNK N   1      22.365  13.549   8.658  0.00  0.00     0.005 C 
HETATM   23  C   UNK N   1      23.537  12.770   9.256  0.00  0.00     0.000 C 
HETATM   24  C   UNK N   1      23.030  11.586  10.074  0.00  0.00     0.000 C 
HETATM   25  C   UNK N   1      22.100  12.081  11.168  0.00  0.00     0.000 C 
HETATM   26  C   UNK N   1      20.927  12.824  10.552  0.00  0.00     0.005 C 
ENDBRANCH  20  21
ENDBRANCH  19  20
ENDBRANCH  17  19
BRANCH  16  27
HETATM   27  O   UNK N   1      20.795  18.616   7.452  0.00  0.00    -0.348 OA
HETATM   28  H   UNK N   1      20.957  19.443   7.041  0.00  0.00     0.219 HD
ENDBRANCH  16  27
ENDBRANCH   8  16
ENDBRANCH   6   8
BRANCH   5  29
HETATM   29  O   UNK N   1      19.157  16.181   3.624  0.00  0.00    -0.348 OA
HETATM   30  H   UNK N   1      18.224  16.118   3.554  0.00  0.00     0.219 HD
ENDBRANCH   5  29
ENDBRANCH   1   5
BRANCH   1  31
HETATM   31  N   UNK N   1      21.739  14.230   2.429  0.00  0.00    -0.360 N 
HETATM   32  C   UNK N   1      22.891  13.690   2.647  0.00  0.00     0.116 C 
ATOM     33  HN  UNK N   1      21.606  14.705   1.537  1.00  0.00     0.162 HD
BRANCH  32  34
HETATM   34  C   UNK N   1      23.962  13.827   1.608  0.00  0.00     0.122 C 
BRANCH  34  35
HETATM   35  C   UNK N   1      25.128  14.614   2.104  0.00  0.00    -0.051 A 
HETATM   36  C   UNK N   1      26.413  14.073   1.998  0.00  0.00     0.008 A 
HETATM   37  C   UNK N   1      27.518  14.800   2.450  0.00  0.00     0.007 A 
HETATM   38  C   UNK N   1      27.344  16.071   3.006  0.00  0.00    -0.058 A 
HETATM   39  C   UNK N   1      26.052  16.606   3.124  0.00  0.00     0.007 A 
HETATM   40  C   UNK N   1      24.947  15.881   2.673  0.00  0.00     0.008 A 
BRANCH  38  41
HETATM   41  C   UNK N   1      28.536  16.834   3.489  0.00  0.00     0.038 C 
BRANCH  41  42
HETATM   42  C   UNK N   1      28.198  17.731   4.669  0.00  0.00     0.006 C 
BRANCH  42  43
HETATM   43  C   UNK N   1      28.343  16.928   5.949  0.00  0.00     0.021 C 
BRANCH  43  44
HETATM   44  C   UNK N   1      28.702  17.816   7.131  0.00  0.00     0.130 C 
BRANCH  44  45
HETATM   45  N   UNK N   1      30.070  17.619   7.608  0.00  0.00    -0.346 N 
HETATM   46  C   UNK N   1      31.089  17.022   6.968  0.00  0.00     0.109 A 
HETATM   47  C   UNK N   1      32.190  17.053   7.810  0.00  0.00     0.106 A 
HETATM   48  N   UNK N   1      31.838  17.665   8.961  0.00  0.00    -0.355 N 
HETATM   49  C   UNK N   1      30.543  17.999   8.807  0.00  0.00     0.079 A 
ATOM     50  HN  UNK N   1      32.429  17.838   9.773  1.00  0.00     0.166 HD
HETATM   51  C   UNK N   1      29.744  18.690   9.856  0.00  0.00     0.089 C 
ENDBRANCH  44  45
ENDBRANCH  43  44
ENDBRANCH  42  43
ENDBRANCH  41  42
ENDBRANCH  38  41
ENDBRANCH  34  35
ENDBRANCH  32  34
BRANCH  32  52
HETATM   52  O   UNK N   1      23.157  13.053   3.807  0.00  0.00    -0.349 OA
HETATM   53  H   UNK N   1      23.522  12.351   4.308  0.00  0.00     0.219 HD
ENDBRANCH  32  52
ENDBRANCH   1  31
TORSDOF 24
ENDMDL
MODEL 7
REMARK VINA RESULT:      -6.8      1.737      2.549
REMARK  24 active torsions:
REMARK  status: ('A' for Active; 'I' for Inactive)
REMARK    1  A    between atoms: C_7  and  C_5 
REMARK    2  A    between atoms: C_12  and  C_5 
REMARK    3  A    between atoms: C_8  and  C_6 
REMARK    4  A    between atoms: C_11  and  C_6 
REMARK    5  A    between atoms: C_18  and  C_7 
REMARK    6  A    between atoms: C_21  and  C_8 
REMARK    7  A    between atoms: C_27  and  C_11 
REMARK    8  A    between atoms: C_29  and  C_12 
REMARK    9  A    between atoms: C_19  and  C_17 
REMARK   10  A    between atoms: C_26  and  C_17 
REMARK   11  A    between atoms: N_34  and  C_18 
REMARK   12  A    between atoms: N_37  and  C_19 
REMARK   13  A    between atoms: N_43  and  C_21 
REMARK   14  A    between atoms: C_28  and  C_23 
REMARK   15  A    between atoms: C_31  and  C_23 
REMARK   16  A    between atoms: C_30  and  C_24 
REMARK   17  A    between atoms: O_44  and  C_24 
REMARK   18  A    between atoms: C_32  and  C_29 
REMARK   19  A    between atoms: C_29  and  N_41 
REMARK   20  A    between atoms: C_33  and  C_30 
REMARK   21  A    between atoms: C_30  and  N_39 
REMARK   22  A    between atoms: C_31  and  O_45 
REMARK   23  A    between atoms: O_46  and  C_32 
REMARK   24  A    between atoms: C_33  and  O_47 
ROOT
HETATM    1  C   UNK N   1      33.885  17.655   8.998  0.00  0.00     0.181 C 
ENDROOT
BRANCH   1   2
HETATM    2  C   UNK N   1      34.560  18.515   7.924  0.00  0.00     0.197 C 
BRANCH   2   3
HETATM    3  O   UNK N   1      34.478  17.889   6.678  0.00  0.00    -0.398 OA
HETATM    4  H   UNK N   1      35.284  17.563   6.246  0.00  0.00     0.209 HD
ENDBRANCH   2   3
ENDBRANCH   1   2
BRANCH   1   5
HETATM    5  C   UNK N   1      34.841  16.719   9.711  0.00  0.00     0.137 C 
HETATM    6  N   UNK N   1      34.801  15.437   9.492  0.00  0.00    -0.361 N 
ATOM      7  HN  UNK N   1      34.100  15.117   8.824  1.00  0.00     0.162 HD
BRANCH   6   8
HETATM    8  C   UNK N   1      35.647  14.396  10.093  0.00  0.00     0.157 C 
BRANCH   8   9
HETATM    9  C   UNK N   1      35.505  13.015   9.456  0.00  0.00     0.033 C 
BRANCH   9  10
HETATM   10  C   UNK N   1      36.269  12.968   8.150  0.00  0.00     0.004 C 
BRANCH  10  11
HETATM   11  C   UNK N   1      37.723  13.262   8.407  0.00  0.00     0.019 C 
BRANCH  11  12
HETATM   12  C   UNK N   1      38.413  13.425   7.075  0.00  0.00     0.111 C 
BRANCH  12  13
HETATM   13  N   UNK N   1      39.173  12.225   6.778  0.00  0.00    -0.430 N 
HETATM   14  H   UNK N   1      40.120  12.290   6.405  0.00  0.00     0.149 HD
HETATM   15  H   UNK N   1      38.757  11.309   6.945  0.00  0.00     0.149 HD
ENDBRANCH  12  13
ENDBRANCH  11  12
ENDBRANCH  10  11
ENDBRANCH   9  10
ENDBRANCH   8   9
BRANCH   8  16
HETATM   16  C   UNK N   1      35.457  14.286  11.588  0.00  0.00     0.134 C 
HETATM   17  N   UNK N   1      36.463  14.360  12.385  0.00  0.00    -0.373 N 
ATOM     18  HN  UNK N   1      37.387  14.544  11.994  1.00  0.00     0.161 HD
BRANCH  17  19
HETATM   19  C   UNK N   1      36.332  14.192  13.816  0.00  0.00     0.121 C 
BRANCH  19  20
HETATM   20  C   UNK N   1      36.485  12.725  14.225  0.00  0.00     0.024 C 
BRANCH  20  21
HETATM   21  C   UNK N   1      35.674  12.348  15.461  0.00  0.00    -0.013 C 
HETATM   22  C   UNK N   1      35.734  13.479  16.485  0.00  0.00     0.005 C 
HETATM   23  C   UNK N   1      34.958  13.096  17.747  0.00  0.00     0.000 C 
HETATM   24  C   UNK N   1      35.518  11.811  18.348  0.00  0.00     0.000 C 
HETATM   25  C   UNK N   1      35.455  10.695  17.319  0.00  0.00     0.000 C 
HETATM   26  C   UNK N   1      36.256  11.082  16.088  0.00  0.00     0.005 C 
ENDBRANCH  20  21
ENDBRANCH  19  20
ENDBRANCH  17  19
BRANCH  16  27
HETATM   27  O   UNK N   1      34.214  14.080  12.080  0.00  0.00    -0.348 OA
HETATM   28  H   UNK N   1      33.900  13.208  12.220  0.00  0.00     0.219 HD
ENDBRANCH  16  27
ENDBRANCH   8  16
ENDBRANCH   6   8
BRANCH   5  29
HETATM   29  O   UNK N   1      35.774  17.260  10.522  0.00  0.00    -0.348 OA
HETATM   30  H   UNK N   1      36.231  17.246  11.341  0.00  0.00     0.219 HD
ENDBRANCH   5  29
ENDBRANCH   1   5
BRANCH   1  31
HETATM   31  N   UNK N   1      32.741  16.947   8.441  0.00  0.00    -0.360 N 
HETATM   32  C   UNK N   1      31.517  17.352   8.486  0.00  0.00     0.116 C 
ATOM     33  HN  UNK N   1      32.922  16.056   7.979  1.00  0.00     0.162 HD
BRANCH  32  34
HETATM   34  C   UNK N   1      30.445  16.483   7.904  0.00  0.00     0.122 C 
BRANCH  34  35
HETATM   35  C   UNK N   1      29.635  17.202   6.878  0.00  0.00    -0.051 A 
HETATM   36  C   UNK N   1      30.094  17.257   5.558  0.00  0.00     0.008 A 
HETATM   37  C   UNK N   1      29.344  17.918   4.582  0.00  0.00     0.007 A 
HETATM   38  C   UNK N   1      28.131  18.526   4.920  0.00  0.00    -0.058 A 
HETATM   39  C   UNK N   1      27.679  18.481   6.247  0.00  0.00     0.007 A 
HETATM   40  C   UNK N   1      28.427  17.820   7.223  0.00  0.00     0.008 A 
BRANCH  38  41
HETATM   41  C   UNK N   1      27.342  19.233   3.865  0.00  0.00     0.038 C 
BRANCH  41  42
HETATM   42  C   UNK N   1      26.167  20.000   4.451  0.00  0.00     0.006 C 
BRANCH  42  43
HETATM   43  C   UNK N   1      25.030  19.993   3.446  0.00  0.00     0.021 C 
BRANCH  43  44
HETATM   44  C   UNK N   1      23.889  19.094   3.896  0.00  0.00     0.130 C 
BRANCH  44  45
HETATM   45  N   UNK N   1      22.571  19.593   3.508  0.00  0.00    -0.346 N 
HETATM   46  C   UNK N   1      22.281  20.538   2.597  0.00  0.00     0.109 A 
HETATM   47  C   UNK N   1      20.905  20.693   2.575  0.00  0.00     0.106 A 
HETATM   48  N   UNK N   1      20.359  19.846   3.474  0.00  0.00    -0.355 N 
HETATM   49  C   UNK N   1      21.397  19.190   4.024  0.00  0.00     0.079 A 
ATOM     50  HN  UNK N   1      19.369  19.729   3.690  1.00  0.00     0.166 HD
HETATM   51  C   UNK N   1      21.245  18.159   5.087  0.00  0.00     0.089 C 
ENDBRANCH  44  45
ENDBRANCH  43  44
ENDBRANCH  42  43
ENDBRANCH  41  42
ENDBRANCH  38  41
ENDBRANCH  34  35
ENDBRANCH  32  34
BRANCH  32  52
HETATM   52  O   UNK N   1      31.188  18.514   9.090  0.00  0.00    -0.349 OA
HETATM   53  H   UNK N   1      30.791  19.363   9.106  0.00  0.00     0.219 HD
ENDBRANCH  32  52
ENDBRANCH   1  31
TORSDOF 24
ENDMDL
MODEL 8
REMARK VINA RESULT:      -6.8      4.989     11.286
REMARK  24 active torsions:
REMARK  status: ('A' for Active; 'I' for Inactive)
REMARK    1  A    between atoms: C_7  and  C_5 
REMARK    2  A    between atoms: C_12  and  C_5 
REMARK    3  A    between atoms: C_8  and  C_6 
REMARK    4  A    between atoms: C_11  and  C_6 
REMARK    5  A    between atoms: C_18  and  C_7 
REMARK    6  A    between atoms: C_21  and  C_8 
REMARK    7  A    between atoms: C_27  and  C_11 
REMARK    8  A    between atoms: C_29  and  C_12 
REMARK    9  A    between atoms: C_19  and  C_17 
REMARK   10  A    between atoms: C_26  and  C_17 
REMARK   11  A    between atoms: N_34  and  C_18 
REMARK   12  A    between atoms: N_37  and  C_19 
REMARK   13  A    between atoms: N_43  and  C_21 
REMARK   14  A    between atoms: C_28  and  C_23 
REMARK   15  A    between atoms: C_31  and  C_23 
REMARK   16  A    between atoms: C_30  and  C_24 
REMARK   17  A    between atoms: O_44  and  C_24 
REMARK   18  A    between atoms: C_32  and  C_29 
REMARK   19  A    between atoms: C_29  and  N_41 
REMARK   20  A    between atoms: C_33  and  C_30 
REMARK   21  A    between atoms: C_30  and  N_39 
REMARK   22  A    between atoms: C_31  and  O_45 
REMARK   23  A    between atoms: O_46  and  C_32 
REMARK   24  A    between atoms: C_33  and  O_47 
ROOT
HETATM    1  C   UNK N   1      27.240  19.877   6.063  0.00  0.00     0.181 C 
ENDROOT
BRANCH   1   2
HETATM    2  C   UNK N   1      26.526  21.187   6.410  0.00  0.00     0.197 C 
BRANCH   2   3
HETATM    3  O   UNK N   1      25.881  21.076   7.645  0.00  0.00    -0.398 OA
HETATM    4  H   UNK N   1      26.225  20.468   8.318  0.00  0.00     0.209 HD
ENDBRANCH   2   3
ENDBRANCH   1   2
BRANCH   1   5
HETATM    5  C   UNK N   1      26.379  18.911   5.273  0.00  0.00     0.137 C 
HETATM    6  N   UNK N   1      25.106  18.801   5.522  0.00  0.00    -0.361 N 
ATOM      7  HN  UNK N   1      24.741  19.395   6.265  1.00  0.00     0.162 HD
BRANCH   6   8
HETATM    8  C   UNK N   1      24.134  17.921   4.857  0.00  0.00     0.157 C 
BRANCH   8   9
HETATM    9  C   UNK N   1      22.672  18.270   5.127  0.00  0.00     0.033 C 
BRANCH   9  10
HETATM   10  C   UNK N   1      22.070  18.945   3.913  0.00  0.00     0.004 C 
BRANCH  10  11
HETATM   11  C   UNK N   1      21.034  18.043   3.297  0.00  0.00     0.019 C 
BRANCH  11  12
HETATM   12  C   UNK N   1      20.234  18.852   2.307  0.00  0.00     0.111 C 
BRANCH  12  13
HETATM   13  N   UNK N   1      18.836  18.474   2.397  0.00  0.00    -0.430 N 
HETATM   14  H   UNK N   1      18.104  19.185   2.375  0.00  0.00     0.149 HD
HETATM   15  H   UNK N   1      18.582  17.490   2.483  0.00  0.00     0.149 HD
ENDBRANCH  12  13
ENDBRANCH  11  12
ENDBRANCH  10  11
ENDBRANCH   9  10
ENDBRANCH   8   9
BRANCH   8  16
HETATM   16  C   UNK N   1      24.370  16.460   5.164  0.00  0.00     0.134 C 
HETATM   17  N   UNK N   1      23.923  15.937   6.250  0.00  0.00    -0.373 N 
ATOM     18  HN  UNK N   1      23.365  16.513   6.880  1.00  0.00     0.161 HD
BRANCH  17  19
HETATM   19  C   UNK N   1      24.186  14.561   6.612  0.00  0.00     0.121 C 
BRANCH  19  20
HETATM   20  C   UNK N   1      22.888  13.793   6.878  0.00  0.00     0.024 C 
BRANCH  20  21
HETATM   21  C   UNK N   1      22.408  13.887   8.324  0.00  0.00    -0.013 C 
HETATM   22  C   UNK N   1      22.827  12.635   9.090  0.00  0.00     0.005 C 
HETATM   23  C   UNK N   1      22.316  12.698  10.531  0.00  0.00     0.000 C 
HETATM   24  C   UNK N   1      20.797  12.847  10.553  0.00  0.00     0.000 C 
HETATM   25  C   UNK N   1      20.394  14.094   9.785  0.00  0.00     0.000 C 
HETATM   26  C   UNK N   1      20.884  13.998   8.350  0.00  0.00     0.005 C 
ENDBRANCH  20  21
ENDBRANCH  19  20
ENDBRANCH  17  19
BRANCH  16  27
HETATM   27  O   UNK N   1      25.082  15.712   4.292  0.00  0.00    -0.348 OA
HETATM   28  H   UNK N   1      25.520  16.118   3.570  0.00  0.00     0.219 HD
ENDBRANCH  16  27
ENDBRANCH   8  16
ENDBRANCH   6   8
BRANCH   5  29
HETATM   29  O   UNK N   1      26.956  18.223   4.265  0.00  0.00    -0.348 OA
HETATM   30  H   UNK N   1      26.913  17.521   3.645  0.00  0.00     0.219 HD
ENDBRANCH   5  29
ENDBRANCH   1   5
BRANCH   1  31
HETATM   31  N   UNK N   1      27.791  19.261   7.262  0.00  0.00    -0.360 N 
HETATM   32  C   UNK N   1      28.731  18.377   7.284  0.00  0.00     0.116 C 
ATOM     33  HN  UNK N   1      27.400  19.551   8.159  1.00  0.00     0.162 HD
BRANCH  32  34
HETATM   34  C   UNK N   1      29.157  17.806   8.601  0.00  0.00     0.122 C 
BRANCH  34  35
HETATM   35  C   UNK N   1      30.590  17.392   8.597  0.00  0.00    -0.051 A 
HETATM   36  C   UNK N   1      30.917  16.057   8.853  0.00  0.00     0.008 A 
HETATM   37  C   UNK N   1      32.254  15.649   8.845  0.00  0.00     0.007 A 
HETATM   38  C   UNK N   1      33.269  16.573   8.579  0.00  0.00    -0.058 A 
HETATM   39  C   UNK N   1      32.940  17.915   8.336  0.00  0.00     0.007 A 
HETATM   40  C   UNK N   1      31.604  18.323   8.344  0.00  0.00     0.008 A 
BRANCH  38  41
HETATM   41  C   UNK N   1      34.694  16.121   8.578  0.00  0.00     0.038 C 
BRANCH  41  42
HETATM   42  C   UNK N   1      34.951  15.050   7.529  0.00  0.00     0.006 C 
BRANCH  42  43
HETATM   43  C   UNK N   1      35.064  15.716   6.170  0.00  0.00     0.021 C 
BRANCH  43  44
HETATM   44  C   UNK N   1      34.338  14.922   5.094  0.00  0.00     0.130 C 
BRANCH  44  45
HETATM   45  N   UNK N   1      32.883  14.955   5.234  0.00  0.00    -0.346 N 
HETATM   46  C   UNK N   1      32.061  13.941   5.553  0.00  0.00     0.109 A 
HETATM   47  C   UNK N   1      30.766  14.434   5.553  0.00  0.00     0.106 A 
HETATM   48  N   UNK N   1      30.801  15.745   5.232  0.00  0.00    -0.355 N 
HETATM   49  C   UNK N   1      32.102  16.033   5.045  0.00  0.00     0.079 A 
ATOM     50  HN  UNK N   1      30.009  16.381   5.149  1.00  0.00     0.166 HD
HETATM   51  C   UNK N   1      32.596  17.383   4.658  0.00  0.00     0.089 C 
ENDBRANCH  44  45
ENDBRANCH  43  44
ENDBRANCH  42  43
ENDBRANCH  41  42
ENDBRANCH  38  41
ENDBRANCH  34  35
ENDBRANCH  32  34
BRANCH  32  52
HETATM   52  O   UNK N   1      29.294  17.928   6.142  0.00  0.00    -0.349 OA
HETATM   53  H   UNK N   1      29.372  17.892   5.208  0.00  0.00     0.219 HD
ENDBRANCH  32  52
ENDBRANCH   1  31
TORSDOF 24
ENDMDL
MODEL 9
REMARK VINA RESULT:      -6.7      3.067      6.555
REMARK  24 active torsions:
REMARK  status: ('A' for Active; 'I' for Inactive)
REMARK    1  A    between atoms: C_7  and  C_5 
REMARK    2  A    between atoms: C_12  and  C_5 
REMARK    3  A    between atoms: C_8  and  C_6 
REMARK    4  A    between atoms: C_11  and  C_6 
REMARK    5  A    between atoms: C_18  and  C_7 
REMARK    6  A    between atoms: C_21  and  C_8 
REMARK    7  A    between atoms: C_27  and  C_11 
REMARK    8  A    between atoms: C_29  and  C_12 
REMARK    9  A    between atoms: C_19  and  C_17 
REMARK   10  A    between atoms: C_26  and  C_17 
REMARK   11  A    between atoms: N_34  and  C_18 
REMARK   12  A    between atoms: N_37  and  C_19 
REMARK   13  A    between atoms: N_43  and  C_21 
REMARK   14  A    between atoms: C_28  and  C_23 
REMARK   15  A    between atoms: C_31  and  C_23 
REMARK   16  A    between atoms: C_30  and  C_24 
REMARK   17  A    between atoms: O_44  and  C_24 
REMARK   18  A    between atoms: C_32  and  C_29 
REMARK   19  A    between atoms: C_29  and  N_41 
REMARK   20  A    between atoms: C_33  and  C_30 
REMARK   21  A    between atoms: C_30  and  N_39 
REMARK   22  A    between atoms: C_31  and  O_45 
REMARK   23  A    between atoms: O_46  and  C_32 
REMARK   24  A    between atoms: C_33  and  O_47 
ROOT
HETATM    1  C   UNK N   1      34.874  16.184  10.896  0.00  0.00     0.181 C 
ENDROOT
BRANCH   1   2
HETATM    2  C   UNK N   1      36.393  16.005  10.974  0.00  0.00     0.197 C 
BRANCH   2   3
HETATM    3  O   UNK N   1      36.732  15.195  12.060  0.00  0.00    -0.398 OA
HETATM    4  H   UNK N   1      36.327  14.318  12.156  0.00  0.00     0.209 HD
ENDBRANCH   2   3
ENDBRANCH   1   2
BRANCH   1   5
HETATM    5  C   UNK N   1      34.120  14.877  10.747  0.00  0.00     0.137 C 
HETATM    6  N   UNK N   1      34.760  13.757  10.575  0.00  0.00    -0.361 N 
ATOM      7  HN  UNK N   1      35.777  13.821  10.550  1.00  0.00     0.162 HD
BRANCH   6   8
HETATM    8  C   UNK N   1      34.190  12.411  10.414  0.00  0.00     0.157 C 
BRANCH   8   9
HETATM    9  C   UNK N   1      35.087  11.278  10.908  0.00  0.00     0.033 C 
BRANCH   9  10
HETATM   10  C   UNK N   1      36.462  11.816  11.242  0.00  0.00     0.004 C 
BRANCH  10  11
HETATM   11  C   UNK N   1      37.458  11.310  10.233  0.00  0.00     0.019 C 
BRANCH  11  12
HETATM   12  C   UNK N   1      38.273  12.483   9.747  0.00  0.00     0.111 C 
BRANCH  12  13
HETATM   13  N   UNK N   1      38.699  13.276  10.885  0.00  0.00    -0.430 N 
HETATM   14  H   UNK N   1      38.662  14.295  10.852  0.00  0.00     0.149 HD
HETATM   15  H   UNK N   1      39.037  12.812  11.728  0.00  0.00     0.149 HD
ENDBRANCH  12  13
ENDBRANCH  11  12
ENDBRANCH  10  11
ENDBRANCH   9  10
ENDBRANCH   8   9
BRANCH   8  16
HETATM   16  C   UNK N   1      33.758  12.132   8.993  0.00  0.00     0.134 C 
HETATM   17  N   UNK N   1      34.341  12.710   8.004  0.00  0.00    -0.373 N 
ATOM     18  HN  UNK N   1      35.133  13.325   8.190  1.00  0.00     0.161 HD
BRANCH  17  19
HETATM   19  C   UNK N   1      33.913  12.522   6.635  0.00  0.00     0.121 C 
BRANCH  19  20
HETATM   20  C   UNK N   1      32.769  13.471   6.269  0.00  0.00     0.024 C 
BRANCH  20  21
HETATM   21  C   UNK N   1      32.791  13.921   4.811  0.00  0.00    -0.013 C 
HETATM   22  C   UNK N   1      31.930  12.984   3.967  0.00  0.00     0.005 C 
HETATM   23  C   UNK N   1      31.977  13.401   2.495  0.00  0.00     0.000 C 
HETATM   24  C   UNK N   1      33.415  13.399   1.985  0.00  0.00     0.000 C 
HETATM   25  C   UNK N   1      34.261  14.332   2.835  0.00  0.00     0.000 C 
HETATM   26  C   UNK N   1      34.225  13.883   4.286  0.00  0.00     0.005 C 
ENDBRANCH  20  21
ENDBRANCH  19  20
ENDBRANCH  17  19
BRANCH  16  27
HETATM   27  O   UNK N   1      32.729  11.283   8.774  0.00  0.00    -0.348 OA
HETATM   28  H   UNK N   1      32.807  10.378   9.003  0.00  0.00     0.219 HD
ENDBRANCH  16  27
ENDBRANCH   8  16
ENDBRANCH   6   8
BRANCH   5  29
HETATM   29  O   UNK N   1      32.775  14.901  10.865  0.00  0.00    -0.348 OA
HETATM   30  H   UNK N   1      31.991  14.507  11.194  0.00  0.00     0.219 HD
ENDBRANCH   5  29
ENDBRANCH   1   5
BRANCH   1  31
HETATM   31  N   UNK N   1      34.523  17.138   9.854  0.00  0.00    -0.360 N 
HETATM   32  C   UNK N   1      34.553  16.903   8.586  0.00  0.00     0.116 C 
ATOM     33  HN  UNK N   1      34.232  18.069  10.151  1.00  0.00     0.162 HD
BRANCH  32  34
HETATM   34  C   UNK N   1      34.204  18.008   7.637  0.00  0.00     0.122 C 
BRANCH  34  35
HETATM   35  C   UNK N   1      33.158  17.598   6.656  0.00  0.00    -0.051 A 
HETATM   36  C   UNK N   1      31.913  17.167   7.124  0.00  0.00     0.008 A 
HETATM   37  C   UNK N   1      30.917  16.786   6.220  0.00  0.00     0.007 A 
HETATM   38  C   UNK N   1      31.162  16.837   4.844  0.00  0.00    -0.058 A 
HETATM   39  C   UNK N   1      32.416  17.255   4.377  0.00  0.00     0.007 A 
HETATM   40  C   UNK N   1      33.411  17.637   5.280  0.00  0.00     0.008 A 
BRANCH  38  41
HETATM   41  C   UNK N   1      30.088  16.422   3.890  0.00  0.00     0.038 C 
BRANCH  41  42
HETATM   42  C   UNK N   1      28.945  15.708   4.595  0.00  0.00     0.006 C 
BRANCH  42  43
HETATM   43  C   UNK N   1      27.649  16.434   4.280  0.00  0.00     0.021 C 
BRANCH  43  44
HETATM   44  C   UNK N   1      27.894  17.896   3.941  0.00  0.00     0.130 C 
BRANCH  44  45
HETATM   45  N   UNK N   1      26.685  18.716   4.006  0.00  0.00    -0.346 N 
HETATM   46  C   UNK N   1      25.489  18.470   3.445  0.00  0.00     0.109 A 
HETATM   47  C   UNK N   1      24.651  19.527   3.760  0.00  0.00     0.106 A 
HETATM   48  N   UNK N   1      25.338  20.416   4.510  0.00  0.00    -0.355 N 
HETATM   49  C   UNK N   1      26.571  19.894   4.643  0.00  0.00     0.079 A 
ATOM     50  HN  UNK N   1      24.994  21.295   4.894  1.00  0.00     0.166 HD
HETATM   51  C   UNK N   1      27.668  20.564   5.394  0.00  0.00     0.089 C 
ENDBRANCH  44  45
ENDBRANCH  43  44
ENDBRANCH  42  43
ENDBRANCH  41  42
ENDBRANCH  38  41
ENDBRANCH  34  35
ENDBRANCH  32  34
BRANCH  32  52
HETATM   52  O   UNK N   1      34.939  15.701   8.107  0.00  0.00    -0.349 OA
HETATM   53  H   UNK N   1      35.527  15.138   7.641  0.00  0.00     0.219 HD
ENDBRANCH  32  52
ENDBRANCH   1  31
TORSDOF 24
ENDMDL
