MODEL 1
REMARK VINA RESULT:      -6.0      0.000      0.000
REMARK  8 active torsions:
REMARK  status: ('A' for Active; 'I' for Inactive)
REMARK    1  A    between atoms: C_10  and  C_6 
REMARK    2  A    between atoms: O_15  and  C_6 
REMARK    3  A    between atoms: O_16  and  C_7 
REMARK    4  A    between atoms: C_11  and  C_8 
REMARK    5  A    between atoms: N_14  and  C_9 
REMARK    6  A    between atoms: C_11  and  C_10 
REMARK    7  A    between atoms: C_10  and  N_12 
REMARK    8  A    between atoms: C_11  and  O_17 
ROOT
HETATM    1  C   UNK N   1      36.661  12.470  13.131  0.00  0.00     0.175 C 
ENDROOT
BRANCH   1   2
HETATM    2  C   UNK N   1      36.231  12.983  14.494  0.00  0.00    -0.028 A 
HETATM    3  C   UNK N   1      36.890  14.088  15.048  0.00  0.00     0.012 A 
HETATM    4  C   UNK N   1      36.569  14.535  16.334  0.00  0.00     0.037 A 
HETATM    5  C   UNK N   1      35.595  13.866  17.095  0.00  0.00     0.102 A 
HETATM    6  C   UNK N   1      34.922  12.774  16.534  0.00  0.00     0.037 A 
HETATM    7  C   UNK N   1      35.230  12.344  15.244  0.00  0.00     0.012 A 
BRANCH   5   8
HETATM    8  N   UNK N   1      35.316  14.275  18.429  0.00  0.00    -0.116 N 
HETATM    9  O   UNK N   1      35.226  15.440  18.693  0.00  0.00    -0.532 OA
HETATM   10  O   UNK N   1      35.117  13.465  19.281  0.00  0.00    -0.532 OA
ENDBRANCH   5   8
ENDBRANCH   1   2
BRANCH   1  11
HETATM   11  C   UNK N   1      36.534  13.502  11.978  0.00  0.00     0.140 C 
BRANCH  11  12
HETATM   12  C   UNK N   1      37.359  13.095  10.742  0.00  0.00     0.192 C 
BRANCH  12  13
HETATM   13  O   UNK N   1      38.702  13.469  10.851  0.00  0.00    -0.399 OA
HETATM   14  H   UNK N   1      39.632  13.203  10.921  0.00  0.00     0.209 HD
ENDBRANCH  12  13
ENDBRANCH  11  12
BRANCH  11  15
HETATM   15  N   UNK N   1      35.132  13.718  11.649  0.00  0.00    -0.365 N 
HETATM   16  C   UNK N   1      34.617  14.869  11.357  0.00  0.00     0.107 C 
HETATM   17  C   UNK N   1      35.447  16.114  11.286  0.00  0.00     0.097 C 
ATOM     18  HN  UNK N   1      34.512  12.908  11.650  1.00  0.00     0.161 HD
BRANCH  16  19
HETATM   19  O   UNK N   1      33.290  14.964  11.151  0.00  0.00    -0.350 OA
HETATM   20  H   UNK N   1      32.824  14.859  10.345  0.00  0.00     0.219 HD
ENDBRANCH  16  19
ENDBRANCH  11  15
ENDBRANCH   1  11
BRANCH   1  21
HETATM   21  O   UNK N   1      37.986  12.031  13.203  0.00  0.00    -0.389 OA
HETATM   22  H   UNK N   1      38.732  12.263  12.627  0.00  0.00     0.210 HD
ENDBRANCH   1  21
TORSDOF 8
ENDMDL
MODEL 2
REMARK VINA RESULT:      -5.8      7.516     10.074
REMARK  8 active torsions:
REMARK  status: ('A' for Active; 'I' for Inactive)
REMARK    1  A    between atoms: C_10  and  C_6 
REMARK    2  A    between atoms: O_15  and  C_6 
REMARK    3  A    between atoms: O_16  and  C_7 
REMARK    4  A    between atoms: C_11  and  C_8 
REMARK    5  A    between atoms: N_14  and  C_9 
REMARK    6  A    between atoms: C_11  and  C_10 
REMARK    7  A    between atoms: C_10  and  N_12 
REMARK    8  A    between atoms: C_11  and  O_17 
ROOT
HETATM    1  C   UNK N   1      30.212  16.075   5.994  0.00  0.00     0.175 C 
ENDROOT
BRANCH   1   2
HETATM    2  C   UNK N   1      31.479  16.548   6.684  0.00  0.00    -0.028 A 
HETATM    3  C   UNK N   1      31.643  16.305   8.054  0.00  0.00     0.012 A 
HETATM    4  C   UNK N   1      32.763  16.795   8.733  0.00  0.00     0.037 A 
HETATM    5  C   UNK N   1      33.727  17.559   8.053  0.00  0.00     0.102 A 
HETATM    6  C   UNK N   1      33.573  17.786   6.679  0.00  0.00     0.037 A 
HETATM    7  C   UNK N   1      32.467  17.277   6.001  0.00  0.00     0.012 A 
BRANCH   5   8
HETATM    8  N   UNK N   1      34.831  18.119   8.756  0.00  0.00    -0.116 N 
HETATM    9  O   UNK N   1      35.265  19.188   8.435  0.00  0.00    -0.532 OA
HETATM   10  O   UNK N   1      35.295  17.557   9.699  0.00  0.00    -0.532 OA
ENDBRANCH   5   8
ENDBRANCH   1   2
BRANCH   1  11
HETATM   11  C   UNK N   1      29.037  17.088   6.026  0.00  0.00     0.140 C 
BRANCH  11  12
HETATM   12  C   UNK N   1      28.241  17.095   4.706  0.00  0.00     0.192 C 
BRANCH  12  13
HETATM   13  O   UNK N   1      28.787  17.965   3.758  0.00  0.00    -0.399 OA
HETATM   14  H   UNK N   1      29.568  18.278   3.275  0.00  0.00     0.209 HD
ENDBRANCH  12  13
ENDBRANCH  11  12
BRANCH  11  15
HETATM   15  N   UNK N   1      28.181  16.831   7.176  0.00  0.00    -0.365 N 
HETATM   16  C   UNK N   1      28.149  17.562   8.243  0.00  0.00     0.107 C 
HETATM   17  C   UNK N   1      28.980  18.801   8.381  0.00  0.00     0.097 C 
ATOM     18  HN  UNK N   1      27.567  16.018   7.139  1.00  0.00     0.161 HD
BRANCH  16  19
HETATM   19  O   UNK N   1      27.379  17.181   9.280  0.00  0.00    -0.350 OA
HETATM   20  H   UNK N   1      26.486  17.410   9.447  0.00  0.00     0.219 HD
ENDBRANCH  16  19
ENDBRANCH  11  15
ENDBRANCH   1  11
BRANCH   1  21
HETATM   21  O   UNK N   1      30.504  15.761   4.663  0.00  0.00    -0.389 OA
HETATM   22  H   UNK N   1      30.651  16.364   3.918  0.00  0.00     0.210 HD
ENDBRANCH   1  21
TORSDOF 8
ENDMDL
MODEL 3
REMARK VINA RESULT:      -5.8      8.232     11.141
REMARK  8 active torsions:
REMARK  status: ('A' for Active; 'I' for Inactive)
REMARK    1  A    between atoms: C_10  and  C_6 
REMARK    2  A    between atoms: O_15  and  C_6 
REMARK    3  A    between atoms: O_16  and  C_7 
REMARK    4  A    between atoms: C_11  and  C_8 
REMARK    5  A    between atoms: N_14  and  C_9 
REMARK    6  A    between atoms: C_11  and  C_10 
REMARK    7  A    between atoms: C_10  and  N_12 
REMARK    8  A    between atoms: C_11  and  O_17 
ROOT
HETATM    1  C   UNK N   1      28.696  17.159   6.513  0.00  0.00     0.175 C 
ENDROOT
BRANCH   1   2
HETATM    2  C   UNK N   1      30.131  17.292   6.991  0.00  0.00    -0.028 A 
HETATM    3  C   UNK N   1      30.380  17.761   8.288  0.00  0.00     0.012 A 
HETATM    4  C   UNK N   1      31.691  17.967   8.729  0.00  0.00     0.037 A 
HETATM    5  C   UNK N   1      32.775  17.727   7.869  0.00  0.00     0.102 A 
HETATM    6  C   UNK N   1      32.528  17.240   6.579  0.00  0.00     0.037 A 
HETATM    7  C   UNK N   1      31.221  17.015   6.150  0.00  0.00     0.012 A 
BRANCH   5   8
HETATM    8  N   UNK N   1      34.106  18.003   8.292  0.00  0.00    -0.116 N 
HETATM    9  O   UNK N   1      34.493  17.605   9.353  0.00  0.00    -0.532 OA
HETATM   10  O   UNK N   1      34.860  18.583   7.574  0.00  0.00    -0.532 OA
ENDBRANCH   5   8
ENDBRANCH   1   2
BRANCH   1  11
HETATM   11  C   UNK N   1      28.088  18.455   5.914  0.00  0.00     0.140 C 
BRANCH  11  12
HETATM   12  C   UNK N   1      27.460  18.213   4.528  0.00  0.00     0.192 C 
BRANCH  12  13
HETATM   13  O   UNK N   1      28.422  18.085   3.521  0.00  0.00    -0.399 OA
HETATM   14  H   UNK N   1      28.902  17.510   2.903  0.00  0.00     0.209 HD
ENDBRANCH  12  13
ENDBRANCH  11  12
BRANCH  11  15
HETATM   15  N   UNK N   1      27.138  19.044   6.846  0.00  0.00    -0.365 N 
HETATM   16  C   UNK N   1      26.954  20.315   7.000  0.00  0.00     0.107 C 
HETATM   17  C   UNK N   1      27.692  21.328   6.180  0.00  0.00     0.097 C 
ATOM     18  HN  UNK N   1      26.579  18.411   7.419  1.00  0.00     0.161 HD
BRANCH  16  19
HETATM   19  O   UNK N   1      26.107  20.748   7.954  0.00  0.00    -0.350 OA
HETATM   20  H   UNK N   1      25.185  20.895   7.880  0.00  0.00     0.219 HD
ENDBRANCH  16  19
ENDBRANCH  11  15
ENDBRANCH   1  11
BRANCH   1  21
HETATM   21  O   UNK N   1      28.622  16.140   5.560  0.00  0.00    -0.389 OA
HETATM   22  H   UNK N   1      28.205  16.160   4.684  0.00  0.00     0.210 HD
ENDBRANCH   1  21
TORSDOF 8
ENDMDL
MODEL 4
REMARK VINA RESULT:      -5.6      2.755      6.685
REMARK  8 active torsions:
REMARK  status: ('A' for Active; 'I' for Inactive)
REMARK    1  A    between atoms: C_10  and  C_6 
REMARK    2  A    between atoms: O_15  and  C_6 
REMARK    3  A    between atoms: O_16  and  C_7 
REMARK    4  A    between atoms: C_11  and  C_8 
REMARK    5  A    between atoms: N_14  and  C_9 
REMARK    6  A    between atoms: C_11  and  C_10 
REMARK    7  A    between atoms: C_10  and  N_12 
REMARK    8  A    between atoms: C_11  and  O_17 
ROOT
HETATM    1  C   UNK N   1      35.035  13.374  11.289  0.00  0.00     0.175 C 
ENDROOT
BRANCH   1   2
HETATM    2  C   UNK N   1      35.056  14.622  10.424  0.00  0.00    -0.028 A 
HETATM    3  C   UNK N   1      35.270  15.869  11.026  0.00  0.00     0.012 A 
HETATM    4  C   UNK N   1      35.219  17.042  10.266  0.00  0.00     0.037 A 
HETATM    5  C   UNK N   1      34.928  16.986   8.893  0.00  0.00     0.102 A 
HETATM    6  C   UNK N   1      34.733  15.738   8.287  0.00  0.00     0.037 A 
HETATM    7  C   UNK N   1      34.807  14.569   9.042  0.00  0.00     0.012 A 
BRANCH   5   8
HETATM    8  N   UNK N   1      34.804  18.183   8.132  0.00  0.00    -0.116 N 
HETATM    9  O   UNK N   1      35.244  19.212   8.559  0.00  0.00    -0.532 OA
HETATM   10  O   UNK N   1      34.313  18.161   7.046  0.00  0.00    -0.532 OA
ENDBRANCH   5   8
ENDBRANCH   1   2
BRANCH   1  11
HETATM   11  C   UNK N   1      36.432  12.879  11.750  0.00  0.00     0.140 C 
BRANCH  11  12
HETATM   12  C   UNK N   1      37.457  12.884  10.599  0.00  0.00     0.192 C 
BRANCH  12  13
HETATM   13  O   UNK N   1      38.590  13.648  10.897  0.00  0.00    -0.399 OA
HETATM   14  H   UNK N   1      39.534  13.677  11.119  0.00  0.00     0.209 HD
ENDBRANCH  12  13
ENDBRANCH  11  12
BRANCH  11  15
HETATM   15  N   UNK N   1      36.892  13.658  12.891  0.00  0.00    -0.365 N 
HETATM   16  C   UNK N   1      36.988  13.203  14.098  0.00  0.00     0.107 C 
HETATM   17  C   UNK N   1      36.667  11.779  14.437  0.00  0.00     0.097 C 
ATOM     18  HN  UNK N   1      37.155  14.630  12.729  1.00  0.00     0.161 HD
BRANCH  16  19
HETATM   19  O   UNK N   1      37.345  14.039  15.091  0.00  0.00    -0.350 OA
HETATM   20  H   UNK N   1      36.985  14.880  15.292  0.00  0.00     0.219 HD
ENDBRANCH  16  19
ENDBRANCH  11  15
ENDBRANCH   1  11
BRANCH   1  21
HETATM   21  O   UNK N   1      34.244  13.611  12.417  0.00  0.00    -0.389 OA
HETATM   22  H   UNK N   1      34.071  13.024  13.169  0.00  0.00     0.210 HD
ENDBRANCH   1  21
TORSDOF 8
ENDMDL
MODEL 5
REMARK VINA RESULT:      -5.6      3.211      6.819
REMARK  8 active torsions:
REMARK  status: ('A' for Active; 'I' for Inactive)
REMARK    1  A    between atoms: C_10  and  C_6 
REMARK    2  A    between atoms: O_15  and  C_6 
REMARK    3  A    between atoms: O_16  and  C_7 
REMARK    4  A    between atoms: C_11  and  C_8 
REMARK    5  A    between atoms: N_14  and  C_9 
REMARK    6  A    between atoms: C_11  and  C_10 
REMARK    7  A    between atoms: C_10  and  N_12 
REMARK    8  A    between atoms: C_11  and  O_17 
ROOT
HETATM    1  C   UNK N   1      35.273  13.488  11.475  0.00  0.00     0.175 C 
ENDROOT
BRANCH   1   2
HETATM    2  C   UNK N   1      35.078  14.742  10.641  0.00  0.00    -0.028 A 
HETATM    3  C   UNK N   1      34.678  14.618   9.303  0.00  0.00     0.012 A 
HETATM    4  C   UNK N   1      34.565  15.749   8.489  0.00  0.00     0.037 A 
HETATM    5  C   UNK N   1      34.873  17.023   8.996  0.00  0.00     0.102 A 
HETATM    6  C   UNK N   1      35.254  17.149  10.338  0.00  0.00     0.037 A 
HETATM    7  C   UNK N   1      35.345  16.022  11.153  0.00  0.00     0.012 A 
BRANCH   5   8
HETATM    8  N   UNK N   1      34.827  18.167   8.150  0.00  0.00    -0.116 N 
HETATM    9  O   UNK N   1      34.342  18.085   7.058  0.00  0.00    -0.532 OA
HETATM   10  O   UNK N   1      35.218  19.223   8.539  0.00  0.00    -0.532 OA
ENDBRANCH   5   8
ENDBRANCH   1   2
BRANCH   1  11
HETATM   11  C   UNK N   1      36.706  13.302  12.043  0.00  0.00     0.140 C 
BRANCH  11  12
HETATM   12  C   UNK N   1      36.701  13.091  13.569  0.00  0.00     0.192 C 
BRANCH  12  13
HETATM   13  O   UNK N   1      36.816  14.294  14.274  0.00  0.00    -0.399 OA
HETATM   14  H   UNK N   1      36.687  15.255  14.296  0.00  0.00     0.209 HD
ENDBRANCH  12  13
ENDBRANCH  11  12
BRANCH  11  15
HETATM   15  N   UNK N   1      37.386  12.219  11.346  0.00  0.00    -0.365 N 
HETATM   16  C   UNK N   1      38.209  12.384  10.362  0.00  0.00     0.107 C 
HETATM   17  C   UNK N   1      38.583  13.745   9.860  0.00  0.00     0.097 C 
ATOM     18  HN  UNK N   1      37.200  11.264  11.654  1.00  0.00     0.161 HD
BRANCH  16  19
HETATM   19  O   UNK N   1      38.716  11.304   9.738  0.00  0.00    -0.350 OA
HETATM   20  H   UNK N   1      38.790  11.154   8.816  0.00  0.00     0.219 HD
ENDBRANCH  16  19
ENDBRANCH  11  15
ENDBRANCH   1  11
BRANCH   1  21
HETATM   21  O   UNK N   1      34.362  13.496  12.535  0.00  0.00    -0.389 OA
HETATM   22  H   UNK N   1      34.489  13.181  13.444  0.00  0.00     0.210 HD
ENDBRANCH   1  21
TORSDOF 8
ENDMDL
MODEL 6
REMARK VINA RESULT:      -5.5      5.284      9.444
REMARK  8 active torsions:
REMARK  status: ('A' for Active; 'I' for Inactive)
REMARK    1  A    between atoms: C_10  and  C_6 
REMARK    2  A    between atoms: O_15  and  C_6 
REMARK    3  A    between atoms: O_16  and  C_7 
REMARK    4  A    between atoms: C_11  and  C_8 
REMARK    5  A    between atoms: N_14  and  C_9 
REMARK    6  A    between atoms: C_11  and  C_10 
REMARK    7  A    between atoms: C_10  and  N_12 
REMARK    8  A    between atoms: C_11  and  O_17 
ROOT
HETATM    1  C   UNK N   1      34.172  17.270   9.301  0.00  0.00     0.175 C 
ENDROOT
BRANCH   1   2
HETATM    2  C   UNK N   1      33.476  17.308   7.952  0.00  0.00    -0.028 A 
HETATM    3  C   UNK N   1      32.075  17.303   7.904  0.00  0.00     0.012 A 
HETATM    4  C   UNK N   1      31.408  17.259   6.676  0.00  0.00     0.037 A 
HETATM    5  C   UNK N   1      32.134  17.196   5.475  0.00  0.00     0.102 A 
HETATM    6  C   UNK N   1      33.533  17.220   5.521  0.00  0.00     0.037 A 
HETATM    7  C   UNK N   1      34.196  17.286   6.746  0.00  0.00     0.012 A 
BRANCH   5   8
HETATM    8  N   UNK N   1      31.457  17.080   4.228  0.00  0.00    -0.116 N 
HETATM    9  O   UNK N   1      30.271  16.916   4.203  0.00  0.00    -0.532 OA
HETATM   10  O   UNK N   1      32.053  17.198   3.203  0.00  0.00    -0.532 OA
ENDBRANCH   5   8
ENDBRANCH   1   2
BRANCH   1  11
HETATM   11  C   UNK N   1      34.703  15.874   9.720  0.00  0.00     0.140 C 
BRANCH  11  12
HETATM   12  C   UNK N   1      35.531  15.934  11.018  0.00  0.00     0.192 C 
BRANCH  12  13
HETATM   13  O   UNK N   1      36.888  16.170  10.774  0.00  0.00    -0.399 OA
HETATM   14  H   UNK N   1      37.762  16.407  11.122  0.00  0.00     0.209 HD
ENDBRANCH  12  13
ENDBRANCH  11  12
BRANCH  11  15
HETATM   15  N   UNK N   1      33.602  14.926   9.821  0.00  0.00    -0.365 N 
HETATM   16  C   UNK N   1      33.416  13.931   9.015  0.00  0.00     0.107 C 
HETATM   17  C   UNK N   1      34.365  13.628   7.896  0.00  0.00     0.097 C 
ATOM     18  HN  UNK N   1      32.931  15.055  10.578  1.00  0.00     0.161 HD
BRANCH  16  19
HETATM   19  O   UNK N   1      32.315  13.168   9.154  0.00  0.00    -0.350 OA
HETATM   20  H   UNK N   1      31.633  13.253   9.791  0.00  0.00     0.219 HD
ENDBRANCH  16  19
ENDBRANCH  11  15
ENDBRANCH   1  11
BRANCH   1  21
HETATM   21  O   UNK N   1      35.235  18.177   9.294  0.00  0.00    -0.389 OA
HETATM   22  H   UNK N   1      35.467  18.843   9.960  0.00  0.00     0.210 HD
ENDBRANCH   1  21
TORSDOF 8
ENDMDL
MODEL 7
REMARK VINA RESULT:      -5.4     23.791     25.367
REMARK  8 active torsions:
REMARK  status: ('A' for Active; 'I' for Inactive)
REMARK    1  A    between atoms: C_10  and  C_6 
REMARK    2  A    between atoms: O_15  and  C_6 
REMARK    3  A    between atoms: O_16  and  C_7 
REMARK    4  A    between atoms: C_11  and  C_8 
REMARK    5  A    between atoms: N_14  and  C_9 
REMARK    6  A    between atoms: C_11  and  C_10 
REMARK    7  A    between atoms: C_10  and  N_12 
REMARK    8  A    between atoms: C_11  and  O_17 
ROOT
HETATM    1  C   UNK N   1      25.887  23.688  -7.927  0.00  0.00     0.175 C 
ENDROOT
BRANCH   1   2
HETATM    2  C   UNK N   1      25.797  24.698  -6.798  0.00  0.00    -0.028 A 
HETATM    3  C   UNK N   1      25.603  26.052  -7.104  0.00  0.00     0.012 A 
HETATM    4  C   UNK N   1      25.592  27.015  -6.090  0.00  0.00     0.037 A 
HETATM    5  C   UNK N   1      25.800  26.639  -4.752  0.00  0.00     0.102 A 
HETATM    6  C   UNK N   1      25.975  25.285  -4.443  0.00  0.00     0.037 A 
HETATM    7  C   UNK N   1      25.963  24.324  -5.454  0.00  0.00     0.012 A 
BRANCH   5   8
HETATM    8  N   UNK N   1      25.861  27.625  -3.728  0.00  0.00    -0.116 N 
HETATM    9  O   UNK N   1      25.773  28.786  -4.007  0.00  0.00    -0.532 OA
HETATM   10  O   UNK N   1      25.945  27.303  -2.583  0.00  0.00    -0.532 OA
ENDBRANCH   5   8
ENDBRANCH   1   2
BRANCH   1  11
HETATM   11  C   UNK N   1      26.248  22.245  -7.483  0.00  0.00     0.140 C 
BRANCH  11  12
HETATM   12  C   UNK N   1      25.064  21.274  -7.649  0.00  0.00     0.192 C 
BRANCH  12  13
HETATM   13  O   UNK N   1      24.017  21.551  -6.764  0.00  0.00    -0.399 OA
HETATM   14  H   UNK N   1      23.732  21.768  -5.862  0.00  0.00     0.209 HD
ENDBRANCH  12  13
ENDBRANCH  11  12
BRANCH  11  15
HETATM   15  N   UNK N   1      27.435  21.783  -8.188  0.00  0.00    -0.365 N 
HETATM   16  C   UNK N   1      28.632  21.798  -7.697  0.00  0.00     0.107 C 
HETATM   17  C   UNK N   1      28.910  22.266  -6.302  0.00  0.00     0.097 C 
ATOM     18  HN  UNK N   1      27.315  21.423  -9.135  1.00  0.00     0.161 HD
BRANCH  16  19
HETATM   19  O   UNK N   1      29.667  21.423  -8.472  0.00  0.00    -0.350 OA
HETATM   20  H   UNK N   1      30.001  20.558  -8.607  0.00  0.00     0.219 HD
ENDBRANCH  16  19
ENDBRANCH  11  15
ENDBRANCH   1  11
BRANCH   1  21
HETATM   21  O   UNK N   1      24.671  23.660  -8.616  0.00  0.00    -0.389 OA
HETATM   22  H   UNK N   1      23.875  24.192  -8.460  0.00  0.00     0.210 HD
ENDBRANCH   1  21
TORSDOF 8
ENDMDL
MODEL 8
REMARK VINA RESULT:      -5.3      1.890      2.840
REMARK  8 active torsions:
REMARK  status: ('A' for Active; 'I' for Inactive)
REMARK    1  A    between atoms: C_10  and  C_6 
REMARK    2  A    between atoms: O_15  and  C_6 
REMARK    3  A    between atoms: O_16  and  C_7 
REMARK    4  A    between atoms: C_11  and  C_8 
REMARK    5  A    between atoms: N_14  and  C_9 
REMARK    6  A    between atoms: C_11  and  C_10 
REMARK    7  A    between atoms: C_10  and  N_12 
REMARK    8  A    between atoms: C_11  and  O_17 
ROOT
HETATM    1  C   UNK N   1      36.225  12.955  12.731  0.00  0.00     0.175 C 
ENDROOT
BRANCH   1   2
HETATM    2  C   UNK N   1      35.907  13.234  14.189  0.00  0.00    -0.028 A 
HETATM    3  C   UNK N   1      36.721  14.117  14.910  0.00  0.00     0.012 A 
HETATM    4  C   UNK N   1      36.499  14.334  16.274  0.00  0.00     0.037 A 
HETATM    5  C   UNK N   1      35.470  13.651  16.943  0.00  0.00     0.102 A 
HETATM    6  C   UNK N   1      34.644  12.783  16.219  0.00  0.00     0.037 A 
HETATM    7  C   UNK N   1      34.853  12.585  14.855  0.00  0.00     0.012 A 
BRANCH   5   8
HETATM    8  N   UNK N   1      35.287  13.816  18.345  0.00  0.00    -0.116 N 
HETATM    9  O   UNK N   1      35.226  12.856  19.059  0.00  0.00    -0.532 OA
HETATM   10  O   UNK N   1      35.249  14.906  18.826  0.00  0.00    -0.532 OA
ENDBRANCH   5   8
ENDBRANCH   1   2
BRANCH   1  11
HETATM   11  C   UNK N   1      34.998  12.981  11.781  0.00  0.00     0.140 C 
BRANCH  11  12
HETATM   12  C   UNK N   1      34.764  14.378  11.174  0.00  0.00     0.192 C 
BRANCH  12  13
HETATM   13  O   UNK N   1      33.438  14.803  11.309  0.00  0.00    -0.399 OA
HETATM   14  H   UNK N   1      32.554  14.892  10.920  0.00  0.00     0.209 HD
ENDBRANCH  12  13
ENDBRANCH  11  12
BRANCH  11  15
HETATM   15  N   UNK N   1      35.134  11.958  10.754  0.00  0.00    -0.365 N 
HETATM   16  C   UNK N   1      34.690  10.748  10.862  0.00  0.00     0.107 C 
HETATM   17  C   UNK N   1      33.934  10.285  12.070  0.00  0.00     0.097 C 
ATOM     18  HN  UNK N   1      35.615  12.211   9.891  1.00  0.00     0.161 HD
BRANCH  16  19
HETATM   19  O   UNK N   1      34.947   9.861   9.882  0.00  0.00    -0.350 OA
HETATM   20  H   UNK N   1      35.251   8.979   9.970  0.00  0.00     0.219 HD
ENDBRANCH  16  19
ENDBRANCH  11  15
ENDBRANCH   1  11
BRANCH   1  21
HETATM   21  O   UNK N   1      37.167  13.885  12.281  0.00  0.00    -0.389 OA
HETATM   22  H   UNK N   1      37.014  14.736  11.841  0.00  0.00     0.210 HD
ENDBRANCH   1  21
TORSDOF 8
ENDMDL
MODEL 9
REMARK VINA RESULT:      -5.2     20.237     23.240
REMARK  8 active torsions:
REMARK  status: ('A' for Active; 'I' for Inactive)
REMARK    1  A    between atoms: C_10  and  C_6 
REMARK    2  A    between atoms: O_15  and  C_6 
REMARK    3  A    between atoms: O_16  and  C_7 
REMARK    4  A    between atoms: C_11  and  C_8 
REMARK    5  A    between atoms: N_14  and  C_9 
REMARK    6  A    between atoms: C_11  and  C_10 
REMARK    7  A    between atoms: C_10  and  N_12 
REMARK    8  A    between atoms: C_11  and  O_17 
ROOT
HETATM    1  C   UNK N   1      26.013  25.059  -4.359  0.00  0.00     0.175 C 
ENDROOT
BRANCH   1   2
HETATM    2  C   UNK N   1      27.278  24.324  -3.956  0.00  0.00    -0.028 A 
HETATM    3  C   UNK N   1      28.212  23.978  -4.942  0.00  0.00     0.012 A 
HETATM    4  C   UNK N   1      29.349  23.234  -4.613  0.00  0.00     0.037 A 
HETATM    5  C   UNK N   1      29.558  22.805  -3.291  0.00  0.00     0.102 A 
HETATM    6  C   UNK N   1      28.636  23.167  -2.302  0.00  0.00     0.037 A 
HETATM    7  C   UNK N   1      27.514  23.927  -2.629  0.00  0.00     0.012 A 
BRANCH   5   8
HETATM    8  N   UNK N   1      30.678  21.987  -2.967  0.00  0.00    -0.116 N 
HETATM    9  O   UNK N   1      30.835  20.938  -3.523  0.00  0.00    -0.532 OA
HETATM   10  O   UNK N   1      31.494  22.362  -2.184  0.00  0.00    -0.532 OA
ENDBRANCH   5   8
ENDBRANCH   1   2
BRANCH   1  11
HETATM   11  C   UNK N   1      26.239  26.495  -4.903  0.00  0.00     0.140 C 
BRANCH  11  12
HETATM   12  C   UNK N   1      25.229  26.864  -6.006  0.00  0.00     0.192 C 
BRANCH  12  13
HETATM   13  O   UNK N   1      25.602  26.367  -7.259  0.00  0.00    -0.399 OA
HETATM   14  H   UNK N   1      25.945  25.629  -7.788  0.00  0.00     0.209 HD
ENDBRANCH  12  13
ENDBRANCH  11  12
BRANCH  11  15
HETATM   15  N   UNK N   1      26.225  27.456  -3.809  0.00  0.00    -0.365 N 
HETATM   16  C   UNK N   1      27.276  28.047  -3.339  0.00  0.00     0.107 C 
HETATM   17  C   UNK N   1      28.638  27.825  -3.921  0.00  0.00     0.097 C 
ATOM     18  HN  UNK N   1      25.325  27.677  -3.382  1.00  0.00     0.161 HD
BRANCH  16  19
HETATM   19  O   UNK N   1      27.154  28.854  -2.268  0.00  0.00    -0.350 OA
HETATM   20  H   UNK N   1      26.767  28.655  -1.438  0.00  0.00     0.219 HD
ENDBRANCH  16  19
ENDBRANCH  11  15
ENDBRANCH   1  11
BRANCH   1  21
HETATM   21  O   UNK N   1      25.335  24.310  -5.325  0.00  0.00    -0.389 OA
HETATM   22  H   UNK N   1      25.629  24.064  -6.216  0.00  0.00     0.210 HD
ENDBRANCH   1  21
TORSDOF 8
ENDMDL
