MODEL 1
REMARK VINA RESULT:      -5.3      0.000      0.000
REMARK  0 active torsions:
REMARK  status: ('A' for Active; 'I' for Inactive)
ROOT
HETATM    1  C   UNK N   1      34.912  13.454  17.216  0.00  0.00     0.050 C 
HETATM    2  C   UNK N   1      35.995   9.876  17.983  0.00  0.00     0.002 A 
HETATM    3  C   UNK N   1      35.404  11.156  18.101  0.00  0.00     0.009 A 
HETATM    4  C   UNK N   1      36.734   9.527  16.839  0.00  0.00     0.021 A 
HETATM    5  C   UNK N   1      36.256  13.771  14.374  0.00  0.00     0.207 A 
HETATM    6  C   UNK N   1      35.540  12.110  17.078  0.00  0.00    -0.033 A 
HETATM    7  C   UNK N   1      36.858  10.480  15.840  0.00  0.00     0.036 A 
HETATM    8  C   UNK N   1      36.275  11.757  15.944  0.00  0.00     0.065 A 
HETATM    9  C   UNK N   1      37.244  11.955  13.918  0.00  0.00     0.172 A 
HETATM   10  N   UNK N   1      36.840  13.896  13.149  0.00  0.00    -0.294 N 
ATOM     11  HN  UNK N   1      36.807  14.722  12.552  1.00  0.00     0.187 HD
HETATM   12  N   UNK N   1      37.461  12.750  12.866  0.00  0.00    -0.278 N 
ATOM     13  HN  UNK N   1      37.991  12.527  12.023  1.00  0.00     0.189 HD
HETATM   14  N   UNK N   1      36.516  12.546  14.850  0.00  0.00    -0.284 N 
HETATM   15  S   UNK N   1      37.650  10.416  14.363  0.00  0.00    -0.050 SA
ENDROOT
TORSDOF 0
ENDMDL
MODEL 2
REMARK VINA RESULT:      -5.3      2.169      2.762
REMARK  0 active torsions:
REMARK  status: ('A' for Active; 'I' for Inactive)
ROOT
HETATM    1  C   UNK N   1      33.856  10.504  13.231  0.00  0.00     0.050 C 
HETATM    2  C   UNK N   1      35.036  10.623  16.858  0.00  0.00     0.002 A 
HETATM    3  C   UNK N   1      34.413  10.199  15.661  0.00  0.00     0.009 A 
HETATM    4  C   UNK N   1      35.773  11.818  16.902  0.00  0.00     0.021 A 
HETATM    5  C   UNK N   1      35.168  13.188  12.203  0.00  0.00     0.207 A 
HETATM    6  C   UNK N   1      34.517  10.963  14.485  0.00  0.00    -0.033 A 
HETATM    7  C   UNK N   1      35.865  12.559  15.734  0.00  0.00     0.036 A 
HETATM    8  C   UNK N   1      35.251  12.149  14.535  0.00  0.00     0.065 A 
HETATM    9  C   UNK N   1      36.199  14.069  13.829  0.00  0.00     0.172 A 
HETATM   10  N   UNK N   1      35.739  14.348  11.772  0.00  0.00    -0.294 N 
ATOM     11  HN  UNK N   1      35.681  14.728  10.828  1.00  0.00     0.187 HD
HETATM   12  N   UNK N   1      36.387  14.899  12.799  0.00  0.00    -0.278 N 
ATOM     13  HN  UNK N   1      36.916  15.772  12.799  1.00  0.00     0.189 HD
HETATM   14  N   UNK N   1      35.463  13.021  13.500  0.00  0.00    -0.284 N 
HETATM   15  S   UNK N   1      36.648  14.008  15.419  0.00  0.00    -0.050 SA
ENDROOT
TORSDOF 0
ENDMDL
MODEL 3
REMARK VINA RESULT:      -5.1     14.606     15.187
REMARK  0 active torsions:
REMARK  status: ('A' for Active; 'I' for Inactive)
ROOT
HETATM    1  C   UNK N   1      20.500  13.001  10.520  0.00  0.00     0.050 C 
HETATM    2  C   UNK N   1      23.979  11.909  11.645  0.00  0.00     0.002 A 
HETATM    3  C   UNK N   1      22.582  12.133  11.623  0.00  0.00     0.009 A 
HETATM    4  C   UNK N   1      24.791  12.320  10.575  0.00  0.00     0.021 A 
HETATM    5  C   UNK N   1      21.267  14.276   7.733  0.00  0.00     0.207 A 
HETATM    6  C   UNK N   1      21.972  12.772  10.530  0.00  0.00    -0.033 A 
HETATM    7  C   UNK N   1      24.173  12.948   9.505  0.00  0.00     0.036 A 
HETATM    8  C   UNK N   1      22.784  13.178   9.469  0.00  0.00     0.065 A 
HETATM    9  C   UNK N   1      23.360  14.080   7.485  0.00  0.00     0.172 A 
HETATM   10  N   UNK N   1      21.610  14.823   6.532  0.00  0.00    -0.294 N 
ATOM     11  HN  UNK N   1      20.970  15.253   5.866  1.00  0.00     0.187 HD
HETATM   12  N   UNK N   1      22.930  14.697   6.381  0.00  0.00    -0.278 N 
ATOM     13  HN  UNK N   1      23.492  15.007   5.588  1.00  0.00     0.189 HD
HETATM   14  N   UNK N   1      22.375  13.811   8.325  0.00  0.00    -0.284 N 
HETATM   15  S   UNK N   1      24.813  13.561   8.081  0.00  0.00    -0.050 SA
ENDROOT
TORSDOF 0
ENDMDL
MODEL 4
REMARK VINA RESULT:      -5.0     11.052     12.450
REMARK  0 active torsions:
REMARK  status: ('A' for Active; 'I' for Inactive)
ROOT
HETATM    1  C   UNK N   1      30.882  16.876   4.449  0.00  0.00     0.050 C 
HETATM    2  C   UNK N   1      33.413  17.705   7.182  0.00  0.00     0.002 A 
HETATM    3  C   UNK N   1      32.848  17.393   5.923  0.00  0.00     0.009 A 
HETATM    4  C   UNK N   1      32.602  17.835   8.323  0.00  0.00     0.021 A 
HETATM    5  C   UNK N   1      28.249  16.913   6.195  0.00  0.00     0.207 A 
HETATM    6  C   UNK N   1      31.462  17.205   5.781  0.00  0.00    -0.033 A 
HETATM    7  C   UNK N   1      31.238  17.645   8.165  0.00  0.00     0.036 A 
HETATM    8  C   UNK N   1      30.662  17.335   6.918  0.00  0.00     0.065 A 
HETATM    9  C   UNK N   1      28.800  17.368   8.189  0.00  0.00     0.172 A 
HETATM   10  N   UNK N   1      27.120  16.932   6.959  0.00  0.00    -0.294 N 
ATOM     11  HN  UNK N   1      26.172  16.757   6.629  1.00  0.00     0.187 HD
HETATM   12  N   UNK N   1      27.472  17.219   8.214  0.00  0.00    -0.278 N 
ATOM     13  HN  UNK N   1      26.857  17.306   9.023  1.00  0.00     0.189 HD
HETATM   14  N   UNK N   1      29.301  17.189   6.978  0.00  0.00    -0.284 N 
HETATM   15  S   UNK N   1      29.989  17.720   9.282  0.00  0.00    -0.050 SA
ENDROOT
TORSDOF 0
ENDMDL
MODEL 5
REMARK VINA RESULT:      -5.0     27.969     28.883
REMARK  0 active torsions:
REMARK  status: ('A' for Active; 'I' for Inactive)
ROOT
HETATM    1  C   UNK N   1      28.551  28.059  -8.260  0.00  0.00     0.050 C 
HETATM    2  C   UNK N   1      28.281  30.589  -5.416  0.00  0.00     0.002 A 
HETATM    3  C   UNK N   1      28.684  29.949  -6.612  0.00  0.00     0.009 A 
HETATM    4  C   UNK N   1      27.306  30.013  -4.584  0.00  0.00     0.021 A 
HETATM    5  C   UNK N   1      26.415  25.962  -7.250  0.00  0.00     0.207 A 
HETATM    6  C   UNK N   1      28.118  28.721  -6.998  0.00  0.00    -0.033 A 
HETATM    7  C   UNK N   1      26.758  28.803  -4.980  0.00  0.00     0.036 A 
HETATM    8  C   UNK N   1      27.149  28.155  -6.167  0.00  0.00     0.065 A 
HETATM    9  C   UNK N   1      25.619  26.675  -5.423  0.00  0.00     0.172 A 
HETATM   10  N   UNK N   1      25.491  25.064  -6.805  0.00  0.00    -0.294 N 
ATOM     11  HN  UNK N   1      25.226  24.197  -7.270  1.00  0.00     0.187 HD
HETATM   12  N   UNK N   1      24.992  25.518  -5.653  0.00  0.00    -0.278 N 
ATOM     13  HN  UNK N   1      24.282  25.074  -5.071  1.00  0.00     0.189 HD
HETATM   14  N   UNK N   1      26.488  26.972  -6.374  0.00  0.00    -0.284 N 
HETATM   15  S   UNK N   1      25.593  27.842  -4.251  0.00  0.00    -0.050 SA
ENDROOT
TORSDOF 0
ENDMDL
MODEL 6
REMARK VINA RESULT:      -5.0     16.655     18.498
REMARK  0 active torsions:
REMARK  status: ('A' for Active; 'I' for Inactive)
ROOT
HETATM    1  C   UNK N   1      41.585  20.218   3.499  0.00  0.00     0.050 C 
HETATM    2  C   UNK N   1      40.391  22.159   0.439  0.00  0.00     0.002 A 
HETATM    3  C   UNK N   1      40.444  21.231   1.505  0.00  0.00     0.009 A 
HETATM    4  C   UNK N   1      41.436  23.075   0.229  0.00  0.00     0.021 A 
HETATM    5  C   UNK N   1      44.335  21.700   3.974  0.00  0.00     0.207 A 
HETATM    6  C   UNK N   1      41.543  21.201   2.381  0.00  0.00    -0.033 A 
HETATM    7  C   UNK N   1      42.512  23.033   1.102  0.00  0.00     0.036 A 
HETATM    8  C   UNK N   1      42.578  22.114   2.167  0.00  0.00     0.065 A 
HETATM    9  C   UNK N   1      44.535  23.189   2.482  0.00  0.00     0.172 A 
HETATM   10  N   UNK N   1      45.519  22.347   4.169  0.00  0.00    -0.294 N 
ATOM     11  HN  UNK N   1      46.195  22.149   4.906  1.00  0.00     0.187 HD
HETATM   12  N   UNK N   1      45.640  23.284   3.227  0.00  0.00    -0.278 N 
ATOM     13  HN  UNK N   1      46.415  23.936   3.101  1.00  0.00     0.189 HD
HETATM   14  N   UNK N   1      43.723  22.237   2.910  0.00  0.00    -0.284 N 
HETATM   15  S   UNK N   1      43.911  23.956   1.157  0.00  0.00    -0.050 SA
ENDROOT
TORSDOF 0
ENDMDL
MODEL 7
REMARK VINA RESULT:      -5.0     10.641     12.597
REMARK  0 active torsions:
REMARK  status: ('A' for Active; 'I' for Inactive)
ROOT
HETATM    1  C   UNK N   1      28.973  16.771   5.219  0.00  0.00     0.050 C 
HETATM    2  C   UNK N   1      32.049  16.880   2.963  0.00  0.00     0.002 A 
HETATM    3  C   UNK N   1      30.709  16.775   3.404  0.00  0.00     0.009 A 
HETATM    4  C   UNK N   1      33.094  17.096   3.878  0.00  0.00     0.021 A 
HETATM    5  C   UNK N   1      30.395  17.227   8.003  0.00  0.00     0.207 A 
HETATM    6  C   UNK N   1      30.389  16.884   4.769  0.00  0.00    -0.033 A 
HETATM    7  C   UNK N   1      32.760  17.200   5.220  0.00  0.00     0.036 A 
HETATM    8  C   UNK N   1      31.431  17.098   5.673  0.00  0.00     0.065 A 
HETATM    9  C   UNK N   1      32.472  17.425   7.646  0.00  0.00     0.172 A 
HETATM   10  N   UNK N   1      31.019  17.425   9.199  0.00  0.00    -0.294 N 
ATOM     11  HN  UNK N   1      30.565  17.470  10.111  1.00  0.00     0.187 HD
HETATM   12  N   UNK N   1      32.328  17.549   8.969  0.00  0.00    -0.278 N 
ATOM     13  HN  UNK N   1      33.063  17.705   9.658  1.00  0.00     0.189 HD
HETATM   14  N   UNK N   1      31.318  17.229   7.032  0.00  0.00    -0.284 N 
HETATM   15  S   UNK N   1      33.725  17.453   6.568  0.00  0.00    -0.050 SA
ENDROOT
TORSDOF 0
ENDMDL
MODEL 8
REMARK VINA RESULT:      -5.0     11.003     12.563
REMARK  0 active torsions:
REMARK  status: ('A' for Active; 'I' for Inactive)
ROOT
HETATM    1  C   UNK N   1      32.762  17.769   8.470  0.00  0.00     0.050 C 
HETATM    2  C   UNK N   1      32.406  16.980   4.754  0.00  0.00     0.002 A 
HETATM    3  C   UNK N   1      32.971  17.232   6.026  0.00  0.00     0.009 A 
HETATM    4  C   UNK N   1      31.013  16.997   4.568  0.00  0.00     0.021 A 
HETATM    5  C   UNK N   1      29.702  18.053   9.203  0.00  0.00     0.207 A 
HETATM    6  C   UNK N   1      32.154  17.506   7.136  0.00  0.00    -0.033 A 
HETATM    7  C   UNK N   1      30.222  17.268   5.674  0.00  0.00     0.036 A 
HETATM    8  C   UNK N   1      30.771  17.521   6.945  0.00  0.00     0.065 A 
HETATM    9  C   UNK N   1      28.579  17.718   7.440  0.00  0.00     0.172 A 
HETATM   10  N   UNK N   1      28.379  18.173   9.508  0.00  0.00    -0.294 N 
ATOM     11  HN  UNK N   1      27.993  18.387  10.427  1.00  0.00     0.187 HD
HETATM   12  N   UNK N   1      27.676  17.961   8.394  0.00  0.00    -0.278 N 
ATOM     13  HN  UNK N   1      26.661  17.980   8.292  1.00  0.00     0.189 HD
HETATM   14  N   UNK N   1      29.818  17.766   7.900  0.00  0.00    -0.284 N 
HETATM   15  S   UNK N   1      28.555  17.369   5.824  0.00  0.00    -0.050 SA
ENDROOT
TORSDOF 0
ENDMDL
MODEL 9
REMARK VINA RESULT:      -5.0     11.247     12.640
REMARK  0 active torsions:
REMARK  status: ('A' for Active; 'I' for Inactive)
ROOT
HETATM    1  C   UNK N   1      29.485  17.442   7.601  0.00  0.00     0.050 C 
HETATM    2  C   UNK N   1      33.272  17.629   8.038  0.00  0.00     0.002 A 
HETATM    3  C   UNK N   1      31.886  17.614   8.320  0.00  0.00     0.009 A 
HETATM    4  C   UNK N   1      33.740  17.487   6.721  0.00  0.00     0.021 A 
HETATM    5  C   UNK N   1      29.375  17.060   4.467  0.00  0.00     0.207 A 
HETATM    6  C   UNK N   1      30.942  17.456   7.290  0.00  0.00    -0.033 A 
HETATM    7  C   UNK N   1      32.797  17.332   5.717  0.00  0.00     0.036 A 
HETATM    8  C   UNK N   1      31.414  17.315   5.983  0.00  0.00     0.065 A 
HETATM    9  C   UNK N   1      31.365  17.043   3.745  0.00  0.00     0.172 A 
HETATM   10  N   UNK N   1      29.340  16.895   3.114  0.00  0.00    -0.294 N 
ATOM     11  HN  UNK N   1      28.500  16.797   2.545  1.00  0.00     0.187 HD
HETATM   12  N   UNK N   1      30.596  16.885   2.664  0.00  0.00    -0.278 N 
ATOM     13  HN  UNK N   1      30.905  16.780   1.698  1.00  0.00     0.189 HD
HETATM   14  N   UNK N   1      30.654  17.152   4.854  0.00  0.00    -0.284 N 
HETATM   15  S   UNK N   1      32.985  17.139   4.062  0.00  0.00    -0.050 SA
ENDROOT
TORSDOF 0
ENDMDL
