REMARK  11 active torsions:
REMARK  status: ('A' for Active; 'I' for Inactive)
REMARK    1  A    between atoms: C_20  and  C_7 
REMARK    2  A    between atoms: C_21  and  C_8 
REMARK    3  A    between atoms: C_11  and  C_9 
REMARK    4  A    between atoms: C_22  and  C_9 
REMARK    5  A    between atoms: C_12  and  C_10 
REMARK    6  A    between atoms: C_23  and  C_10 
REMARK    7  A    between atoms: C_30  and  C_11 
REMARK    8  A    between atoms: C_31  and  C_12 
REMARK    9  A    between atoms: O_39  and  C_30 
REMARK   10  A    between atoms: O_41  and  C_31 
REMARK   11  A    between atoms: O_43  and  C_34 
ROOT
HETATM    1  C   UNK N   1       1.238   1.311  -1.619  0.00  0.00     0.017 A 
HETATM    2  C   UNK N   1      -5.162   1.838   0.266  0.00  0.00     0.051 C 
HETATM    3  C   UNK N   1       5.791  -1.377   0.563  0.00  0.00     0.052 C 
HETATM    4  C   UNK N   1       1.730  -5.019  -0.325  0.00  0.00     0.051 C 
HETATM    5  C   UNK N   1      -2.226   2.595   0.345  0.00  0.00     0.057 C 
HETATM    6  C   UNK N   1       2.878   2.730  -0.231  0.00  0.00     0.028 C 
HETATM    7  C   UNK N   1      -2.230  -2.019  -0.513  0.00  0.00     0.064 C 
HETATM    8  C   UNK N   1       1.148   2.132  -0.032  0.00  0.00     0.040 A 
HETATM    9  C   UNK N   1      -3.976   0.945   0.093  0.00  0.00    -0.025 A 
HETATM   10  C   UNK N   1       4.611  -0.470   0.415  0.00  0.00    -0.018 A 
HETATM   11  C   UNK N   1       0.903  -3.775  -0.344  0.00  0.00    -0.022 A 
HETATM   12  C   UNK N   1       0.063   2.188   0.963  0.00  0.00    -0.030 A 
HETATM   13  C   UNK N   1       4.674   0.928   0.286  0.00  0.00    -0.000 A 
HETATM   14  C   UNK N   1      -3.969  -0.415  -0.169  0.00  0.00    -0.021 A 
HETATM   15  C   UNK N   1      -0.447  -3.740  -0.569  0.00  0.00    -0.021 A 
HETATM   16  C   UNK N   1       1.276   3.092  -0.551  0.00  0.00     0.114 C 
HETATM   17  C   UNK N   1      -2.652   1.335   0.138  0.00  0.00     0.065 A 
HETATM   18  C   UNK N   1      -0.790   2.862   0.332  0.00  0.00     0.035 C 
HETATM   19  C   UNK N   1       3.383   1.348   0.091  0.00  0.00     0.066 A 
HETATM   20  C   UNK N   1      -2.641  -0.788  -0.264  0.00  0.00     0.066 A 
HETATM   21  C   UNK N   1      -0.831  -2.426  -0.487  0.00  0.00     0.066 A 
HETATM   22  C   UNK N   1       3.260  -0.859   0.269  0.00  0.00     0.099 A 
HETATM   23  C   UNK N   1       1.320  -2.457  -0.144  0.00  0.00     0.099 A 
HETATM   24  C   UNK N   1       2.773  -2.113   0.167  0.00  0.00     0.124 A 
HETATM   25  N   UNK N   1      -0.111   3.019  -0.740  0.00  0.00    -0.201 NA
HETATM   26  N   UNK N   1      -1.828   0.263  -0.069  0.00  0.00    -0.248 N 
HETATM   27  N   UNK N   1       2.499   0.221   0.154  0.00  0.00    -0.245 N 
HETATM   28  N   UNK N   1       0.233  -1.615  -0.281  0.00  0.00    -0.245 N 
HETATM   29 Zn   UNK N   1       0.144   0.330  -0.156  0.00  0.00     0.000 Zn
ENDROOT
BRANCH  14  30
HETATM   30  C   UNK N   1      -5.115  -1.372  -0.330  0.00  0.00     0.052 C 
BRANCH  30  31
HETATM   31  C   UNK N   1      -6.447  -0.870   0.183  0.00  0.00     0.115 C 
BRANCH  31  32
HETATM   32  C   UNK N   1      -7.485  -1.891  -0.129  0.00  0.00     0.139 C 
HETATM   33  O   UNK N   1      -8.403  -1.611  -0.880  0.00  0.00    -0.650 OA
BRANCH  32  34
HETATM   34  O   UNK N   1      -7.401  -3.128   0.399  0.00  0.00    -0.776 OA
HETATM   35  H   UNK N   1      -8.116  -3.609   0.766  0.00  0.00     0.167 HD
ENDBRANCH  32  34
ENDBRANCH  31  32
ENDBRANCH  30  31
ENDBRANCH  14  30
BRANCH  15  36
HETATM   36  C   UNK N   1      -1.357  -4.894  -0.850  0.00  0.00     0.052 C 
BRANCH  36  37
HETATM   37  C   UNK N   1      -1.524  -5.807   0.352  0.00  0.00     0.115 C 
BRANCH  37  38
HETATM   38  C   UNK N   1      -2.973  -6.052   0.666  0.00  0.00     0.139 C 
HETATM   39  O   UNK N   1      -3.858  -5.480   0.046  0.00  0.00    -0.650 OA
BRANCH  38  40
HETATM   40  O   UNK N   1      -3.300  -6.908   1.650  0.00  0.00    -0.776 OA
HETATM   41  H   UNK N   1      -3.930  -7.010   2.336  0.00  0.00     0.167 HD
ENDBRANCH  38  40
ENDBRANCH  37  38
ENDBRANCH  36  37
ENDBRANCH  15  36
BRANCH  12  42
HETATM   42  C   UNK N   1      -0.214   1.306   2.128  0.00  0.00    -0.001 C 
HETATM   43  C   UNK N   1       0.685   0.447   2.597  0.00  0.00     0.012 C 
ENDBRANCH  12  42
BRANCH  24  44
HETATM   44  O   UNK N   1       3.645  -3.136   0.280  0.00  0.00    -0.356 OA
HETATM   45  H   UNK N   1       3.332  -4.016   0.358  0.00  0.00     0.218 HD
ENDBRANCH  24  44
BRANCH  13  46
HETATM   46  C   UNK N   1       5.855   1.813   0.261  0.00  0.00     0.004 C 
HETATM   47  C   UNK N   1       7.101   1.353   0.353  0.00  0.00     0.012 C 
ENDBRANCH  13  46
TORSDOF 11
