MODEL 1
REMARK VINA RESULT:      -5.4      0.000      0.000
REMARK  4 active torsions:
REMARK  status: ('A' for Active; 'I' for Inactive)
REMARK    1  A    between atoms: O_1  and  C_2 
REMARK    2  A    between atoms: C_2  and  C_4 
REMARK    3  A    between atoms: C_9  and  C_10 
REMARK    4  A    between atoms: C_10  and  O_11 
ROOT
HETATM    1  C   UNK N   1      22.075  12.591  10.540  0.00  0.00     0.054 A 
HETATM    2  C   UNK N   1      22.347  12.940   9.200  0.00  0.00     0.019 A 
HETATM    3  C   UNK N   1      23.640  12.977   8.691  0.00  0.00     0.001 A 
HETATM    4  C   UNK N   1      24.712  12.665   9.511  0.00  0.00     0.001 A 
HETATM    5  C   UNK N   1      24.489  12.316  10.837  0.00  0.00     0.019 A 
HETATM    6  C   UNK N   1      23.196  12.265  11.396  0.00  0.00     0.054 A 
ENDROOT
BRANCH   1   7
HETATM    7  C   UNK N   1      20.618  12.606  10.909  0.00  0.00     0.177 C 
HETATM    8  O   UNK N   1      19.861  13.355  10.309  0.00  0.00    -0.646 OA
BRANCH   7   9
HETATM    9  O   UNK N   1      20.102  11.831  11.871  0.00  0.00    -0.773 OA
HETATM   10  H   UNK N   1      20.616  11.614  12.622  0.00  0.00     0.167 HD
ENDBRANCH   7   9
ENDBRANCH   1   7
BRANCH   6  11
HETATM   11  C   UNK N   1      23.159  11.868  12.844  0.00  0.00     0.177 C 
HETATM   12  O   UNK N   1      23.947  12.387  13.622  0.00  0.00    -0.646 OA
BRANCH  11  13
HETATM   13  O   UNK N   1      22.300  10.965  13.334  0.00  0.00    -0.773 OA
HETATM   14  H   UNK N   1      22.116  10.943  14.252  0.00  0.00     0.167 HD
ENDBRANCH  11  13
ENDBRANCH   6  11
TORSDOF 4
ENDMDL
MODEL 2
REMARK VINA RESULT:      -5.3     10.356     11.982
REMARK  4 active torsions:
REMARK  status: ('A' for Active; 'I' for Inactive)
REMARK    1  A    between atoms: O_1  and  C_2 
REMARK    2  A    between atoms: C_2  and  C_4 
REMARK    3  A    between atoms: C_9  and  C_10 
REMARK    4  A    between atoms: C_10  and  O_11 
ROOT
HETATM    1  C   UNK N   1      31.845  17.518   7.505  0.00  0.00     0.054 A 
HETATM    2  C   UNK N   1      31.121  17.177   6.343  0.00  0.00     0.019 A 
HETATM    3  C   UNK N   1      31.734  17.028   5.104  0.00  0.00     0.001 A 
HETATM    4  C   UNK N   1      33.101  17.216   4.985  0.00  0.00     0.001 A 
HETATM    5  C   UNK N   1      33.852  17.553   6.104  0.00  0.00     0.019 A 
HETATM    6  C   UNK N   1      33.273  17.714   7.379  0.00  0.00     0.054 A 
ENDROOT
BRANCH   1   7
HETATM    7  C   UNK N   1      31.013  17.634   8.750  0.00  0.00     0.177 C 
HETATM    8  O   UNK N   1      30.524  18.716   9.040  0.00  0.00    -0.646 OA
BRANCH   7   9
HETATM    9  O   UNK N   1      30.776  16.600   9.568  0.00  0.00    -0.773 OA
HETATM   10  H   UNK N   1      31.327  15.844   9.537  0.00  0.00     0.167 HD
ENDBRANCH   7   9
ENDBRANCH   1   7
BRANCH   6  11
HETATM   11  C   UNK N   1      34.248  18.078   8.463  0.00  0.00     0.177 C 
HETATM   12  O   UNK N   1      34.985  19.039   8.299  0.00  0.00    -0.646 OA
BRANCH  11  13
HETATM   13  O   UNK N   1      34.353  17.398   9.612  0.00  0.00    -0.773 OA
HETATM   14  H   UNK N   1      33.838  17.649  10.354  0.00  0.00     0.167 HD
ENDBRANCH  11  13
ENDBRANCH   6  11
TORSDOF 4
ENDMDL
MODEL 3
REMARK VINA RESULT:      -5.2     10.353     12.241
REMARK  4 active torsions:
REMARK  status: ('A' for Active; 'I' for Inactive)
REMARK    1  A    between atoms: O_1  and  C_2 
REMARK    2  A    between atoms: C_2  and  C_4 
REMARK    3  A    between atoms: C_9  and  C_10 
REMARK    4  A    between atoms: C_10  and  O_11 
ROOT
HETATM    1  C   UNK N   1      33.275  17.711   7.378  0.00  0.00     0.054 A 
HETATM    2  C   UNK N   1      33.851  17.550   6.100  0.00  0.00     0.019 A 
HETATM    3  C   UNK N   1      33.096  17.212   4.983  0.00  0.00     0.001 A 
HETATM    4  C   UNK N   1      31.730  17.022   5.107  0.00  0.00     0.001 A 
HETATM    5  C   UNK N   1      31.122  17.171   6.347  0.00  0.00     0.019 A 
HETATM    6  C   UNK N   1      31.847  17.512   7.506  0.00  0.00     0.054 A 
ENDROOT
BRANCH   1   7
HETATM    7  C   UNK N   1      34.248  18.076   8.463  0.00  0.00     0.177 C 
HETATM    8  O   UNK N   1      34.985  19.038   8.301  0.00  0.00    -0.646 OA
BRANCH   7   9
HETATM    9  O   UNK N   1      34.349  17.395   9.611  0.00  0.00    -0.773 OA
HETATM   10  H   UNK N   1      33.590  16.996   9.986  0.00  0.00     0.167 HD
ENDBRANCH   7   9
ENDBRANCH   1   7
BRANCH   6  11
HETATM   11  C   UNK N   1      31.013  17.626   8.751  0.00  0.00     0.177 C 
HETATM   12  O   UNK N   1      30.518  18.707   9.036  0.00  0.00    -0.646 OA
BRANCH  11  13
HETATM   13  O   UNK N   1      30.782  16.596   9.574  0.00  0.00    -0.773 OA
HETATM   14  H   UNK N   1      30.241  16.712  10.330  0.00  0.00     0.167 HD
ENDBRANCH  11  13
ENDBRANCH   6  11
TORSDOF 4
ENDMDL
MODEL 4
REMARK VINA RESULT:      -5.2      9.760     11.469
REMARK  4 active torsions:
REMARK  status: ('A' for Active; 'I' for Inactive)
REMARK    1  A    between atoms: O_1  and  C_2 
REMARK    2  A    between atoms: C_2  and  C_4 
REMARK    3  A    between atoms: C_9  and  C_10 
REMARK    4  A    between atoms: C_10  and  O_11 
ROOT
HETATM    1  C   UNK N   1      20.922  19.439   2.309  0.00  0.00     0.054 A 
HETATM    2  C   UNK N   1      19.816  18.584   2.496  0.00  0.00     0.019 A 
HETATM    3  C   UNK N   1      19.775  17.634   3.511  0.00  0.00     0.001 A 
HETATM    4  C   UNK N   1      20.847  17.508   4.379  0.00  0.00     0.001 A 
HETATM    5  C   UNK N   1      21.957  18.330   4.231  0.00  0.00     0.019 A 
HETATM    6  C   UNK N   1      22.042  19.305   3.217  0.00  0.00     0.054 A 
ENDROOT
BRANCH   1   7
HETATM    7  C   UNK N   1      20.786  20.399   1.162  0.00  0.00     0.177 C 
HETATM    8  O   UNK N   1      20.809  21.601   1.386  0.00  0.00    -0.646 OA
BRANCH   7   9
HETATM    9  O   UNK N   1      20.639  20.001  -0.108  0.00  0.00    -0.773 OA
HETATM   10  H   UNK N   1      21.270  19.428  -0.494  0.00  0.00     0.167 HD
ENDBRANCH   7   9
ENDBRANCH   1   7
BRANCH   6  11
HETATM   11  C   UNK N   1      23.320  20.095   3.219  0.00  0.00     0.177 C 
HETATM   12  O   UNK N   1      24.370  19.523   3.474  0.00  0.00    -0.646 OA
BRANCH  11  13
HETATM   13  O   UNK N   1      23.371  21.407   2.954  0.00  0.00    -0.773 OA
HETATM   14  H   UNK N   1      22.804  21.776   2.307  0.00  0.00     0.167 HD
ENDBRANCH  11  13
ENDBRANCH   6  11
TORSDOF 4
ENDMDL
MODEL 5
REMARK VINA RESULT:      -5.2     19.112     20.035
REMARK  4 active torsions:
REMARK  status: ('A' for Active; 'I' for Inactive)
REMARK    1  A    between atoms: O_1  and  C_2 
REMARK    2  A    between atoms: C_2  and  C_4 
REMARK    3  A    between atoms: C_9  and  C_10 
REMARK    4  A    between atoms: C_10  and  O_11 
ROOT
HETATM    1  C   UNK N   1      31.759  21.390  -4.066  0.00  0.00     0.054 A 
HETATM    2  C   UNK N   1      31.660  20.572  -5.212  0.00  0.00     0.019 A 
HETATM    3  C   UNK N   1      30.613  20.688  -6.119  0.00  0.00     0.001 A 
HETATM    4  C   UNK N   1      29.623  21.634  -5.909  0.00  0.00     0.001 A 
HETATM    5  C   UNK N   1      29.682  22.460  -4.794  0.00  0.00     0.019 A 
HETATM    6  C   UNK N   1      30.723  22.378  -3.849  0.00  0.00     0.054 A 
ENDROOT
BRANCH   1   7
HETATM    7  C   UNK N   1      32.958  21.119  -3.203  0.00  0.00     0.177 C 
HETATM    8  O   UNK N   1      34.040  20.916  -3.735  0.00  0.00    -0.646 OA
BRANCH   7   9
HETATM    9  O   UNK N   1      32.902  21.086  -1.866  0.00  0.00    -0.773 OA
HETATM   10  H   UNK N   1      32.968  20.269  -1.415  0.00  0.00     0.167 HD
ENDBRANCH   7   9
ENDBRANCH   1   7
BRANCH   6  11
HETATM   11  C   UNK N   1      30.612  23.354  -2.713  0.00  0.00     0.177 C 
HETATM   12  O   UNK N   1      30.617  24.552  -2.959  0.00  0.00    -0.646 OA
BRANCH  11  13
HETATM   13  O   UNK N   1      30.506  22.979  -1.432  0.00  0.00    -0.773 OA
HETATM   14  H   UNK N   1      30.986  23.434  -0.769  0.00  0.00     0.167 HD
ENDBRANCH  11  13
ENDBRANCH   6  11
TORSDOF 4
ENDMDL
MODEL 6
REMARK VINA RESULT:      -5.2      9.862     11.543
REMARK  4 active torsions:
REMARK  status: ('A' for Active; 'I' for Inactive)
REMARK    1  A    between atoms: O_1  and  C_2 
REMARK    2  A    between atoms: C_2  and  C_4 
REMARK    3  A    between atoms: C_9  and  C_10 
REMARK    4  A    between atoms: C_10  and  O_11 
ROOT
HETATM    1  C   UNK N   1      20.823  19.081   2.372  0.00  0.00     0.054 A 
HETATM    2  C   UNK N   1      21.226  19.537   3.645  0.00  0.00     0.019 A 
HETATM    3  C   UNK N   1      21.286  18.696   4.750  0.00  0.00     0.001 A 
HETATM    4  C   UNK N   1      20.942  17.361   4.618  0.00  0.00     0.001 A 
HETATM    5  C   UNK N   1      20.540  16.870   3.382  0.00  0.00     0.019 A 
HETATM    6  C   UNK N   1      20.465  17.685   2.235  0.00  0.00     0.054 A 
ENDROOT
BRANCH   1   7
HETATM    7  C   UNK N   1      20.821  20.134   1.300  0.00  0.00     0.177 C 
HETATM    8  O   UNK N   1      21.034  21.298   1.610  0.00  0.00    -0.646 OA
BRANCH   7   9
HETATM    9  O   UNK N   1      20.594  19.860   0.010  0.00  0.00    -0.773 OA
HETATM   10  H   UNK N   1      21.039  20.345  -0.656  0.00  0.00     0.167 HD
ENDBRANCH   7   9
ENDBRANCH   1   7
BRANCH   6  11
HETATM   11  C   UNK N   1      20.009  16.973   0.994  0.00  0.00     0.177 C 
HETATM   12  O   UNK N   1      20.736  16.125   0.496  0.00  0.00    -0.646 OA
BRANCH  11  13
HETATM   13  O   UNK N   1      18.837  17.220   0.396  0.00  0.00    -0.773 OA
HETATM   14  H   UNK N   1      18.274  16.511   0.156  0.00  0.00     0.167 HD
ENDBRANCH  11  13
ENDBRANCH   6  11
TORSDOF 4
ENDMDL
MODEL 7
REMARK VINA RESULT:      -5.2     19.121     19.895
REMARK  4 active torsions:
REMARK  status: ('A' for Active; 'I' for Inactive)
REMARK    1  A    between atoms: O_1  and  C_2 
REMARK    2  A    between atoms: C_2  and  C_4 
REMARK    3  A    between atoms: C_9  and  C_10 
REMARK    4  A    between atoms: C_10  and  O_11 
ROOT
HETATM    1  C   UNK N   1      30.740  22.372  -3.857  0.00  0.00     0.054 A 
HETATM    2  C   UNK N   1      29.704  22.449  -4.812  0.00  0.00     0.019 A 
HETATM    3  C   UNK N   1      29.656  21.618  -5.924  0.00  0.00     0.001 A 
HETATM    4  C   UNK N   1      30.651  20.674  -6.121  0.00  0.00     0.001 A 
HETATM    5  C   UNK N   1      31.690  20.564  -5.205  0.00  0.00     0.019 A 
HETATM    6  C   UNK N   1      31.778  21.385  -4.064  0.00  0.00     0.054 A 
ENDROOT
BRANCH   1   7
HETATM    7  C   UNK N   1      30.623  23.351  -2.724  0.00  0.00     0.177 C 
HETATM    8  O   UNK N   1      30.629  24.549  -2.969  0.00  0.00    -0.646 OA
BRANCH   7   9
HETATM    9  O   UNK N   1      30.510  22.975  -1.444  0.00  0.00    -0.773 OA
HETATM   10  H   UNK N   1      31.046  22.283  -1.111  0.00  0.00     0.167 HD
ENDBRANCH   7   9
ENDBRANCH   1   7
BRANCH   6  11
HETATM   11  C   UNK N   1      32.973  21.115  -3.194  0.00  0.00     0.177 C 
HETATM   12  O   UNK N   1      34.054  20.898  -3.722  0.00  0.00    -0.646 OA
BRANCH  11  13
HETATM   13  O   UNK N   1      32.917  21.099  -1.856  0.00  0.00    -0.773 OA
HETATM   14  H   UNK N   1      32.690  20.310  -1.406  0.00  0.00     0.167 HD
ENDBRANCH  11  13
ENDBRANCH   6  11
TORSDOF 4
ENDMDL
MODEL 8
REMARK VINA RESULT:      -5.1      8.743     10.178
REMARK  4 active torsions:
REMARK  status: ('A' for Active; 'I' for Inactive)
REMARK    1  A    between atoms: O_1  and  C_2 
REMARK    2  A    between atoms: C_2  and  C_4 
REMARK    3  A    between atoms: C_9  and  C_10 
REMARK    4  A    between atoms: C_10  and  O_11 
ROOT
HETATM    1  C   UNK N   1      28.377  18.658   7.180  0.00  0.00     0.054 A 
HETATM    2  C   UNK N   1      29.086  17.660   6.477  0.00  0.00     0.019 A 
HETATM    3  C   UNK N   1      29.119  17.611   5.089  0.00  0.00     0.001 A 
HETATM    4  C   UNK N   1      28.438  18.565   4.350  0.00  0.00     0.001 A 
HETATM    5  C   UNK N   1      27.727  19.565   5.002  0.00  0.00     0.019 A 
HETATM    6  C   UNK N   1      27.666  19.654   6.407  0.00  0.00     0.054 A 
ENDROOT
BRANCH   1   7
HETATM    7  C   UNK N   1      28.457  18.549   8.676  0.00  0.00     0.177 C 
HETATM    8  O   UNK N   1      29.527  18.756   9.231  0.00  0.00    -0.646 OA
BRANCH   7   9
HETATM    9  O   UNK N   1      27.405  18.232   9.441  0.00  0.00    -0.773 OA
HETATM   10  H   UNK N   1      26.954  17.424   9.304  0.00  0.00     0.167 HD
ENDBRANCH   7   9
ENDBRANCH   1   7
BRANCH   6  11
HETATM   11  C   UNK N   1      26.849  20.804   6.923  0.00  0.00     0.177 C 
HETATM   12  O   UNK N   1      26.868  21.865   6.316  0.00  0.00    -0.646 OA
BRANCH  11  13
HETATM   13  O   UNK N   1      26.091  20.727   8.025  0.00  0.00    -0.773 OA
HETATM   14  H   UNK N   1      26.136  21.402   8.672  0.00  0.00     0.167 HD
ENDBRANCH  11  13
ENDBRANCH   6  11
TORSDOF 4
ENDMDL
MODEL 9
REMARK VINA RESULT:      -5.1      2.202      3.825
REMARK  4 active torsions:
REMARK  status: ('A' for Active; 'I' for Inactive)
REMARK    1  A    between atoms: O_1  and  C_2 
REMARK    2  A    between atoms: C_2  and  C_4 
REMARK    3  A    between atoms: C_9  and  C_10 
REMARK    4  A    between atoms: C_10  and  O_11 
ROOT
HETATM    1  C   UNK N   1      22.812  12.556  11.005  0.00  0.00     0.054 A 
HETATM    2  C   UNK N   1      21.409  12.504  11.152  0.00  0.00     0.019 A 
HETATM    3  C   UNK N   1      20.544  13.015  10.192  0.00  0.00     0.001 A 
HETATM    4  C   UNK N   1      21.055  13.598   9.044  0.00  0.00     0.001 A 
HETATM    5  C   UNK N   1      22.430  13.670   8.860  0.00  0.00     0.019 A 
HETATM    6  C   UNK N   1      23.345  13.165   9.806  0.00  0.00     0.054 A 
ENDROOT
BRANCH   1   7
HETATM    7  C   UNK N   1      23.584  11.954  12.145  0.00  0.00     0.177 C 
HETATM    8  O   UNK N   1      22.988  11.637  13.165  0.00  0.00    -0.646 OA
BRANCH   7   9
HETATM    9  O   UNK N   1      24.905  11.745  12.101  0.00  0.00    -0.773 OA
HETATM   10  H   UNK N   1      25.361  11.469  12.870  0.00  0.00     0.167 HD
ENDBRANCH   7   9
ENDBRANCH   1   7
BRANCH   6  11
HETATM   11  C   UNK N   1      24.789  13.336   9.428  0.00  0.00     0.177 C 
HETATM   12  O   UNK N   1      25.125  13.142   8.268  0.00  0.00    -0.646 OA
BRANCH  11  13
HETATM   13  O   UNK N   1      25.738  13.692  10.303  0.00  0.00    -0.773 OA
HETATM   14  H   UNK N   1      26.445  14.241  10.029  0.00  0.00     0.167 HD
ENDBRANCH  11  13
ENDBRANCH   6  11
TORSDOF 4
ENDMDL
