MODEL 1
REMARK VINA RESULT:      -6.0      0.000      0.000
REMARK  9 active torsions:
REMARK  status: ('A' for Active; 'I' for Inactive)
REMARK    1  A    between atoms: C_2  and  C_1 
REMARK    2  A    between atoms: O_14  and  C_1 
REMARK    3  A    between atoms: C_3  and  O_7 
REMARK    4  A    between atoms: C_4  and  O_8 
REMARK    5  A    between atoms: C_5  and  O_9 
REMARK    6  A    between atoms: C_6  and  O_10 
REMARK    7  A    between atoms: P_16  and  O_11 
REMARK    8  A    between atoms: P_16  and  O_12 
REMARK    9  A    between atoms: P_16  and  O_14 
ROOT
HETATM    1  C   UNK N   1      20.403  18.926   3.822  0.00  0.00     0.180 C 
HETATM    2  C   UNK N   1      19.818  18.358   2.508  0.00  0.00     0.180 C 
HETATM    3  C   UNK N   1      20.762  18.668   1.334  0.00  0.00     0.183 C 
HETATM    4  C   UNK N   1      21.081  20.172   1.300  0.00  0.00     0.204 C 
HETATM    5  C   UNK N   1      21.641  20.575   2.673  0.00  0.00     0.288 C 
HETATM    6  O   UNK N   1      20.699  20.315   3.705  0.00  0.00    -0.349 OA
ENDROOT
BRANCH   1   7
HETATM    7  C   UNK N   1      21.616  18.149   4.363  0.00  0.00     0.215 C 
BRANCH   7   8
HETATM    8  O   UNK N   1      21.813  18.387   5.734  0.00  0.00    -0.294 OA
BRANCH   8   9
HETATM    9  P   UNK N   1      20.744  17.275   6.552  0.00  0.00     0.390 P 
HETATM   10  O   UNK N   1      22.120  16.566   6.677  0.00  0.00    -0.632 OA
BRANCH   9  11
HETATM   11  O   UNK N   1      20.868  16.980   8.258  0.00  0.00    -0.307 OA
HETATM   12  H   UNK N   1      21.282  16.177   8.608  0.00  0.00     0.222 HD
ENDBRANCH   9  11
BRANCH   9  13
HETATM   13  O   UNK N   1      20.784  18.768   7.439  0.00  0.00    -0.307 OA
HETATM   14  H   UNK N   1      21.102  19.660   7.649  0.00  0.00     0.222 HD
ENDBRANCH   9  13
ENDBRANCH   8   9
ENDBRANCH   7   8
ENDBRANCH   1   7
BRANCH   2  15
HETATM   15  O   UNK N   1      18.569  18.945   2.279  0.00  0.00    -0.390 OA
HETATM   16  H   UNK N   1      17.873  19.032   1.609  0.00  0.00     0.210 HD
ENDBRANCH   2  15
BRANCH   3  17
HETATM   17  O   UNK N   1      20.192  18.263   0.124  0.00  0.00    -0.390 OA
HETATM   18  H   UNK N   1      20.658  17.713  -0.524  0.00  0.00     0.210 HD
ENDBRANCH   3  17
BRANCH   5  19
HETATM   19  O   UNK N   1      21.934  21.940   2.668  0.00  0.00    -0.369 OA
HETATM   20  H   UNK N   1      22.536  22.432   3.248  0.00  0.00     0.212 HD
ENDBRANCH   5  19
BRANCH   4  21
HETATM   21  O   UNK N   1      19.930  20.918   1.022  0.00  0.00    -0.388 OA
HETATM   22  H   UNK N   1      19.219  21.037   0.373  0.00  0.00     0.210 HD
ENDBRANCH   4  21
TORSDOF 9
ENDMDL
MODEL 2
REMARK VINA RESULT:      -5.3     14.422     16.942
REMARK  9 active torsions:
REMARK  status: ('A' for Active; 'I' for Inactive)
REMARK    1  A    between atoms: C_2  and  C_1 
REMARK    2  A    between atoms: O_14  and  C_1 
REMARK    3  A    between atoms: C_3  and  O_7 
REMARK    4  A    between atoms: C_4  and  O_8 
REMARK    5  A    between atoms: C_5  and  O_9 
REMARK    6  A    between atoms: C_6  and  O_10 
REMARK    7  A    between atoms: P_16  and  O_11 
REMARK    8  A    between atoms: P_16  and  O_12 
REMARK    9  A    between atoms: P_16  and  O_14 
ROOT
HETATM    1  C   UNK N   1      34.948  14.802  10.307  0.00  0.00     0.180 C 
HETATM    2  C   UNK N   1      36.492  14.873  10.251  0.00  0.00     0.180 C 
HETATM    3  C   UNK N   1      37.099  13.581  10.824  0.00  0.00     0.183 C 
HETATM    4  C   UNK N   1      36.517  13.301  12.219  0.00  0.00     0.204 C 
HETATM    5  C   UNK N   1      34.985  13.271  12.102  0.00  0.00     0.288 C 
HETATM    6  O   UNK N   1      34.485  14.512  11.623  0.00  0.00    -0.349 OA
ENDROOT
BRANCH   1   7
HETATM    7  C   UNK N   1      34.320  13.844   9.279  0.00  0.00     0.215 C 
BRANCH   7   8
HETATM    8  O   UNK N   1      32.925  13.997   9.216  0.00  0.00    -0.294 OA
BRANCH   8   9
HETATM    9  P   UNK N   1      32.663  15.679   8.826  0.00  0.00     0.390 P 
HETATM   10  O   UNK N   1      32.042  14.953   7.602  0.00  0.00    -0.632 OA
BRANCH   9  11
HETATM   11  O   UNK N   1      31.068  16.358   8.749  0.00  0.00    -0.307 OA
HETATM   12  H   UNK N   1      30.374  16.103   9.376  0.00  0.00     0.222 HD
ENDBRANCH   9  11
BRANCH   9  13
HETATM   13  O   UNK N   1      31.750  15.285  10.251  0.00  0.00    -0.307 OA
HETATM   14  H   UNK N   1      30.955  15.250  10.806  0.00  0.00     0.222 HD
ENDBRANCH   9  13
ENDBRANCH   8   9
ENDBRANCH   7   8
ENDBRANCH   1   7
BRANCH   2  15
HETATM   15  O   UNK N   1      36.921  15.972  11.004  0.00  0.00    -0.390 OA
HETATM   16  H   UNK N   1      36.977  16.939  10.986  0.00  0.00     0.210 HD
ENDBRANCH   2  15
BRANCH   3  17
HETATM   17  O   UNK N   1      38.492  13.679  10.886  0.00  0.00    -0.390 OA
HETATM   18  H   UNK N   1      38.956  14.499  11.113  0.00  0.00     0.210 HD
ENDBRANCH   3  17
BRANCH   5  19
HETATM   19  O   UNK N   1      34.433  13.023  13.361  0.00  0.00    -0.369 OA
HETATM   20  H   UNK N   1      34.655  13.436  14.210  0.00  0.00     0.212 HD
ENDBRANCH   5  19
BRANCH   4  21
HETATM   21  O   UNK N   1      36.903  14.294  13.127  0.00  0.00    -0.388 OA
HETATM   22  H   UNK N   1      37.418  14.451  13.934  0.00  0.00     0.210 HD
ENDBRANCH   4  21
TORSDOF 9
ENDMDL
MODEL 3
REMARK VINA RESULT:      -5.2     15.005     17.337
REMARK  9 active torsions:
REMARK  status: ('A' for Active; 'I' for Inactive)
REMARK    1  A    between atoms: C_2  and  C_1 
REMARK    2  A    between atoms: O_14  and  C_1 
REMARK    3  A    between atoms: C_3  and  O_7 
REMARK    4  A    between atoms: C_4  and  O_8 
REMARK    5  A    between atoms: C_5  and  O_9 
REMARK    6  A    between atoms: C_6  and  O_10 
REMARK    7  A    between atoms: P_16  and  O_11 
REMARK    8  A    between atoms: P_16  and  O_12 
REMARK    9  A    between atoms: P_16  and  O_14 
ROOT
HETATM    1  C   UNK N   1      36.125  15.639  10.862  0.00  0.00     0.180 C 
HETATM    2  C   UNK N   1      36.912  14.694   9.924  0.00  0.00     0.180 C 
HETATM    3  C   UNK N   1      36.081  13.434   9.628  0.00  0.00     0.183 C 
HETATM    4  C   UNK N   1      35.613  12.793  10.944  0.00  0.00     0.204 C 
HETATM    5  C   UNK N   1      34.861  13.858  11.757  0.00  0.00     0.288 C 
HETATM    6  O   UNK N   1      35.702  14.967  12.045  0.00  0.00    -0.349 OA
ENDROOT
BRANCH   1   7
HETATM    7  C   UNK N   1      34.946  16.363  10.188  0.00  0.00     0.215 C 
BRANCH   7   8
HETATM    8  O   UNK N   1      35.365  17.528   9.526  0.00  0.00    -0.294 OA
BRANCH   8   9
HETATM    9  P   UNK N   1      34.081  17.907   8.405  0.00  0.00     0.390 P 
HETATM   10  O   UNK N   1      34.985  19.166   8.312  0.00  0.00    -0.632 OA
BRANCH   9  11
HETATM   11  O   UNK N   1      34.372  18.043   6.699  0.00  0.00    -0.307 OA
HETATM   12  H   UNK N   1      34.711  17.298   6.178  0.00  0.00     0.222 HD
ENDBRANCH   9  11
BRANCH   9  13
HETATM   13  O   UNK N   1      34.955  16.527   7.811  0.00  0.00    -0.307 OA
HETATM   14  H   UNK N   1      35.061  15.602   7.539  0.00  0.00     0.222 HD
ENDBRANCH   9  13
ENDBRANCH   8   9
ENDBRANCH   7   8
ENDBRANCH   1   7
BRANCH   2  15
HETATM   15  O   UNK N   1      38.111  14.333  10.549  0.00  0.00    -0.390 OA
HETATM   16  H   UNK N   1      38.951  14.699  10.867  0.00  0.00     0.210 HD
ENDBRANCH   2  15
BRANCH   3  17
HETATM   17  O   UNK N   1      36.825  12.520   8.876  0.00  0.00    -0.390 OA
HETATM   18  H   UNK N   1      37.739  12.278   9.090  0.00  0.00     0.210 HD
ENDBRANCH   3  17
BRANCH   5  19
HETATM   19  O   UNK N   1      34.430  13.298  12.962  0.00  0.00    -0.369 OA
HETATM   20  H   UNK N   1      33.664  12.725  13.122  0.00  0.00     0.212 HD
ENDBRANCH   5  19
BRANCH   4  21
HETATM   21  O   UNK N   1      36.704  12.318  11.682  0.00  0.00    -0.388 OA
HETATM   22  H   UNK N   1      37.337  11.586  11.749  0.00  0.00     0.210 HD
ENDBRANCH   4  21
TORSDOF 9
ENDMDL
MODEL 4
REMARK VINA RESULT:      -5.2     11.387     12.143
REMARK  9 active torsions:
REMARK  status: ('A' for Active; 'I' for Inactive)
REMARK    1  A    between atoms: C_2  and  C_1 
REMARK    2  A    between atoms: O_14  and  C_1 
REMARK    3  A    between atoms: C_3  and  O_7 
REMARK    4  A    between atoms: C_4  and  O_8 
REMARK    5  A    between atoms: C_5  and  O_9 
REMARK    6  A    between atoms: C_6  and  O_10 
REMARK    7  A    between atoms: P_16  and  O_11 
REMARK    8  A    between atoms: P_16  and  O_12 
REMARK    9  A    between atoms: P_16  and  O_14 
ROOT
HETATM    1  C   UNK N   1      27.036  24.229  -3.943  0.00  0.00     0.180 C 
HETATM    2  C   UNK N   1      26.724  24.323  -5.454  0.00  0.00     0.180 C 
HETATM    3  C   UNK N   1      26.979  25.755  -5.956  0.00  0.00     0.183 C 
HETATM    4  C   UNK N   1      26.219  26.761  -5.077  0.00  0.00     0.204 C 
HETATM    5  C   UNK N   1      26.632  26.531  -3.615  0.00  0.00     0.288 C 
HETATM    6  O   UNK N   1      26.317  25.209  -3.198  0.00  0.00    -0.349 OA
ENDROOT
BRANCH   1   7
HETATM    7  C   UNK N   1      28.536  24.269  -3.600  0.00  0.00     0.215 C 
BRANCH   7   8
HETATM    8  O   UNK N   1      28.934  23.127  -2.886  0.00  0.00    -0.294 OA
BRANCH   8   9
HETATM    9  P   UNK N   1      30.679  23.177  -2.874  0.00  0.00     0.390 P 
HETATM   10  O   UNK N   1      30.339  23.115  -1.360  0.00  0.00    -0.632 OA
BRANCH   9  11
HETATM   11  O   UNK N   1      31.626  21.830  -2.325  0.00  0.00    -0.307 OA
HETATM   12  H   UNK N   1      32.587  21.797  -2.450  0.00  0.00     0.222 HD
ENDBRANCH   9  11
BRANCH   9  13
HETATM   13  O   UNK N   1      30.167  21.704  -3.640  0.00  0.00    -0.307 OA
HETATM   14  H   UNK N   1      29.940  20.761  -3.673  0.00  0.00     0.222 HD
ENDBRANCH   9  13
ENDBRANCH   8   9
ENDBRANCH   7   8
ENDBRANCH   1   7
BRANCH   2  15
HETATM   15  O   UNK N   1      25.384  23.981  -5.662  0.00  0.00    -0.390 OA
HETATM   16  H   UNK N   1      24.575  23.730  -5.191  0.00  0.00     0.210 HD
ENDBRANCH   2  15
BRANCH   3  17
HETATM   17  O   UNK N   1      26.593  25.884  -7.293  0.00  0.00    -0.390 OA
HETATM   18  H   UNK N   1      25.882  25.358  -7.691  0.00  0.00     0.210 HD
ENDBRANCH   3  17
BRANCH   5  19
HETATM   19  O   UNK N   1      25.949  27.433  -2.797  0.00  0.00    -0.369 OA
HETATM   20  H   UNK N   1      25.605  27.294  -1.900  0.00  0.00     0.212 HD
ENDBRANCH   5  19
BRANCH   4  21
HETATM   21  O   UNK N   1      24.836  26.593  -5.210  0.00  0.00    -0.388 OA
HETATM   22  H   UNK N   1      24.046  26.958  -5.638  0.00  0.00     0.210 HD
ENDBRANCH   4  21
TORSDOF 9
ENDMDL
MODEL 5
REMARK VINA RESULT:      -5.1     11.558     12.956
REMARK  9 active torsions:
REMARK  status: ('A' for Active; 'I' for Inactive)
REMARK    1  A    between atoms: C_2  and  C_1 
REMARK    2  A    between atoms: O_14  and  C_1 
REMARK    3  A    between atoms: C_3  and  O_7 
REMARK    4  A    between atoms: C_4  and  O_8 
REMARK    5  A    between atoms: C_5  and  O_9 
REMARK    6  A    between atoms: C_6  and  O_10 
REMARK    7  A    between atoms: P_16  and  O_11 
REMARK    8  A    between atoms: P_16  and  O_12 
REMARK    9  A    between atoms: P_16  and  O_14 
ROOT
HETATM    1  C   UNK N   1      33.540  16.584   4.947  0.00  0.00     0.180 C 
HETATM    2  C   UNK N   1      32.829  16.937   3.619  0.00  0.00     0.180 C 
HETATM    3  C   UNK N   1      31.307  16.778   3.779  0.00  0.00     0.183 C 
HETATM    4  C   UNK N   1      30.982  15.381   4.332  0.00  0.00     0.204 C 
HETATM    5  C   UNK N   1      31.768  15.187   5.638  0.00  0.00     0.288 C 
HETATM    6  O   UNK N   1      33.168  15.289   5.411  0.00  0.00    -0.349 OA
ENDROOT
BRANCH   1   7
HETATM    7  C   UNK N   1      33.370  17.636   6.057  0.00  0.00     0.215 C 
BRANCH   7   8
HETATM    8  O   UNK N   1      34.556  17.814   6.787  0.00  0.00    -0.294 OA
BRANCH   8   9
HETATM    9  P   UNK N   1      34.095  17.645   8.463  0.00  0.00     0.390 P 
HETATM   10  O   UNK N   1      34.891  16.337   8.203  0.00  0.00    -0.632 OA
BRANCH   9  11
HETATM   11  O   UNK N   1      35.273  17.656   9.737  0.00  0.00    -0.307 OA
HETATM   12  H   UNK N   1      35.153  17.136  10.547  0.00  0.00     0.222 HD
ENDBRANCH   9  11
BRANCH   9  13
HETATM   13  O   UNK N   1      35.162  19.008   8.311  0.00  0.00    -0.307 OA
HETATM   14  H   UNK N   1      35.759  19.699   8.636  0.00  0.00     0.222 HD
ENDBRANCH   9  13
ENDBRANCH   8   9
ENDBRANCH   7   8
ENDBRANCH   1   7
BRANCH   2  15
HETATM   15  O   UNK N   1      33.292  16.079   2.616  0.00  0.00    -0.390 OA
HETATM   16  H   UNK N   1      33.245  15.161   2.310  0.00  0.00     0.210 HD
ENDBRANCH   2  15
BRANCH   3  17
HETATM   17  O   UNK N   1      30.661  16.981   2.556  0.00  0.00    -0.390 OA
HETATM   18  H   UNK N   1      30.961  16.581   1.726  0.00  0.00     0.210 HD
ENDBRANCH   3  17
BRANCH   5  19
HETATM   19  O   UNK N   1      31.491  13.920   6.157  0.00  0.00    -0.369 OA
HETATM   20  H   UNK N   1      32.110  13.270   6.527  0.00  0.00     0.212 HD
ENDBRANCH   5  19
BRANCH   4  21
HETATM   21  O   UNK N   1      31.337  14.386   3.413  0.00  0.00    -0.388 OA
HETATM   22  H   UNK N   1      31.787  13.531   3.329  0.00  0.00     0.210 HD
ENDBRANCH   4  21
TORSDOF 9
ENDMDL
MODEL 6
REMARK VINA RESULT:      -5.1     11.785     13.782
REMARK  9 active torsions:
REMARK  status: ('A' for Active; 'I' for Inactive)
REMARK    1  A    between atoms: C_2  and  C_1 
REMARK    2  A    between atoms: O_14  and  C_1 
REMARK    3  A    between atoms: C_3  and  O_7 
REMARK    4  A    between atoms: C_4  and  O_8 
REMARK    5  A    between atoms: C_5  and  O_9 
REMARK    6  A    between atoms: C_6  and  O_10 
REMARK    7  A    between atoms: P_16  and  O_11 
REMARK    8  A    between atoms: P_16  and  O_12 
REMARK    9  A    between atoms: P_16  and  O_14 
ROOT
HETATM    1  C   UNK N   1      33.705  16.695   6.288  0.00  0.00     0.180 C 
HETATM    2  C   UNK N   1      33.283  15.634   7.330  0.00  0.00     0.180 C 
HETATM    3  C   UNK N   1      32.842  16.323   8.634  0.00  0.00     0.183 C 
HETATM    4  C   UNK N   1      33.935  17.294   9.109  0.00  0.00     0.204 C 
HETATM    5  C   UNK N   1      34.242  18.270   7.962  0.00  0.00     0.288 C 
HETATM    6  O   UNK N   1      34.698  17.575   6.809  0.00  0.00    -0.349 OA
ENDROOT
BRANCH   1   7
HETATM    7  C   UNK N   1      32.534  17.487   5.679  0.00  0.00     0.215 C 
BRANCH   7   8
HETATM    8  O   UNK N   1      32.606  17.521   4.277  0.00  0.00    -0.294 OA
BRANCH   8   9
HETATM    9  P   UNK N   1      31.360  16.427   3.727  0.00  0.00     0.390 P 
HETATM   10  O   UNK N   1      30.554  17.451   4.572  0.00  0.00    -0.632 OA
BRANCH   9  11
HETATM   11  O   UNK N   1      30.120  16.940   2.626  0.00  0.00    -0.307 OA
HETATM   12  H   UNK N   1      29.636  16.307   2.072  0.00  0.00     0.222 HD
ENDBRANCH   9  11
BRANCH   9  13
HETATM   13  O   UNK N   1      32.046  17.233   2.349  0.00  0.00    -0.307 OA
HETATM   14  H   UNK N   1      32.450  17.283   1.468  0.00  0.00     0.222 HD
ENDBRANCH   9  13
ENDBRANCH   8   9
ENDBRANCH   7   8
ENDBRANCH   1   7
BRANCH   2  15
HETATM   15  O   UNK N   1      34.371  14.793   7.585  0.00  0.00    -0.390 OA
HETATM   16  H   UNK N   1      34.947  14.478   8.298  0.00  0.00     0.210 HD
ENDBRANCH   2  15
BRANCH   3  17
HETATM   17  O   UNK N   1      32.569  15.374   9.623  0.00  0.00    -0.390 OA
HETATM   18  H   UNK N   1      33.090  15.291  10.436  0.00  0.00     0.210 HD
ENDBRANCH   3  17
BRANCH   5  19
HETATM   19  O   UNK N   1      35.237  19.160   8.370  0.00  0.00    -0.369 OA
HETATM   20  H   UNK N   1      36.165  19.198   8.091  0.00  0.00     0.212 HD
ENDBRANCH   5  19
BRANCH   4  21
HETATM   21  O   UNK N   1      35.097  16.600   9.464  0.00  0.00    -0.388 OA
HETATM   22  H   UNK N   1      36.065  16.623   9.403  0.00  0.00     0.210 HD
ENDBRANCH   4  21
TORSDOF 9
ENDMDL
MODEL 7
REMARK VINA RESULT:      -5.1     13.893     15.540
REMARK  9 active torsions:
REMARK  status: ('A' for Active; 'I' for Inactive)
REMARK    1  A    between atoms: C_2  and  C_1 
REMARK    2  A    between atoms: O_14  and  C_1 
REMARK    3  A    between atoms: C_3  and  O_7 
REMARK    4  A    between atoms: C_4  and  O_8 
REMARK    5  A    between atoms: C_5  and  O_9 
REMARK    6  A    between atoms: C_6  and  O_10 
REMARK    7  A    between atoms: P_16  and  O_11 
REMARK    8  A    between atoms: P_16  and  O_12 
REMARK    9  A    between atoms: P_16  and  O_14 
ROOT
HETATM    1  C   UNK N   1      34.360  15.947   9.646  0.00  0.00     0.180 C 
HETATM    2  C   UNK N   1      33.046  15.611   8.903  0.00  0.00     0.180 C 
HETATM    3  C   UNK N   1      33.067  16.227   7.493  0.00  0.00     0.183 C 
HETATM    4  C   UNK N   1      33.391  17.727   7.582  0.00  0.00     0.204 C 
HETATM    5  C   UNK N   1      34.712  17.888   8.351  0.00  0.00     0.288 C 
HETATM    6  O   UNK N   1      34.608  17.350   9.662  0.00  0.00    -0.349 OA
ENDROOT
BRANCH   1   7
HETATM    7  C   UNK N   1      35.591  15.177   9.137  0.00  0.00     0.215 C 
BRANCH   7   8
HETATM    8  O   UNK N   1      36.675  15.289  10.024  0.00  0.00    -0.294 OA
BRANCH   8   9
HETATM    9  P   UNK N   1      37.486  13.744   9.957  0.00  0.00     0.390 P 
HETATM   10  O   UNK N   1      38.599  14.724   9.497  0.00  0.00    -0.632 OA
BRANCH   9  11
HETATM   11  O   UNK N   1      38.799  13.357  11.024  0.00  0.00    -0.307 OA
HETATM   12  H   UNK N   1      39.378  14.044  11.390  0.00  0.00     0.222 HD
ENDBRANCH   9  11
BRANCH   9  13
HETATM   13  O   UNK N   1      37.066  14.084  11.608  0.00  0.00    -0.307 OA
HETATM   14  H   UNK N   1      37.248  14.274  12.542  0.00  0.00     0.222 HD
ENDBRANCH   9  13
ENDBRANCH   8   9
ENDBRANCH   7   8
ENDBRANCH   1   7
BRANCH   2  15
HETATM   15  O   UNK N   1      31.970  16.130   9.631  0.00  0.00    -0.390 OA
HETATM   16  H   UNK N   1      31.044  16.400   9.542  0.00  0.00     0.210 HD
ENDBRANCH   2  15
BRANCH   3  17
HETATM   17  O   UNK N   1      31.840  16.030   6.853  0.00  0.00    -0.390 OA
HETATM   18  H   UNK N   1      31.764  15.695   5.947  0.00  0.00     0.210 HD
ENDBRANCH   3  17
BRANCH   5  19
HETATM   19  O   UNK N   1      35.025  19.246   8.448  0.00  0.00    -0.369 OA
HETATM   20  H   UNK N   1      35.026  19.811   9.236  0.00  0.00     0.212 HD
ENDBRANCH   5  19
BRANCH   4  21
HETATM   21  O   UNK N   1      32.371  18.419   8.244  0.00  0.00    -0.388 OA
HETATM   22  H   UNK N   1      31.966  19.294   8.348  0.00  0.00     0.210 HD
ENDBRANCH   4  21
TORSDOF 9
ENDMDL
MODEL 8
REMARK VINA RESULT:      -5.0      6.822      9.075
REMARK  9 active torsions:
REMARK  status: ('A' for Active; 'I' for Inactive)
REMARK    1  A    between atoms: C_2  and  C_1 
REMARK    2  A    between atoms: O_14  and  C_1 
REMARK    3  A    between atoms: C_3  and  O_7 
REMARK    4  A    between atoms: C_4  and  O_8 
REMARK    5  A    between atoms: C_5  and  O_9 
REMARK    6  A    between atoms: C_6  and  O_10 
REMARK    7  A    between atoms: P_16  and  O_11 
REMARK    8  A    between atoms: P_16  and  O_12 
REMARK    9  A    between atoms: P_16  and  O_14 
ROOT
HETATM    1  C   UNK N   1      21.337  12.803   9.842  0.00  0.00     0.180 C 
HETATM    2  C   UNK N   1      22.593  12.500  10.692  0.00  0.00     0.180 C 
HETATM    3  C   UNK N   1      23.855  12.977   9.953  0.00  0.00     0.183 C 
HETATM    4  C   UNK N   1      23.883  12.392   8.531  0.00  0.00     0.204 C 
HETATM    5  C   UNK N   1      22.570  12.773   7.830  0.00  0.00     0.288 C 
HETATM    6  O   UNK N   1      21.448  12.254   8.532  0.00  0.00    -0.349 OA
ENDROOT
BRANCH   1   7
HETATM    7  C   UNK N   1      20.953  14.292   9.785  0.00  0.00     0.215 C 
BRANCH   7   8
HETATM    8  O   UNK N   1      19.633  14.469   9.338  0.00  0.00    -0.294 OA
BRANCH   8   9
HETATM    9  P   UNK N   1      19.637  15.995   8.489  0.00  0.00     0.390 P 
HETATM   10  O   UNK N   1      19.711  14.967   7.327  0.00  0.00    -0.632 OA
BRANCH   9  11
HETATM   11  O   UNK N   1      18.315  16.473   7.471  0.00  0.00    -0.307 OA
HETATM   12  H   UNK N   1      17.522  16.900   7.831  0.00  0.00     0.222 HD
ENDBRANCH   9  11
BRANCH   9  13
HETATM   13  O   UNK N   1      18.119  15.818   9.316  0.00  0.00    -0.307 OA
HETATM   14  H   UNK N   1      17.518  15.873  10.075  0.00  0.00     0.222 HD
ENDBRANCH   9  13
ENDBRANCH   8   9
ENDBRANCH   7   8
ENDBRANCH   1   7
BRANCH   2  15
HETATM   15  O   UNK N   1      22.667  11.121  10.914  0.00  0.00    -0.390 OA
HETATM   16  H   UNK N   1      22.161  10.300  10.817  0.00  0.00     0.210 HD
ENDBRANCH   2  15
BRANCH   3  17
HETATM   17  O   UNK N   1      25.006  12.606  10.655  0.00  0.00    -0.390 OA
HETATM   18  H   UNK N   1      25.612  11.914  10.351  0.00  0.00     0.210 HD
ENDBRANCH   3  17
BRANCH   5  19
HETATM   19  O   UNK N   1      22.570  12.247   6.536  0.00  0.00    -0.369 OA
HETATM   20  H   UNK N   1      22.445  12.713   5.695  0.00  0.00     0.212 HD
ENDBRANCH   5  19
BRANCH   4  21
HETATM   21  O   UNK N   1      24.013  10.999   8.569  0.00  0.00    -0.388 OA
HETATM   22  H   UNK N   1      24.242  10.255   9.147  0.00  0.00     0.210 HD
ENDBRANCH   4  21
TORSDOF 9
ENDMDL
MODEL 9
REMARK VINA RESULT:      -5.0      9.289     11.143
REMARK  9 active torsions:
REMARK  status: ('A' for Active; 'I' for Inactive)
REMARK    1  A    between atoms: C_2  and  C_1 
REMARK    2  A    between atoms: O_14  and  C_1 
REMARK    3  A    between atoms: C_3  and  O_7 
REMARK    4  A    between atoms: C_4  and  O_8 
REMARK    5  A    between atoms: C_5  and  O_9 
REMARK    6  A    between atoms: C_6  and  O_10 
REMARK    7  A    between atoms: P_16  and  O_11 
REMARK    8  A    between atoms: P_16  and  O_12 
REMARK    9  A    between atoms: P_16  and  O_14 
ROOT
HETATM    1  C   UNK N   1      29.947  16.829   7.191  0.00  0.00     0.180 C 
HETATM    2  C   UNK N   1      28.567  17.210   6.608  0.00  0.00     0.180 C 
HETATM    3  C   UNK N   1      28.231  18.670   6.961  0.00  0.00     0.183 C 
HETATM    4  C   UNK N   1      28.374  18.889   8.476  0.00  0.00     0.204 C 
HETATM    5  C   UNK N   1      29.788  18.457   8.893  0.00  0.00     0.288 C 
HETATM    6  O   UNK N   1      30.013  17.086   8.592  0.00  0.00    -0.349 OA
ENDROOT
BRANCH   1   7
HETATM    7  C   UNK N   1      31.142  17.465   6.459  0.00  0.00     0.215 C 
BRANCH   7   8
HETATM    8  O   UNK N   1      32.365  17.089   7.042  0.00  0.00    -0.294 OA
BRANCH   8   9
HETATM    9  P   UNK N   1      33.466  16.880   5.703  0.00  0.00     0.390 P 
HETATM   10  O   UNK N   1      34.192  17.947   6.567  0.00  0.00    -0.632 OA
BRANCH   9  11
HETATM   11  O   UNK N   1      35.043  16.188   5.920  0.00  0.00    -0.307 OA
HETATM   12  H   UNK N   1      35.247  15.285   5.633  0.00  0.00     0.222 HD
ENDBRANCH   9  11
BRANCH   9  13
HETATM   13  O   UNK N   1      33.374  15.389   6.590  0.00  0.00    -0.307 OA
HETATM   14  H   UNK N   1      33.520  14.441   6.738  0.00  0.00     0.222 HD
ENDBRANCH   9  13
ENDBRANCH   8   9
ENDBRANCH   7   8
ENDBRANCH   1   7
BRANCH   2  15
HETATM   15  O   UNK N   1      27.597  16.358   7.148  0.00  0.00    -0.390 OA
HETATM   16  H   UNK N   1      27.172  16.112   7.983  0.00  0.00     0.210 HD
ENDBRANCH   2  15
BRANCH   3  17
HETATM   17  O   UNK N   1      26.938  18.992   6.541  0.00  0.00    -0.390 OA
HETATM   18  H   UNK N   1      26.459  19.775   6.853  0.00  0.00     0.210 HD
ENDBRANCH   3  17
BRANCH   5  19
HETATM   19  O   UNK N   1      29.939  18.643  10.269  0.00  0.00    -0.369 OA
HETATM   20  H   UNK N   1      29.765  18.013  10.986  0.00  0.00     0.212 HD
ENDBRANCH   5  19
BRANCH   4  21
HETATM   21  O   UNK N   1      27.423  18.139   9.179  0.00  0.00    -0.388 OA
HETATM   22  H   UNK N   1      27.322  17.417   9.819  0.00  0.00     0.210 HD
ENDBRANCH   4  21
TORSDOF 9
ENDMDL
