MODEL 1
REMARK VINA RESULT:      -5.6      0.000      0.000
REMARK  12 active torsions:
REMARK  status: ('A' for Active; 'I' for Inactive)
REMARK    1  A    between atoms: C_2  and  C_1 
REMARK    2  A    between atoms: C_5  and  C_1 
REMARK    3  A    between atoms: C_6  and  C_2 
REMARK    4  A    between atoms: C_4  and  C_3 
REMARK    5  A    between atoms: C_7  and  C_3 
REMARK    6  A    between atoms: C_8  and  C_4 
REMARK    7  A    between atoms: N_14  and  C_5 
REMARK    8  A    between atoms: C_9  and  C_6 
REMARK    9  A    between atoms: C_6  and  N_15 
REMARK   10  A    between atoms: C_7  and  O_17 
REMARK   11  A    between atoms: O_19  and  C_8 
REMARK   12  A    between atoms: O_21  and  C_9 
REMARK       I    between atoms: N_13  and  C_10 
REMARK       I    between atoms: N_14  and  C_10 
ROOT
HETATM    1  C   UNK N   1      22.572  19.312   3.383  0.00  0.00     0.181 C 
ENDROOT
BRANCH   1   2
HETATM    2  C   UNK N   1      21.888  18.460   4.457  0.00  0.00     0.037 C 
BRANCH   2   3
HETATM    3  C   UNK N   1      22.017  16.963   4.216  0.00  0.00     0.023 C 
BRANCH   3   4
HETATM    4  C   UNK N   1      20.746  16.417   3.575  0.00  0.00     0.138 C 
BRANCH   4   5
HETATM    5  N   UNK N   1      20.794  16.538   2.137  0.00  0.00    -0.227 N 
HETATM    6  C   UNK N   1      19.915  17.409   1.448  0.00  0.00     0.665 C 
HETATM    7  N   UNK N   1      19.914  17.427   0.164  0.00  0.00    -0.235 N 
HETATM    8  N   UNK N   1      19.020  18.240   2.158  0.00  0.00    -0.235 N 
HETATM    9  H   UNK N   1      19.588  18.139  -0.432  0.00  0.00     0.174 HD
ATOM     10  HN  UNK N   1      20.301  16.601  -0.295  1.00  0.00     0.174 HD
HETATM   11  H   UNK N   1      19.085  18.406   3.126  0.00  0.00     0.174 HD
HETATM   12  H   UNK N   1      18.294  18.676   1.657  0.00  0.00     0.174 HD
HETATM   13  H   UNK N   1      21.449  16.007   1.628  0.00  0.00     0.177 HD
ENDBRANCH   4   5
ENDBRANCH   3   4
ENDBRANCH   2   3
ENDBRANCH   1   2
BRANCH   1  14
HETATM   14  C   UNK N   1      21.572  20.401   3.046  0.00  0.00     0.163 C 
HETATM   15  O   UNK N   1      21.753  21.209   2.155  0.00  0.00    -0.648 OA
BRANCH  14  16
HETATM   16  O   UNK N   1      20.461  20.509   3.804  0.00  0.00    -0.775 OA
HETATM   17  H   UNK N   1      20.048  21.340   3.936  0.00  0.00     0.167 HD
ENDBRANCH  14  16
ENDBRANCH   1  14
BRANCH   1  18
HETATM   18  N   UNK N   1      23.910  19.658   3.874  0.00  0.00    -0.360 N 
HETATM   19  C   UNK N   1      24.890  20.291   3.303  0.00  0.00     0.112 C 
ATOM     20  HN  UNK N   1      24.104  19.349   4.826  1.00  0.00     0.162 HD
BRANCH  19  21
HETATM   21  C   UNK N   1      26.204  20.450   4.020  0.00  0.00     0.094 C 
BRANCH  21  22
HETATM   22  C   UNK N   1      26.208  19.858   5.427  0.00  0.00     0.118 C 
BRANCH  22  23
HETATM   23  C   UNK N   1      26.553  20.874   6.476  0.00  0.00     0.139 C 
HETATM   24  O   UNK N   1      27.121  21.903   6.149  0.00  0.00    -0.650 OA
BRANCH  23  25
HETATM   25  O   UNK N   1      26.245  20.668   7.772  0.00  0.00    -0.776 OA
HETATM   26  H   UNK N   1      25.980  21.386   8.313  0.00  0.00     0.167 HD
ENDBRANCH  23  25
ENDBRANCH  22  23
ENDBRANCH  21  22
ENDBRANCH  19  21
BRANCH  19  27
HETATM   27  O   UNK N   1      24.793  20.786   2.058  0.00  0.00    -0.350 OA
HETATM   28  H   UNK N   1      24.011  20.662   1.557  0.00  0.00     0.219 HD
ENDBRANCH  19  27
ENDBRANCH   1  18
TORSDOF 12
ENDMDL
MODEL 2
REMARK VINA RESULT:      -5.5      3.540      6.747
REMARK  12 active torsions:
REMARK  status: ('A' for Active; 'I' for Inactive)
REMARK    1  A    between atoms: C_2  and  C_1 
REMARK    2  A    between atoms: C_5  and  C_1 
REMARK    3  A    between atoms: C_6  and  C_2 
REMARK    4  A    between atoms: C_4  and  C_3 
REMARK    5  A    between atoms: C_7  and  C_3 
REMARK    6  A    between atoms: C_8  and  C_4 
REMARK    7  A    between atoms: N_14  and  C_5 
REMARK    8  A    between atoms: C_9  and  C_6 
REMARK    9  A    between atoms: C_6  and  N_15 
REMARK   10  A    between atoms: C_7  and  O_17 
REMARK   11  A    between atoms: O_19  and  C_8 
REMARK   12  A    between atoms: O_21  and  C_9 
REMARK       I    between atoms: N_13  and  C_10 
REMARK       I    between atoms: N_14  and  C_10 
ROOT
HETATM    1  C   UNK N   1      20.961  20.444   2.351  0.00  0.00     0.181 C 
ENDROOT
BRANCH   1   2
HETATM    2  C   UNK N   1      22.382  20.801   2.798  0.00  0.00     0.037 C 
BRANCH   2   3
HETATM    3  C   UNK N   1      23.145  19.625   3.391  0.00  0.00     0.023 C 
BRANCH   3   4
HETATM    4  C   UNK N   1      24.647  19.865   3.297  0.00  0.00     0.138 C 
BRANCH   4   5
HETATM    5  N   UNK N   1      25.274  19.760   4.594  0.00  0.00    -0.227 N 
HETATM    6  C   UNK N   1      26.140  18.683   4.900  0.00  0.00     0.665 C 
HETATM    7  N   UNK N   1      26.609  18.563   6.090  0.00  0.00    -0.235 N 
HETATM    8  N   UNK N   1      26.475  17.725   3.919  0.00  0.00    -0.235 N 
HETATM    9  H   UNK N   1      27.406  18.063   6.379  0.00  0.00     0.174 HD
ATOM     10  HN  UNK N   1      26.091  19.045   6.826  1.00  0.00     0.174 HD
HETATM   11  H   UNK N   1      26.298  17.846   2.958  0.00  0.00     0.174 HD
HETATM   12  H   UNK N   1      26.908  16.890   4.211  0.00  0.00     0.174 HD
HETATM   13  H   UNK N   1      25.096  20.449   5.275  0.00  0.00     0.177 HD
ENDBRANCH   4   5
ENDBRANCH   3   4
ENDBRANCH   2   3
ENDBRANCH   1   2
BRANCH   1  14
HETATM   14  C   UNK N   1      20.793  21.107   0.997  0.00  0.00     0.163 C 
HETATM   15  O   UNK N   1      21.090  20.557  -0.046  0.00  0.00    -0.648 OA
BRANCH  14  16
HETATM   16  O   UNK N   1      20.345  22.379   0.957  0.00  0.00    -0.775 OA
HETATM   17  H   UNK N   1      20.757  23.049   1.467  0.00  0.00     0.167 HD
ENDBRANCH  14  16
ENDBRANCH   1  14
BRANCH   1  18
HETATM   18  N   UNK N   1      20.800  18.993   2.494  0.00  0.00    -0.360 N 
HETATM   19  C   UNK N   1      19.733  18.257   2.575  0.00  0.00     0.112 C 
ATOM     20  HN  UNK N   1      21.676  18.473   2.536  1.00  0.00     0.162 HD
BRANCH  19  21
HETATM   21  C   UNK N   1      19.854  16.773   2.791  0.00  0.00     0.094 C 
BRANCH  21  22
HETATM   22  C   UNK N   1      20.169  15.994   1.516  0.00  0.00     0.118 C 
BRANCH  22  23
HETATM   23  C   UNK N   1      19.627  16.662   0.287  0.00  0.00     0.139 C 
HETATM   24  O   UNK N   1      20.371  17.337  -0.405  0.00  0.00    -0.650 OA
BRANCH  23  25
HETATM   25  O   UNK N   1      18.332  16.529  -0.064  0.00  0.00    -0.776 OA
HETATM   26  H   UNK N   1      18.064  15.820  -0.615  0.00  0.00     0.167 HD
ENDBRANCH  23  25
ENDBRANCH  22  23
ENDBRANCH  21  22
ENDBRANCH  19  21
BRANCH  19  27
HETATM   27  O   UNK N   1      18.497  18.780   2.512  0.00  0.00    -0.350 OA
HETATM   28  H   UNK N   1      18.292  19.572   2.970  0.00  0.00     0.219 HD
ENDBRANCH  19  27
ENDBRANCH   1  18
TORSDOF 12
ENDMDL
MODEL 3
REMARK VINA RESULT:      -5.5      4.355      6.596
REMARK  12 active torsions:
REMARK  status: ('A' for Active; 'I' for Inactive)
REMARK    1  A    between atoms: C_2  and  C_1 
REMARK    2  A    between atoms: C_5  and  C_1 
REMARK    3  A    between atoms: C_6  and  C_2 
REMARK    4  A    between atoms: C_4  and  C_3 
REMARK    5  A    between atoms: C_7  and  C_3 
REMARK    6  A    between atoms: C_8  and  C_4 
REMARK    7  A    between atoms: N_14  and  C_5 
REMARK    8  A    between atoms: C_9  and  C_6 
REMARK    9  A    between atoms: C_6  and  N_15 
REMARK   10  A    between atoms: C_7  and  O_17 
REMARK   11  A    between atoms: O_19  and  C_8 
REMARK   12  A    between atoms: O_21  and  C_9 
REMARK       I    between atoms: N_13  and  C_10 
REMARK       I    between atoms: N_14  and  C_10 
ROOT
HETATM    1  C   UNK N   1      20.055  16.040   4.976  0.00  0.00     0.181 C 
ENDROOT
BRANCH   1   2
HETATM    2  C   UNK N   1      20.453  16.697   6.301  0.00  0.00     0.037 C 
BRANCH   2   3
HETATM    3  C   UNK N   1      20.886  15.701   7.367  0.00  0.00     0.023 C 
BRANCH   3   4
HETATM    4  C   UNK N   1      20.462  16.184   8.749  0.00  0.00     0.138 C 
BRANCH   4   5
HETATM    5  N   UNK N   1      19.035  16.399   8.811  0.00  0.00    -0.227 N 
HETATM    6  C   UNK N   1      18.502  17.635   9.250  0.00  0.00     0.665 C 
HETATM    7  N   UNK N   1      17.232  17.767   9.386  0.00  0.00    -0.235 N 
HETATM    8  N   UNK N   1      19.354  18.717   9.563  0.00  0.00    -0.235 N 
HETATM    9  H   UNK N   1      16.708  18.601   9.404  0.00  0.00     0.174 HD
ATOM     10  HN  UNK N   1      16.700  16.902   9.487  1.00  0.00     0.174 HD
HETATM   11  H   UNK N   1      20.307  18.746   9.320  0.00  0.00     0.174 HD
HETATM   12  H   UNK N   1      18.973  19.483  10.051  0.00  0.00     0.174 HD
HETATM   13  H   UNK N   1      18.424  15.674   8.544  0.00  0.00     0.177 HD
ENDBRANCH   4   5
ENDBRANCH   3   4
ENDBRANCH   2   3
ENDBRANCH   1   2
BRANCH   1  14
HETATM   14  C   UNK N   1      18.704  15.404   5.239  0.00  0.00     0.163 C 
HETATM   15  O   UNK N   1      18.374  14.335   4.761  0.00  0.00    -0.648 OA
BRANCH  14  16
HETATM   16  O   UNK N   1      17.812  16.081   5.992  0.00  0.00    -0.775 OA
HETATM   17  H   UNK N   1      17.279  15.636   6.622  0.00  0.00     0.167 HD
ENDBRANCH  14  16
ENDBRANCH   1  14
BRANCH   1  18
HETATM   18  N   UNK N   1      20.210  17.042   3.917  0.00  0.00    -0.360 N 
HETATM   19  C   UNK N   1      19.966  16.981   2.642  0.00  0.00     0.112 C 
ATOM     20  HN  UNK N   1      20.572  17.942   4.235  1.00  0.00     0.162 HD
BRANCH  19  21
HETATM   21  C   UNK N   1      20.288  18.154   1.755  0.00  0.00     0.094 C 
BRANCH  21  22
HETATM   22  C   UNK N   1      20.233  19.499   2.476  0.00  0.00     0.118 C 
BRANCH  22  23
HETATM   23  C   UNK N   1      21.180  20.503   1.890  0.00  0.00     0.139 C 
HETATM   24  O   UNK N   1      21.844  21.206   2.634  0.00  0.00    -0.650 OA
BRANCH  23  25
HETATM   25  O   UNK N   1      21.310  20.640   0.555  0.00  0.00    -0.776 OA
HETATM   26  H   UNK N   1      20.792  20.116  -0.025  0.00  0.00     0.167 HD
ENDBRANCH  23  25
ENDBRANCH  22  23
ENDBRANCH  21  22
ENDBRANCH  19  21
BRANCH  19  27
HETATM   27  O   UNK N   1      19.464  15.878   2.062  0.00  0.00    -0.350 OA
HETATM   28  H   UNK N   1      18.950  15.273   2.559  0.00  0.00     0.219 HD
ENDBRANCH  19  27
ENDBRANCH   1  18
TORSDOF 12
ENDMDL
MODEL 4
REMARK VINA RESULT:      -5.5      9.952     13.480
REMARK  12 active torsions:
REMARK  status: ('A' for Active; 'I' for Inactive)
REMARK    1  A    between atoms: C_2  and  C_1 
REMARK    2  A    between atoms: C_5  and  C_1 
REMARK    3  A    between atoms: C_6  and  C_2 
REMARK    4  A    between atoms: C_4  and  C_3 
REMARK    5  A    between atoms: C_7  and  C_3 
REMARK    6  A    between atoms: C_8  and  C_4 
REMARK    7  A    between atoms: N_14  and  C_5 
REMARK    8  A    between atoms: C_9  and  C_6 
REMARK    9  A    between atoms: C_6  and  N_15 
REMARK   10  A    between atoms: C_7  and  O_17 
REMARK   11  A    between atoms: O_19  and  C_8 
REMARK   12  A    between atoms: O_21  and  C_9 
REMARK       I    between atoms: N_13  and  C_10 
REMARK       I    between atoms: N_14  and  C_10 
ROOT
HETATM    1  C   UNK N   1      33.573  17.366   8.874  0.00  0.00     0.181 C 
ENDROOT
BRANCH   1   2
HETATM    2  C   UNK N   1      34.169  15.960   8.745  0.00  0.00     0.037 C 
BRANCH   2   3
HETATM    3  C   UNK N   1      34.282  15.225  10.073  0.00  0.00     0.023 C 
BRANCH   3   4
HETATM    4  C   UNK N   1      35.672  15.415  10.667  0.00  0.00     0.138 C 
BRANCH   4   5
HETATM    5  N   UNK N   1      36.249  14.151  11.060  0.00  0.00    -0.227 N 
HETATM    6  C   UNK N   1      36.655  13.917  12.396  0.00  0.00     0.665 C 
HETATM    7  N   UNK N   1      37.251  12.820  12.697  0.00  0.00    -0.235 N 
HETATM    8  N   UNK N   1      36.436  14.889  13.397  0.00  0.00    -0.235 N 
HETATM    9  H   UNK N   1      37.338  12.401  13.584  0.00  0.00     0.174 HD
ATOM     10  HN  UNK N   1      37.688  12.321  11.922  1.00  0.00     0.174 HD
HETATM   11  H   UNK N   1      35.840  15.664  13.280  0.00  0.00     0.174 HD
HETATM   12  H   UNK N   1      36.903  14.785  14.257  0.00  0.00     0.174 HD
HETATM   13  H   UNK N   1      36.360  13.439  10.388  0.00  0.00     0.177 HD
ENDBRANCH   4   5
ENDBRANCH   3   4
ENDBRANCH   2   3
ENDBRANCH   1   2
BRANCH   1  14
HETATM   14  C   UNK N   1      34.443  18.246   7.997  0.00  0.00     0.163 C 
HETATM   15  O   UNK N   1      35.038  19.217   8.423  0.00  0.00    -0.648 OA
BRANCH  14  16
HETATM   16  O   UNK N   1      34.512  17.968   6.678  0.00  0.00    -0.775 OA
HETATM   17  H   UNK N   1      34.456  18.653   6.040  0.00  0.00     0.167 HD
ENDBRANCH  14  16
ENDBRANCH   1  14
BRANCH   1  18
HETATM   18  N   UNK N   1      32.131  17.263   8.626  0.00  0.00    -0.360 N 
HETATM   19  C   UNK N   1      31.471  16.932   7.557  0.00  0.00     0.112 C 
ATOM     20  HN  UNK N   1      31.546  17.491   9.430  1.00  0.00     0.162 HD
BRANCH  19  21
HETATM   21  C   UNK N   1      29.967  16.978   7.555  0.00  0.00     0.094 C 
BRANCH  21  22
HETATM   22  C   UNK N   1      29.398  18.358   7.879  0.00  0.00     0.118 C 
BRANCH  22  23
HETATM   23  C   UNK N   1      28.807  18.425   9.257  0.00  0.00     0.139 C 
HETATM   24  O   UNK N   1      29.524  18.708  10.202  0.00  0.00    -0.650 OA
BRANCH  23  25
HETATM   25  O   UNK N   1      27.498  18.178   9.466  0.00  0.00    -0.776 OA
HETATM   26  H   UNK N   1      27.040  18.618  10.155  0.00  0.00     0.167 HD
ENDBRANCH  23  25
ENDBRANCH  22  23
ENDBRANCH  21  22
ENDBRANCH  19  21
BRANCH  19  27
HETATM   27  O   UNK N   1      32.087  16.579   6.417  0.00  0.00    -0.350 OA
HETATM   28  H   UNK N   1      31.841  16.973   5.603  0.00  0.00     0.219 HD
ENDBRANCH  19  27
ENDBRANCH   1  18
TORSDOF 12
ENDMDL
MODEL 5
REMARK VINA RESULT:      -5.4     11.761     15.171
REMARK  12 active torsions:
REMARK  status: ('A' for Active; 'I' for Inactive)
REMARK    1  A    between atoms: C_2  and  C_1 
REMARK    2  A    between atoms: C_5  and  C_1 
REMARK    3  A    between atoms: C_6  and  C_2 
REMARK    4  A    between atoms: C_4  and  C_3 
REMARK    5  A    between atoms: C_7  and  C_3 
REMARK    6  A    between atoms: C_8  and  C_4 
REMARK    7  A    between atoms: N_14  and  C_5 
REMARK    8  A    between atoms: C_9  and  C_6 
REMARK    9  A    between atoms: C_6  and  N_15 
REMARK   10  A    between atoms: C_7  and  O_17 
REMARK   11  A    between atoms: O_19  and  C_8 
REMARK   12  A    between atoms: O_21  and  C_9 
REMARK       I    between atoms: N_13  and  C_10 
REMARK       I    between atoms: N_14  and  C_10 
ROOT
HETATM    1  C   UNK N   1      34.871  15.315  10.108  0.00  0.00     0.181 C 
ENDROOT
BRANCH   1   2
HETATM    2  C   UNK N   1      35.774  14.104   9.853  0.00  0.00     0.037 C 
BRANCH   2   3
HETATM    3  C   UNK N   1      35.371  12.870  10.648  0.00  0.00     0.023 C 
BRANCH   3   4
HETATM    4  C   UNK N   1      36.508  12.436  11.566  0.00  0.00     0.138 C 
BRANCH   4   5
HETATM    5  N   UNK N   1      37.022  13.552  12.324  0.00  0.00    -0.227 N 
HETATM    6  C   UNK N   1      36.435  13.929  13.557  0.00  0.00     0.665 C 
HETATM    7  N   UNK N   1      36.852  14.982  14.163  0.00  0.00    -0.235 N 
HETATM    8  N   UNK N   1      35.380  13.175  14.114  0.00  0.00    -0.235 N 
HETATM    9  H   UNK N   1      36.754  15.212  15.115  0.00  0.00     0.174 HD
ATOM     10  HN  UNK N   1      37.345  15.665  13.586  1.00  0.00     0.174 HD
HETATM   11  H   UNK N   1      35.131  12.275  13.801  0.00  0.00     0.174 HD
HETATM   12  H   UNK N   1      34.866  13.570  14.855  0.00  0.00     0.174 HD
HETATM   13  H   UNK N   1      37.793  14.058  11.979  0.00  0.00     0.177 HD
ENDBRANCH   4   5
ENDBRANCH   3   4
ENDBRANCH   2   3
ENDBRANCH   1   2
BRANCH   1  14
HETATM   14  C   UNK N   1      35.812  16.429  10.528  0.00  0.00     0.163 C 
HETATM   15  O   UNK N   1      35.548  17.606  10.376  0.00  0.00    -0.648 OA
BRANCH  14  16
HETATM   16  O   UNK N   1      37.014  16.093  11.040  0.00  0.00    -0.775 OA
HETATM   17  H   UNK N   1      37.100  15.844  11.940  0.00  0.00     0.167 HD
ENDBRANCH  14  16
ENDBRANCH   1  14
BRANCH   1  18
HETATM   18  N   UNK N   1      34.003  15.478   8.937  0.00  0.00    -0.360 N 
HETATM   19  C   UNK N   1      32.708  15.474   8.829  0.00  0.00     0.112 C 
ATOM     20  HN  UNK N   1      34.500  15.619   8.058  1.00  0.00     0.162 HD
BRANCH  19  21
HETATM   21  C   UNK N   1      32.064  15.594   7.474  0.00  0.00     0.094 C 
BRANCH  21  22
HETATM   22  C   UNK N   1      32.267  16.959   6.820  0.00  0.00     0.118 C 
BRANCH  22  23
HETATM   23  C   UNK N   1      33.712  17.358   6.760  0.00  0.00     0.139 C 
HETATM   24  O   UNK N   1      34.456  16.793   5.976  0.00  0.00    -0.650 OA
BRANCH  23  25
HETATM   25  O   UNK N   1      34.200  18.329   7.558  0.00  0.00    -0.776 OA
HETATM   26  H   UNK N   1      33.869  18.433   8.429  0.00  0.00     0.167 HD
ENDBRANCH  23  25
ENDBRANCH  22  23
ENDBRANCH  21  22
ENDBRANCH  19  21
BRANCH  19  27
HETATM   27  O   UNK N   1      31.902  15.325   9.893  0.00  0.00    -0.350 OA
HETATM   28  H   UNK N   1      31.066  15.748   9.918  0.00  0.00     0.219 HD
ENDBRANCH  19  27
ENDBRANCH   1  18
TORSDOF 12
ENDMDL
MODEL 6
REMARK VINA RESULT:      -5.4      2.175      2.937
REMARK  12 active torsions:
REMARK  status: ('A' for Active; 'I' for Inactive)
REMARK    1  A    between atoms: C_2  and  C_1 
REMARK    2  A    between atoms: C_5  and  C_1 
REMARK    3  A    between atoms: C_6  and  C_2 
REMARK    4  A    between atoms: C_4  and  C_3 
REMARK    5  A    between atoms: C_7  and  C_3 
REMARK    6  A    between atoms: C_8  and  C_4 
REMARK    7  A    between atoms: N_14  and  C_5 
REMARK    8  A    between atoms: C_9  and  C_6 
REMARK    9  A    between atoms: C_6  and  N_15 
REMARK   10  A    between atoms: C_7  and  O_17 
REMARK   11  A    between atoms: O_19  and  C_8 
REMARK   12  A    between atoms: O_21  and  C_9 
REMARK       I    between atoms: N_13  and  C_10 
REMARK       I    between atoms: N_14  and  C_10 
ROOT
HETATM    1  C   UNK N   1      24.619  19.305   4.047  0.00  0.00     0.181 C 
ENDROOT
BRANCH   1   2
HETATM    2  C   UNK N   1      23.234  18.891   4.555  0.00  0.00     0.037 C 
BRANCH   2   3
HETATM    3  C   UNK N   1      22.641  17.708   3.803  0.00  0.00     0.023 C 
BRANCH   3   4
HETATM    4  C   UNK N   1      21.168  17.955   3.501  0.00  0.00     0.138 C 
BRANCH   4   5
HETATM    5  N   UNK N   1      20.954  19.296   3.010  0.00  0.00    -0.227 N 
HETATM    6  C   UNK N   1      20.550  19.527   1.672  0.00  0.00     0.665 C 
HETATM    7  N   UNK N   1      20.459  20.731   1.234  0.00  0.00    -0.235 N 
HETATM    8  N   UNK N   1      20.272  18.447   0.806  0.00  0.00    -0.235 N 
HETATM    9  H   UNK N   1      19.945  21.057   0.461  0.00  0.00     0.174 HD
ATOM     10  HN  UNK N   1      20.983  21.437   1.753  1.00  0.00     0.174 HD
HETATM   11  H   UNK N   1      20.152  17.520   1.115  0.00  0.00     0.174 HD
HETATM   12  H   UNK N   1      20.193  18.632  -0.158  0.00  0.00     0.174 HD
HETATM   13  H   UNK N   1      21.090  20.061   3.614  0.00  0.00     0.177 HD
ENDBRANCH   4   5
ENDBRANCH   3   4
ENDBRANCH   2   3
ENDBRANCH   1   2
BRANCH   1  14
HETATM   14  C   UNK N   1      24.360  20.425   3.058  0.00  0.00     0.163 C 
HETATM   15  O   UNK N   1      23.313  21.044   3.023  0.00  0.00    -0.648 OA
BRANCH  14  16
HETATM   16  O   UNK N   1      25.312  20.707   2.145  0.00  0.00    -0.775 OA
HETATM   17  H   UNK N   1      25.151  21.323   1.457  0.00  0.00     0.167 HD
ENDBRANCH  14  16
ENDBRANCH   1  14
BRANCH   1  18
HETATM   18  N   UNK N   1      25.474  19.531   5.218  0.00  0.00    -0.360 N 
HETATM   19  C   UNK N   1      26.738  19.817   5.309  0.00  0.00     0.112 C 
ATOM     20  HN  UNK N   1      24.994  19.449   6.114  1.00  0.00     0.162 HD
BRANCH  19  21
HETATM   21  C   UNK N   1      27.392  19.928   6.659  0.00  0.00     0.094 C 
BRANCH  21  22
HETATM   22  C   UNK N   1      28.199  18.692   7.050  0.00  0.00     0.118 C 
BRANCH  22  23
HETATM   23  C   UNK N   1      28.406  18.588   8.533  0.00  0.00     0.139 C 
HETATM   24  O   UNK N   1      29.508  18.819   9.001  0.00  0.00    -0.650 OA
BRANCH  23  25
HETATM   25  O   UNK N   1      27.394  18.244   9.354  0.00  0.00    -0.776 OA
HETATM   26  H   UNK N   1      27.558  18.091  10.265  0.00  0.00     0.167 HD
ENDBRANCH  23  25
ENDBRANCH  22  23
ENDBRANCH  21  22
ENDBRANCH  19  21
BRANCH  19  27
HETATM   27  O   UNK N   1      27.513  19.984   4.224  0.00  0.00    -0.350 OA
HETATM   28  H   UNK N   1      27.219  20.513   3.507  0.00  0.00     0.219 HD
ENDBRANCH  19  27
ENDBRANCH   1  18
TORSDOF 12
ENDMDL
MODEL 7
REMARK VINA RESULT:      -5.3     12.588     15.093
REMARK  12 active torsions:
REMARK  status: ('A' for Active; 'I' for Inactive)
REMARK    1  A    between atoms: C_2  and  C_1 
REMARK    2  A    between atoms: C_5  and  C_1 
REMARK    3  A    between atoms: C_6  and  C_2 
REMARK    4  A    between atoms: C_4  and  C_3 
REMARK    5  A    between atoms: C_7  and  C_3 
REMARK    6  A    between atoms: C_8  and  C_4 
REMARK    7  A    between atoms: N_14  and  C_5 
REMARK    8  A    between atoms: C_9  and  C_6 
REMARK    9  A    between atoms: C_6  and  N_15 
REMARK   10  A    between atoms: C_7  and  O_17 
REMARK   11  A    between atoms: O_19  and  C_8 
REMARK   12  A    between atoms: O_21  and  C_9 
REMARK       I    between atoms: N_13  and  C_10 
REMARK       I    between atoms: N_14  and  C_10 
ROOT
HETATM    1  C   UNK N   1      35.162  13.625  12.474  0.00  0.00     0.181 C 
ENDROOT
BRANCH   1   2
HETATM    2  C   UNK N   1      35.774  12.348  11.889  0.00  0.00     0.037 C 
BRANCH   2   3
HETATM    3  C   UNK N   1      34.790  11.191  11.797  0.00  0.00     0.023 C 
BRANCH   3   4
HETATM    4  C   UNK N   1      34.480  10.873  10.339  0.00  0.00     0.138 C 
BRANCH   4   5
HETATM    5  N   UNK N   1      33.367  11.658   9.859  0.00  0.00    -0.227 N 
HETATM    6  C   UNK N   1      33.546  12.640   8.854  0.00  0.00     0.665 C 
HETATM    7  N   UNK N   1      32.560  13.389   8.514  0.00  0.00    -0.235 N 
HETATM    8  N   UNK N   1      34.805  12.823   8.240  0.00  0.00    -0.235 N 
HETATM    9  H   UNK N   1      32.445  13.897   7.679  0.00  0.00     0.174 HD
ATOM     10  HN  UNK N   1      31.801  13.465   9.193  1.00  0.00     0.174 HD
HETATM   11  H   UNK N   1      35.547  12.182   8.323  0.00  0.00     0.174 HD
HETATM   12  H   UNK N   1      34.946  13.634   7.701  0.00  0.00     0.174 HD
HETATM   13  H   UNK N   1      32.470  11.508  10.236  0.00  0.00     0.177 HD
ENDBRANCH   4   5
ENDBRANCH   3   4
ENDBRANCH   2   3
ENDBRANCH   1   2
BRANCH   1  14
HETATM   14  C   UNK N   1      35.700  13.710  13.889  0.00  0.00     0.163 C 
HETATM   15  O   UNK N   1      35.055  13.365  14.861  0.00  0.00    -0.648 OA
BRANCH  14  16
HETATM   16  O   UNK N   1      36.926  14.242  14.078  0.00  0.00    -0.775 OA
HETATM   17  H   UNK N   1      37.671  13.692  14.222  0.00  0.00     0.167 HD
ENDBRANCH  14  16
ENDBRANCH   1  14
BRANCH   1  18
HETATM   18  N   UNK N   1      35.404  14.712  11.520  0.00  0.00    -0.360 N 
HETATM   19  C   UNK N   1      34.579  15.441  10.829  0.00  0.00     0.112 C 
ATOM     20  HN  UNK N   1      36.389  14.935  11.373  1.00  0.00     0.162 HD
BRANCH  19  21
HETATM   21  C   UNK N   1      35.106  16.459   9.854  0.00  0.00     0.094 C 
BRANCH  21  22
HETATM   22  C   UNK N   1      34.022  17.079   8.975  0.00  0.00     0.118 C 
BRANCH  22  23
HETATM   23  C   UNK N   1      34.563  18.140   8.062  0.00  0.00     0.139 C 
HETATM   24  O   UNK N   1      34.358  18.060   6.862  0.00  0.00    -0.650 OA
BRANCH  23  25
HETATM   25  O   UNK N   1      35.270  19.181   8.547  0.00  0.00    -0.776 OA
HETATM   26  H   UNK N   1      35.502  19.210   9.455  0.00  0.00     0.167 HD
ENDBRANCH  23  25
ENDBRANCH  22  23
ENDBRANCH  21  22
ENDBRANCH  19  21
BRANCH  19  27
HETATM   27  O   UNK N   1      33.247  15.295  10.922  0.00  0.00    -0.350 OA
HETATM   28  H   UNK N   1      32.805  14.634  10.424  0.00  0.00     0.219 HD
ENDBRANCH  19  27
ENDBRANCH   1  18
TORSDOF 12
ENDMDL
MODEL 8
REMARK VINA RESULT:      -5.2      2.773      3.426
REMARK  12 active torsions:
REMARK  status: ('A' for Active; 'I' for Inactive)
REMARK    1  A    between atoms: C_2  and  C_1 
REMARK    2  A    between atoms: C_5  and  C_1 
REMARK    3  A    between atoms: C_6  and  C_2 
REMARK    4  A    between atoms: C_4  and  C_3 
REMARK    5  A    between atoms: C_7  and  C_3 
REMARK    6  A    between atoms: C_8  and  C_4 
REMARK    7  A    between atoms: N_14  and  C_5 
REMARK    8  A    between atoms: C_9  and  C_6 
REMARK    9  A    between atoms: C_6  and  N_15 
REMARK   10  A    between atoms: C_7  and  O_17 
REMARK   11  A    between atoms: O_19  and  C_8 
REMARK   12  A    between atoms: O_21  and  C_9 
REMARK       I    between atoms: N_13  and  C_10 
REMARK       I    between atoms: N_14  and  C_10 
ROOT
HETATM    1  C   UNK N   1      22.254  19.281   3.158  0.00  0.00     0.181 C 
ENDROOT
BRANCH   1   2
HETATM    2  C   UNK N   1      21.549  18.344   4.144  0.00  0.00     0.037 C 
BRANCH   2   3
HETATM    3  C   UNK N   1      22.261  18.225   5.483  0.00  0.00     0.023 C 
BRANCH   3   4
HETATM    4  C   UNK N   1      21.465  17.335   6.430  0.00  0.00     0.138 C 
BRANCH   4   5
HETATM    5  N   UNK N   1      20.626  18.122   7.303  0.00  0.00    -0.227 N 
HETATM    6  C   UNK N   1      19.985  17.536   8.423  0.00  0.00     0.665 C 
HETATM    7  N   UNK N   1      19.170  18.235   9.127  0.00  0.00    -0.235 N 
HETATM    8  N   UNK N   1      20.214  16.183   8.758  0.00  0.00    -0.235 N 
HETATM    9  H   UNK N   1      18.878  18.075  10.053  0.00  0.00     0.174 HD
ATOM     10  HN  UNK N   1      18.778  19.060   8.670  1.00  0.00     0.174 HD
HETATM   11  H   UNK N   1      20.945  15.645   8.377  0.00  0.00     0.174 HD
HETATM   12  H   UNK N   1      19.609  15.756   9.407  0.00  0.00     0.174 HD
HETATM   13  H   UNK N   1      20.497  19.080   7.118  0.00  0.00     0.177 HD
ENDBRANCH   4   5
ENDBRANCH   3   4
ENDBRANCH   2   3
ENDBRANCH   1   2
BRANCH   1  14
HETATM   14  C   UNK N   1      21.285  20.427   2.938  0.00  0.00     0.163 C 
HETATM   15  O   UNK N   1      21.386  21.206   2.008  0.00  0.00    -0.648 OA
BRANCH  14  16
HETATM   16  O   UNK N   1      20.304  20.619   3.843  0.00  0.00    -0.775 OA
HETATM   17  H   UNK N   1      20.234  21.429   4.312  0.00  0.00     0.167 HD
ENDBRANCH  14  16
ENDBRANCH   1  14
BRANCH   1  18
HETATM   18  N   UNK N   1      23.603  19.538   3.675  0.00  0.00    -0.360 N 
HETATM   19  C   UNK N   1      24.589  20.225   3.182  0.00  0.00     0.112 C 
ATOM     20  HN  UNK N   1      23.801  19.102   4.575  1.00  0.00     0.162 HD
BRANCH  19  21
HETATM   21  C   UNK N   1      25.912  20.268   3.898  0.00  0.00     0.094 C 
BRANCH  21  22
HETATM   22  C   UNK N   1      25.830  19.828   5.358  0.00  0.00     0.118 C 
BRANCH  22  23
HETATM   23  C   UNK N   1      26.423  20.839   6.295  0.00  0.00     0.139 C 
HETATM   24  O   UNK N   1      27.206  21.669   5.864  0.00  0.00    -0.650 OA
BRANCH  23  25
HETATM   25  O   UNK N   1      26.104  20.844   7.605  0.00  0.00    -0.776 OA
HETATM   26  H   UNK N   1      26.585  21.380   8.205  0.00  0.00     0.167 HD
ENDBRANCH  23  25
ENDBRANCH  22  23
ENDBRANCH  21  22
ENDBRANCH  19  21
BRANCH  19  27
HETATM   27  O   UNK N   1      24.488  20.884   2.015  0.00  0.00    -0.350 OA
HETATM   28  H   UNK N   1      24.626  20.435   1.203  0.00  0.00     0.219 HD
ENDBRANCH  19  27
ENDBRANCH   1  18
TORSDOF 12
ENDMDL
MODEL 9
REMARK VINA RESULT:      -5.1     14.061     17.392
REMARK  12 active torsions:
REMARK  status: ('A' for Active; 'I' for Inactive)
REMARK    1  A    between atoms: C_2  and  C_1 
REMARK    2  A    between atoms: C_5  and  C_1 
REMARK    3  A    between atoms: C_6  and  C_2 
REMARK    4  A    between atoms: C_4  and  C_3 
REMARK    5  A    between atoms: C_7  and  C_3 
REMARK    6  A    between atoms: C_8  and  C_4 
REMARK    7  A    between atoms: N_14  and  C_5 
REMARK    8  A    between atoms: C_9  and  C_6 
REMARK    9  A    between atoms: C_6  and  N_15 
REMARK   10  A    between atoms: C_7  and  O_17 
REMARK   11  A    between atoms: O_19  and  C_8 
REMARK   12  A    between atoms: O_21  and  C_9 
REMARK       I    between atoms: N_13  and  C_10 
REMARK       I    between atoms: N_14  and  C_10 
ROOT
HETATM    1  C   UNK N   1      36.297  13.871  12.562  0.00  0.00     0.181 C 
ENDROOT
BRANCH   1   2
HETATM    2  C   UNK N   1      35.369  13.038  13.453  0.00  0.00     0.037 C 
BRANCH   2   3
HETATM    3  C   UNK N   1      35.837  12.947  14.898  0.00  0.00     0.023 C 
BRANCH   3   4
HETATM    4  C   UNK N   1      34.654  12.692  15.825  0.00  0.00     0.138 C 
BRANCH   4   5
HETATM    5  N   UNK N   1      34.782  13.439  17.053  0.00  0.00    -0.227 N 
HETATM    6  C   UNK N   1      35.130  12.795  18.266  0.00  0.00     0.665 C 
HETATM    7  N   UNK N   1      35.144  13.467  19.361  0.00  0.00    -0.235 N 
HETATM    8  N   UNK N   1      35.436  11.417  18.289  0.00  0.00    -0.235 N 
HETATM    9  H   UNK N   1      35.615  13.251  20.198  0.00  0.00     0.174 HD
ATOM     10  HN  UNK N   1      34.602  14.332  19.363  1.00  0.00     0.174 HD
HETATM   11  H   UNK N   1      35.613  10.886  17.479  0.00  0.00     0.174 HD
HETATM   12  H   UNK N   1      35.474  10.964  19.162  0.00  0.00     0.174 HD
HETATM   13  H   UNK N   1      34.626  14.412  17.047  0.00  0.00     0.177 HD
ENDBRANCH   4   5
ENDBRANCH   3   4
ENDBRANCH   2   3
ENDBRANCH   1   2
BRANCH   1  14
HETATM   14  C   UNK N   1      37.202  12.862  11.881  0.00  0.00     0.163 C 
HETATM   15  O   UNK N   1      36.998  11.663  11.918  0.00  0.00    -0.648 OA
BRANCH  14  16
HETATM   16  O   UNK N   1      38.308  13.314  11.255  0.00  0.00    -0.775 OA
HETATM   17  H   UNK N   1      39.038  13.640  11.745  0.00  0.00     0.167 HD
ENDBRANCH  14  16
ENDBRANCH   1  14
BRANCH   1  18
HETATM   18  N   UNK N   1      35.458  14.773  11.766  0.00  0.00    -0.360 N 
HETATM   19  C   UNK N   1      35.774  15.749  10.968  0.00  0.00     0.112 C 
ATOM     20  HN  UNK N   1      34.456  14.607  11.853  1.00  0.00     0.162 HD
BRANCH  19  21
HETATM   21  C   UNK N   1      34.694  16.573  10.320  0.00  0.00     0.094 C 
BRANCH  21  22
HETATM   22  C   UNK N   1      34.940  16.844   8.838  0.00  0.00     0.118 C 
BRANCH  22  23
HETATM   23  C   UNK N   1      34.465  18.204   8.417  0.00  0.00     0.139 C 
HETATM   24  O   UNK N   1      35.240  19.145   8.449  0.00  0.00    -0.650 OA
BRANCH  23  25
HETATM   25  O   UNK N   1      33.197  18.400   8.004  0.00  0.00    -0.776 OA
HETATM   26  H   UNK N   1      32.779  17.770   7.450  0.00  0.00     0.167 HD
ENDBRANCH  23  25
ENDBRANCH  22  23
ENDBRANCH  21  22
ENDBRANCH  19  21
BRANCH  19  27
HETATM   27  O   UNK N   1      37.051  16.086  10.722  0.00  0.00    -0.350 OA
HETATM   28  H   UNK N   1      37.549  16.558  11.360  0.00  0.00     0.219 HD
ENDBRANCH  19  27
ENDBRANCH   1  18
TORSDOF 12
ENDMDL
