MODEL 1
REMARK VINA RESULT:      -5.4      0.000      0.000
REMARK  13 active torsions:
REMARK  status: ('A' for Active; 'I' for Inactive)
REMARK    1  A    between atoms: C_4  and  C_1 
REMARK    2  A    between atoms: O_8  and  C_1 
REMARK    3  A    between atoms: C_4  and  C_2 
REMARK    4  A    between atoms: O_14  and  C_2 
REMARK    5  A    between atoms: C_5  and  C_3 
REMARK    6  A    between atoms: O_15  and  C_3 
REMARK    7  A    between atoms: C_4  and  O_9 
REMARK    8  A    between atoms: C_6  and  C_5 
REMARK    9  A    between atoms: C_5  and  N_7 
REMARK   10  A    between atoms: O_11  and  C_6 
REMARK   11  A    between atoms: P_16  and  O_12 
REMARK   12  A    between atoms: P_16  and  O_14 
REMARK   13  A    between atoms: P_16  and  O_15 
ROOT
HETATM    1  O   UNK N   1      34.621  14.763  11.052  0.00  0.00    -0.631 OA
HETATM    2  P   UNK N   1      35.350  16.136  11.084  0.00  0.00     0.393 P 
ENDROOT
BRANCH   2   3
HETATM    3  O   UNK N   1      37.061  15.922  10.853  0.00  0.00    -0.307 OA
HETATM    4  H   UNK N   1      37.726  15.238  10.673  0.00  0.00     0.222 HD
ENDBRANCH   2   3
BRANCH   2   5
HETATM    5  O   UNK N   1      36.057  15.287  12.432  0.00  0.00    -0.294 OA
BRANCH   5   6
HETATM    6  C   UNK N   1      35.488  14.006  12.422  0.00  0.00     0.214 C 
BRANCH   6   7
HETATM    7  C   UNK N   1      36.389  13.006  13.136  0.00  0.00     0.166 C 
BRANCH   7   8
HETATM    8  C   UNK N   1      37.331  12.330  12.147  0.00  0.00     0.198 C 
BRANCH   8   9
HETATM    9  O   UNK N   1      38.078  13.286  11.457  0.00  0.00    -0.398 OA
HETATM   10  H   UNK N   1      37.659  14.099  11.133  0.00  0.00     0.209 HD
ENDBRANCH   8   9
ENDBRANCH   7   8
BRANCH   7  11
HETATM   11  O   UNK N   1      37.125  13.660  14.126  0.00  0.00    -0.391 OA
HETATM   12  H   UNK N   1      36.712  14.260  14.765  0.00  0.00     0.210 HD
ENDBRANCH   7  11
ENDBRANCH   6   7
ENDBRANCH   5   6
ENDBRANCH   2   5
BRANCH   2  13
HETATM   13  O   UNK N   1      35.608  15.554   9.459  0.00  0.00    -0.294 OA
BRANCH  13  14
HETATM   14  C   UNK N   1      34.480  15.893   8.690  0.00  0.00     0.216 C 
BRANCH  14  15
HETATM   15  C   UNK N   1      33.953  17.296   9.001  0.00  0.00     0.198 C 
BRANCH  15  16
HETATM   16  C   UNK N   1      34.593  18.279   8.057  0.00  0.00     0.165 C 
HETATM   17  O   UNK N   1      34.453  18.164   6.848  0.00  0.00    -0.648 OA
BRANCH  16  18
HETATM   18  O   UNK N   1      35.336  19.292   8.543  0.00  0.00    -0.775 OA
HETATM   19  H   UNK N   1      35.496  19.418   9.458  0.00  0.00     0.167 HD
ENDBRANCH  16  18
ENDBRANCH  15  16
BRANCH  15  20
HETATM   20  N   UNK N   1      32.502  17.330   8.863  0.00  0.00    -0.416 N 
HETATM   21  H   UNK N   1      32.007  17.042   8.019  0.00  0.00     0.150 HD
HETATM   22  H   UNK N   1      31.951  17.662   9.655  0.00  0.00     0.150 HD
ENDBRANCH  15  20
ENDBRANCH  14  15
ENDBRANCH  13  14
ENDBRANCH   2  13
TORSDOF 13
ENDMDL
MODEL 2
REMARK VINA RESULT:      -5.1     13.787     15.796
REMARK  13 active torsions:
REMARK  status: ('A' for Active; 'I' for Inactive)
REMARK    1  A    between atoms: C_4  and  C_1 
REMARK    2  A    between atoms: O_8  and  C_1 
REMARK    3  A    between atoms: C_4  and  C_2 
REMARK    4  A    between atoms: O_14  and  C_2 
REMARK    5  A    between atoms: C_5  and  C_3 
REMARK    6  A    between atoms: O_15  and  C_3 
REMARK    7  A    between atoms: C_4  and  O_9 
REMARK    8  A    between atoms: C_6  and  C_5 
REMARK    9  A    between atoms: C_5  and  N_7 
REMARK   10  A    between atoms: O_11  and  C_6 
REMARK   11  A    between atoms: P_16  and  O_12 
REMARK   12  A    between atoms: P_16  and  O_14 
REMARK   13  A    between atoms: P_16  and  O_15 
ROOT
HETATM    1  O   UNK N   1      21.100  12.962   8.047  0.00  0.00    -0.631 OA
HETATM    2  P   UNK N   1      21.395  13.656   9.406  0.00  0.00     0.393 P 
ENDROOT
BRANCH   2   3
HETATM    3  O   UNK N   1      20.166  13.258  10.572  0.00  0.00    -0.307 OA
HETATM    4  H   UNK N   1      19.432  12.642  10.724  0.00  0.00     0.222 HD
ENDBRANCH   2   3
BRANCH   2   5
HETATM    5  O   UNK N   1      19.857  14.336   8.946  0.00  0.00    -0.294 OA
BRANCH   5   6
HETATM    6  C   UNK N   1      20.100  15.690   8.673  0.00  0.00     0.214 C 
BRANCH   6   7
HETATM    7  C   UNK N   1      18.856  16.529   8.938  0.00  0.00     0.166 C 
BRANCH   7   8
HETATM    8  C   UNK N   1      19.230  17.991   9.148  0.00  0.00     0.198 C 
BRANCH   8   9
HETATM    9  O   UNK N   1      18.323  18.605  10.013  0.00  0.00    -0.398 OA
HETATM   10  H   UNK N   1      18.280  18.346  10.946  0.00  0.00     0.209 HD
ENDBRANCH   8   9
ENDBRANCH   7   8
BRANCH   7  11
HETATM   11  O   UNK N   1      17.972  16.412   7.864  0.00  0.00    -0.391 OA
HETATM   12  H   UNK N   1      18.160  15.844   7.100  0.00  0.00     0.210 HD
ENDBRANCH   7  11
ENDBRANCH   6   7
ENDBRANCH   5   6
ENDBRANCH   2   5
BRANCH   2  13
HETATM   13  O   UNK N   1      21.519  11.952   9.762  0.00  0.00    -0.294 OA
BRANCH  13  14
HETATM   14  C   UNK N   1      22.879  11.643   9.941  0.00  0.00     0.216 C 
BRANCH  14  15
HETATM   15  C   UNK N   1      23.538  12.483  11.038  0.00  0.00     0.198 C 
BRANCH  15  16
HETATM   16  C   UNK N   1      23.053  12.000  12.380  0.00  0.00     0.165 C 
HETATM   17  O   UNK N   1      23.786  12.039  13.357  0.00  0.00    -0.648 OA
BRANCH  16  18
HETATM   18  O   UNK N   1      21.805  11.512  12.508  0.00  0.00    -0.775 OA
HETATM   19  H   UNK N   1      21.269  11.275  11.777  0.00  0.00     0.167 HD
ENDBRANCH  16  18
ENDBRANCH  15  16
BRANCH  15  20
HETATM   20  N   UNK N   1      24.988  12.374  10.952  0.00  0.00    -0.416 N 
HETATM   21  H   UNK N   1      25.527  12.618  10.120  0.00  0.00     0.150 HD
HETATM   22  H   UNK N   1      25.495  12.034  11.770  0.00  0.00     0.150 HD
ENDBRANCH  15  20
ENDBRANCH  14  15
ENDBRANCH  13  14
ENDBRANCH   2  13
TORSDOF 13
ENDMDL
MODEL 3
REMARK VINA RESULT:      -5.1      2.331      5.925
REMARK  13 active torsions:
REMARK  status: ('A' for Active; 'I' for Inactive)
REMARK    1  A    between atoms: C_4  and  C_1 
REMARK    2  A    between atoms: O_8  and  C_1 
REMARK    3  A    between atoms: C_4  and  C_2 
REMARK    4  A    between atoms: O_14  and  C_2 
REMARK    5  A    between atoms: C_5  and  C_3 
REMARK    6  A    between atoms: O_15  and  C_3 
REMARK    7  A    between atoms: C_4  and  O_9 
REMARK    8  A    between atoms: C_6  and  C_5 
REMARK    9  A    between atoms: C_5  and  N_7 
REMARK   10  A    between atoms: O_11  and  C_6 
REMARK   11  A    between atoms: P_16  and  O_12 
REMARK   12  A    between atoms: P_16  and  O_14 
REMARK   13  A    between atoms: P_16  and  O_15 
ROOT
HETATM    1  O   UNK N   1      36.583  15.973  10.333  0.00  0.00    -0.631 OA
HETATM    2  P   UNK N   1      35.532  15.988  11.479  0.00  0.00     0.393 P 
ENDROOT
BRANCH   2   3
HETATM    3  O   UNK N   1      33.936  15.715  10.843  0.00  0.00    -0.307 OA
HETATM    4  H   UNK N   1      33.265  16.117  10.268  0.00  0.00     0.222 HD
ENDBRANCH   2   3
BRANCH   2   5
HETATM    5  O   UNK N   1      35.029  17.317  10.469  0.00  0.00    -0.294 OA
BRANCH   5   6
HETATM    6  C   UNK N   1      34.843  16.779   9.188  0.00  0.00     0.214 C 
BRANCH   6   7
HETATM    7  C   UNK N   1      34.554  17.879   8.174  0.00  0.00     0.166 C 
BRANCH   7   8
HETATM    8  C   UNK N   1      33.057  18.147   8.086  0.00  0.00     0.198 C 
BRANCH   8   9
HETATM    9  O   UNK N   1      32.374  17.412   9.056  0.00  0.00    -0.398 OA
HETATM   10  H   UNK N   1      32.761  17.276   9.934  0.00  0.00     0.209 HD
ENDBRANCH   8   9
ENDBRANCH   7   8
BRANCH   7  11
HETATM   11  O   UNK N   1      35.227  19.045   8.540  0.00  0.00    -0.391 OA
HETATM   12  H   UNK N   1      36.195  19.111   8.521  0.00  0.00     0.210 HD
ENDBRANCH   7  11
ENDBRANCH   6   7
ENDBRANCH   5   6
ENDBRANCH   2   5
BRANCH   2  13
HETATM   13  O   UNK N   1      35.468  14.356  10.862  0.00  0.00    -0.294 OA
BRANCH  13  14
HETATM   14  C   UNK N   1      35.193  13.495  11.938  0.00  0.00     0.216 C 
BRANCH  14  15
HETATM   15  C   UNK N   1      36.406  12.657  12.350  0.00  0.00     0.198 C 
BRANCH  15  16
HETATM   16  C   UNK N   1      37.374  12.600  11.198  0.00  0.00     0.165 C 
HETATM   17  O   UNK N   1      37.339  11.675  10.400  0.00  0.00    -0.648 OA
BRANCH  16  18
HETATM   18  O   UNK N   1      38.295  13.570  11.046  0.00  0.00    -0.775 OA
HETATM   19  H   UNK N   1      38.123  14.376  10.598  0.00  0.00     0.167 HD
ENDBRANCH  16  18
ENDBRANCH  15  16
BRANCH  15  20
HETATM   20  N   UNK N   1      37.045  13.238  13.523  0.00  0.00    -0.416 N 
HETATM   21  H   UNK N   1      37.951  12.937  13.882  0.00  0.00     0.150 HD
HETATM   22  H   UNK N   1      36.559  13.989  14.013  0.00  0.00     0.150 HD
ENDBRANCH  15  20
ENDBRANCH  14  15
ENDBRANCH  13  14
ENDBRANCH   2  13
TORSDOF 13
ENDMDL
MODEL 4
REMARK VINA RESULT:      -5.0      3.169      4.502
REMARK  13 active torsions:
REMARK  status: ('A' for Active; 'I' for Inactive)
REMARK    1  A    between atoms: C_4  and  C_1 
REMARK    2  A    between atoms: O_8  and  C_1 
REMARK    3  A    between atoms: C_4  and  C_2 
REMARK    4  A    between atoms: O_14  and  C_2 
REMARK    5  A    between atoms: C_5  and  C_3 
REMARK    6  A    between atoms: O_15  and  C_3 
REMARK    7  A    between atoms: C_4  and  O_9 
REMARK    8  A    between atoms: C_6  and  C_5 
REMARK    9  A    between atoms: C_5  and  N_7 
REMARK   10  A    between atoms: O_11  and  C_6 
REMARK   11  A    between atoms: P_16  and  O_12 
REMARK   12  A    between atoms: P_16  and  O_14 
REMARK   13  A    between atoms: P_16  and  O_15 
ROOT
HETATM    1  O   UNK N   1      33.963  16.435   8.093  0.00  0.00    -0.631 OA
HETATM    2  P   UNK N   1      33.594  17.944   8.010  0.00  0.00     0.393 P 
ENDROOT
BRANCH   2   3
HETATM    3  O   UNK N   1      35.026  18.909   7.803  0.00  0.00    -0.307 OA
HETATM    4  H   UNK N   1      35.420  19.571   7.212  0.00  0.00     0.222 HD
ENDBRANCH   2   3
BRANCH   2   5
HETATM    5  O   UNK N   1      34.606  17.867   9.428  0.00  0.00    -0.294 OA
BRANCH   5   6
HETATM    6  C   UNK N   1      35.036  16.535   9.522  0.00  0.00     0.214 C 
BRANCH   6   7
HETATM    7  C   UNK N   1      35.537  16.225  10.927  0.00  0.00     0.166 C 
BRANCH   7   8
HETATM    8  C   UNK N   1      34.819  15.008  11.497  0.00  0.00     0.198 C 
BRANCH   8   9
HETATM    9  O   UNK N   1      33.484  14.998  11.089  0.00  0.00    -0.398 OA
HETATM   10  H   UNK N   1      33.009  14.159  10.979  0.00  0.00     0.209 HD
ENDBRANCH   8   9
ENDBRANCH   7   8
BRANCH   7  11
HETATM   11  O   UNK N   1      36.914  15.996  10.896  0.00  0.00    -0.391 OA
HETATM   12  H   UNK N   1      37.319  15.371  10.276  0.00  0.00     0.210 HD
ENDBRANCH   7  11
ENDBRANCH   6   7
ENDBRANCH   5   6
ENDBRANCH   2   5
BRANCH   2  13
HETATM   13  O   UNK N   1      34.267  17.582   6.441  0.00  0.00    -0.294 OA
BRANCH  13  14
HETATM   14  C   UNK N   1      33.210  17.524   5.516  0.00  0.00     0.216 C 
BRANCH  14  15
HETATM   15  C   UNK N   1      33.161  16.197   4.756  0.00  0.00     0.198 C 
BRANCH  15  16
HETATM   16  C   UNK N   1      32.972  16.481   3.289  0.00  0.00     0.165 C 
HETATM   17  O   UNK N   1      33.622  15.876   2.448  0.00  0.00    -0.648 OA
BRANCH  16  18
HETATM   18  O   UNK N   1      32.087  17.415   2.893  0.00  0.00    -0.775 OA
HETATM   19  H   UNK N   1      31.160  17.321   2.997  0.00  0.00     0.167 HD
ENDBRANCH  16  18
ENDBRANCH  15  16
BRANCH  15  20
HETATM   20  N   UNK N   1      34.391  15.447   4.974  0.00  0.00    -0.416 N 
HETATM   21  H   UNK N   1      35.096  15.293   4.253  0.00  0.00     0.150 HD
HETATM   22  H   UNK N   1      34.556  15.052   5.900  0.00  0.00     0.150 HD
ENDBRANCH  15  20
ENDBRANCH  14  15
ENDBRANCH  13  14
ENDBRANCH   2  13
TORSDOF 13
ENDMDL
MODEL 5
REMARK VINA RESULT:      -5.0      1.367      1.798
REMARK  13 active torsions:
REMARK  status: ('A' for Active; 'I' for Inactive)
REMARK    1  A    between atoms: C_4  and  C_1 
REMARK    2  A    between atoms: O_8  and  C_1 
REMARK    3  A    between atoms: C_4  and  C_2 
REMARK    4  A    between atoms: O_14  and  C_2 
REMARK    5  A    between atoms: C_5  and  C_3 
REMARK    6  A    between atoms: O_15  and  C_3 
REMARK    7  A    between atoms: C_4  and  O_9 
REMARK    8  A    between atoms: C_6  and  C_5 
REMARK    9  A    between atoms: C_5  and  N_7 
REMARK   10  A    between atoms: O_11  and  C_6 
REMARK   11  A    between atoms: P_16  and  O_12 
REMARK   12  A    between atoms: P_16  and  O_14 
REMARK   13  A    between atoms: P_16  and  O_15 
ROOT
HETATM    1  O   UNK N   1      35.800  15.733  11.379  0.00  0.00    -0.631 OA
HETATM    2  P   UNK N   1      34.893  14.818  10.509  0.00  0.00     0.393 P 
ENDROOT
BRANCH   2   3
HETATM    3  O   UNK N   1      33.221  15.032  10.941  0.00  0.00    -0.307 OA
HETATM    4  H   UNK N   1      32.384  15.380  10.595  0.00  0.00     0.222 HD
ENDBRANCH   2   3
BRANCH   2   5
HETATM    5  O   UNK N   1      34.590  14.244  12.127  0.00  0.00    -0.294 OA
BRANCH   5   6
HETATM    6  C   UNK N   1      34.910  12.878  12.118  0.00  0.00     0.214 C 
BRANCH   6   7
HETATM    7  C   UNK N   1      35.283  12.399  13.515  0.00  0.00     0.166 C 
BRANCH   7   8
HETATM    8  C   UNK N   1      36.576  13.058  13.981  0.00  0.00     0.198 C 
BRANCH   8   9
HETATM    9  O   UNK N   1      37.270  13.589  12.892  0.00  0.00    -0.398 OA
HETATM   10  H   UNK N   1      37.582  13.012  12.178  0.00  0.00     0.209 HD
ENDBRANCH   8   9
ENDBRANCH   7   8
BRANCH   7  11
HETATM   11  O   UNK N   1      34.249  12.693  14.405  0.00  0.00    -0.391 OA
HETATM   12  H   UNK N   1      33.528  12.069  14.584  0.00  0.00     0.210 HD
ENDBRANCH   7  11
ENDBRANCH   6   7
ENDBRANCH   5   6
ENDBRANCH   2   5
BRANCH   2  13
HETATM   13  O   UNK N   1      34.422  16.437  10.060  0.00  0.00    -0.294 OA
BRANCH  13  14
HETATM   14  C   UNK N   1      33.344  16.344   9.162  0.00  0.00     0.216 C 
BRANCH  14  15
HETATM   15  C   UNK N   1      33.022  17.677   8.483  0.00  0.00     0.198 C 
BRANCH  15  16
HETATM   16  C   UNK N   1      34.258  18.184   7.789  0.00  0.00     0.165 C 
HETATM   17  O   UNK N   1      34.494  17.873   6.631  0.00  0.00    -0.648 OA
BRANCH  16  18
HETATM   18  O   UNK N   1      35.120  18.982   8.448  0.00  0.00    -0.775 OA
HETATM   19  H   UNK N   1      36.048  18.950   8.322  0.00  0.00     0.167 HD
ENDBRANCH  16  18
ENDBRANCH  15  16
BRANCH  15  20
HETATM   20  N   UNK N   1      31.936  17.505   7.527  0.00  0.00    -0.416 N 
HETATM   21  H   UNK N   1      31.865  18.026   6.652  0.00  0.00     0.150 HD
HETATM   22  H   UNK N   1      31.206  16.827   7.744  0.00  0.00     0.150 HD
ENDBRANCH  15  20
ENDBRANCH  14  15
ENDBRANCH  13  14
ENDBRANCH   2  13
TORSDOF 13
ENDMDL
MODEL 6
REMARK VINA RESULT:      -5.0      3.742      4.882
REMARK  13 active torsions:
REMARK  status: ('A' for Active; 'I' for Inactive)
REMARK    1  A    between atoms: C_4  and  C_1 
REMARK    2  A    between atoms: O_8  and  C_1 
REMARK    3  A    between atoms: C_4  and  C_2 
REMARK    4  A    between atoms: O_14  and  C_2 
REMARK    5  A    between atoms: C_5  and  C_3 
REMARK    6  A    between atoms: O_15  and  C_3 
REMARK    7  A    between atoms: C_4  and  O_9 
REMARK    8  A    between atoms: C_6  and  C_5 
REMARK    9  A    between atoms: C_5  and  N_7 
REMARK   10  A    between atoms: O_11  and  C_6 
REMARK   11  A    between atoms: P_16  and  O_12 
REMARK   12  A    between atoms: P_16  and  O_14 
REMARK   13  A    between atoms: P_16  and  O_15 
ROOT
HETATM    1  O   UNK N   1      33.378  18.522   7.906  0.00  0.00    -0.631 OA
HETATM    2  P   UNK N   1      33.276  16.970   7.889  0.00  0.00     0.393 P 
ENDROOT
BRANCH   2   3
HETATM    3  O   UNK N   1      32.207  16.417   9.145  0.00  0.00    -0.307 OA
HETATM    4  H   UNK N   1      32.068  16.467  10.105  0.00  0.00     0.222 HD
ENDBRANCH   2   3
BRANCH   2   5
HETATM    5  O   UNK N   1      33.945  17.300   9.465  0.00  0.00    -0.294 OA
BRANCH   5   6
HETATM    6  C   UNK N   1      35.161  16.604   9.520  0.00  0.00     0.214 C 
BRANCH   6   7
HETATM    7  C   UNK N   1      35.492  16.203  10.952  0.00  0.00     0.166 C 
BRANCH   7   8
HETATM    8  C   UNK N   1      34.805  14.891  11.314  0.00  0.00     0.198 C 
BRANCH   8   9
HETATM    9  O   UNK N   1      33.419  15.024  11.210  0.00  0.00    -0.398 OA
HETATM   10  H   UNK N   1      32.905  14.404  10.670  0.00  0.00     0.209 HD
ENDBRANCH   8   9
ENDBRANCH   7   8
BRANCH   7  11
HETATM   11  O   UNK N   1      36.874  16.074  11.098  0.00  0.00    -0.391 OA
HETATM   12  H   UNK N   1      37.500  16.601  10.577  0.00  0.00     0.210 HD
ENDBRANCH   7  11
ENDBRANCH   6   7
ENDBRANCH   5   6
ENDBRANCH   2   5
BRANCH   2  13
HETATM   13  O   UNK N   1      31.662  17.508   7.501  0.00  0.00    -0.294 OA
BRANCH  13  14
HETATM   14  C   UNK N   1      30.803  17.086   8.531  0.00  0.00     0.216 C 
BRANCH  14  15
HETATM   15  C   UNK N   1      29.327  17.339   8.211  0.00  0.00     0.198 C 
BRANCH  15  16
HETATM   16  C   UNK N   1      28.731  18.194   9.298  0.00  0.00     0.165 C 
HETATM   17  O   UNK N   1      29.446  18.721  10.138  0.00  0.00    -0.648 OA
BRANCH  16  18
HETATM   18  O   UNK N   1      27.399  18.377   9.355  0.00  0.00    -0.775 OA
HETATM   19  H   UNK N   1      26.857  18.000  10.021  0.00  0.00     0.167 HD
ENDBRANCH  16  18
ENDBRANCH  15  16
BRANCH  15  20
HETATM   20  N   UNK N   1      29.198  17.998   6.918  0.00  0.00    -0.416 N 
HETATM   21  H   UNK N   1      28.465  17.781   6.243  0.00  0.00     0.150 HD
HETATM   22  H   UNK N   1      29.879  18.716   6.674  0.00  0.00     0.150 HD
ENDBRANCH  15  20
ENDBRANCH  14  15
ENDBRANCH  13  14
ENDBRANCH   2  13
TORSDOF 13
ENDMDL
MODEL 7
REMARK VINA RESULT:      -5.0      1.135      1.782
REMARK  13 active torsions:
REMARK  status: ('A' for Active; 'I' for Inactive)
REMARK    1  A    between atoms: C_4  and  C_1 
REMARK    2  A    between atoms: O_8  and  C_1 
REMARK    3  A    between atoms: C_4  and  C_2 
REMARK    4  A    between atoms: O_14  and  C_2 
REMARK    5  A    between atoms: C_5  and  C_3 
REMARK    6  A    between atoms: O_15  and  C_3 
REMARK    7  A    between atoms: C_4  and  O_9 
REMARK    8  A    between atoms: C_6  and  C_5 
REMARK    9  A    between atoms: C_5  and  N_7 
REMARK   10  A    between atoms: O_11  and  C_6 
REMARK   11  A    between atoms: P_16  and  O_12 
REMARK   12  A    between atoms: P_16  and  O_14 
REMARK   13  A    between atoms: P_16  and  O_15 
ROOT
HETATM    1  O   UNK N   1      35.149  14.150  10.826  0.00  0.00    -0.631 OA
HETATM    2  P   UNK N   1      35.297  15.671  11.115  0.00  0.00     0.393 P 
ENDROOT
BRANCH   2   3
HETATM    3  O   UNK N   1      36.924  16.195  10.791  0.00  0.00    -0.307 OA
HETATM    4  H   UNK N   1      37.796  16.279  11.210  0.00  0.00     0.222 HD
ENDBRANCH   2   3
BRANCH   2   5
HETATM    5  O   UNK N   1      36.419  14.949  12.238  0.00  0.00    -0.294 OA
BRANCH   5   6
HETATM    6  C   UNK N   1      35.792  13.790  12.716  0.00  0.00     0.214 C 
BRANCH   6   7
HETATM    7  C   UNK N   1      35.854  13.728  14.238  0.00  0.00     0.166 C 
BRANCH   7   8
HETATM    8  C   UNK N   1      34.954  12.618  14.766  0.00  0.00     0.198 C 
BRANCH   8   9
HETATM    9  O   UNK N   1      34.199  13.078  15.846  0.00  0.00    -0.398 OA
HETATM   10  H   UNK N   1      34.635  13.384  16.657  0.00  0.00     0.209 HD
ENDBRANCH   8   9
ENDBRANCH   7   8
BRANCH   7  11
HETATM   11  O   UNK N   1      37.171  13.510  14.646  0.00  0.00    -0.391 OA
HETATM   12  H   UNK N   1      37.444  13.590  15.573  0.00  0.00     0.210 HD
ENDBRANCH   7  11
ENDBRANCH   6   7
ENDBRANCH   5   6
ENDBRANCH   2   5
BRANCH   2  13
HETATM   13  O   UNK N   1      35.578  15.533   9.398  0.00  0.00    -0.294 OA
BRANCH  13  14
HETATM   14  C   UNK N   1      34.382  15.855   8.734  0.00  0.00     0.216 C 
BRANCH  14  15
HETATM   15  C   UNK N   1      33.909  17.282   9.024  0.00  0.00     0.198 C 
BRANCH  15  16
HETATM   16  C   UNK N   1      34.596  18.226   8.072  0.00  0.00     0.165 C 
HETATM   17  O   UNK N   1      34.516  18.061   6.864  0.00  0.00    -0.648 OA
BRANCH  16  18
HETATM   18  O   UNK N   1      35.312  19.261   8.552  0.00  0.00    -0.775 OA
HETATM   19  H   UNK N   1      36.049  19.155   9.121  0.00  0.00     0.167 HD
ENDBRANCH  16  18
ENDBRANCH  15  16
BRANCH  15  20
HETATM   20  N   UNK N   1      32.463  17.373   8.875  0.00  0.00    -0.416 N 
HETATM   21  H   UNK N   1      31.834  17.662   9.624  0.00  0.00     0.150 HD
HETATM   22  H   UNK N   1      32.056  17.134   7.971  0.00  0.00     0.150 HD
ENDBRANCH  15  20
ENDBRANCH  14  15
ENDBRANCH  13  14
ENDBRANCH   2  13
TORSDOF 13
ENDMDL
MODEL 8
REMARK VINA RESULT:      -4.8      2.648      3.729
REMARK  13 active torsions:
REMARK  status: ('A' for Active; 'I' for Inactive)
REMARK    1  A    between atoms: C_4  and  C_1 
REMARK    2  A    between atoms: O_8  and  C_1 
REMARK    3  A    between atoms: C_4  and  C_2 
REMARK    4  A    between atoms: O_14  and  C_2 
REMARK    5  A    between atoms: C_5  and  C_3 
REMARK    6  A    between atoms: O_15  and  C_3 
REMARK    7  A    between atoms: C_4  and  O_9 
REMARK    8  A    between atoms: C_6  and  C_5 
REMARK    9  A    between atoms: C_5  and  N_7 
REMARK   10  A    between atoms: O_11  and  C_6 
REMARK   11  A    between atoms: P_16  and  O_12 
REMARK   12  A    between atoms: P_16  and  O_14 
REMARK   13  A    between atoms: P_16  and  O_15 
ROOT
HETATM    1  O   UNK N   1      34.850  16.316   8.299  0.00  0.00    -0.631 OA
HETATM    2  P   UNK N   1      34.119  17.647   8.633  0.00  0.00     0.393 P 
ENDROOT
BRANCH   2   3
HETATM    3  O   UNK N   1      35.212  18.993   8.493  0.00  0.00    -0.307 OA
HETATM    4  H   UNK N   1      35.360  19.893   8.826  0.00  0.00     0.222 HD
ENDBRANCH   2   3
BRANCH   2   5
HETATM    5  O   UNK N   1      35.363  17.568   9.853  0.00  0.00    -0.294 OA
BRANCH   5   6
HETATM    6  C   UNK N   1      34.980  16.541  10.727  0.00  0.00     0.214 C 
BRANCH   6   7
HETATM    7  C   UNK N   1      36.194  15.945  11.429  0.00  0.00     0.166 C 
BRANCH   7   8
HETATM    8  C   UNK N   1      35.848  14.596  12.046  0.00  0.00     0.198 C 
BRANCH   8   9
HETATM    9  O   UNK N   1      36.864  14.182  12.910  0.00  0.00    -0.398 OA
HETATM   10  H   UNK N   1      37.539  14.810  13.212  0.00  0.00     0.209 HD
ENDBRANCH   8   9
ENDBRANCH   7   8
BRANCH   7  11
HETATM   11  O   UNK N   1      37.240  15.798  10.516  0.00  0.00    -0.391 OA
HETATM   12  H   UNK N   1      37.483  16.500   9.892  0.00  0.00     0.210 HD
ENDBRANCH   7  11
ENDBRANCH   6   7
ENDBRANCH   5   6
ENDBRANCH   2   5
BRANCH   2  13
HETATM   13  O   UNK N   1      34.559  17.813   6.953  0.00  0.00    -0.294 OA
BRANCH  13  14
HETATM   14  C   UNK N   1      33.406  17.602   6.177  0.00  0.00     0.216 C 
BRANCH  14  15
HETATM   15  C   UNK N   1      33.710  16.936   4.833  0.00  0.00     0.198 C 
BRANCH  15  16
HETATM   16  C   UNK N   1      34.282  15.566   5.084  0.00  0.00     0.165 C 
HETATM   17  O   UNK N   1      33.653  14.563   4.779  0.00  0.00    -0.648 OA
BRANCH  16  18
HETATM   18  O   UNK N   1      35.493  15.438   5.658  0.00  0.00    -0.775 OA
HETATM   19  H   UNK N   1      36.293  15.659   5.223  0.00  0.00     0.167 HD
ENDBRANCH  16  18
ENDBRANCH  15  16
BRANCH  15  20
HETATM   20  N   UNK N   1      32.496  16.842   4.032  0.00  0.00    -0.416 N 
HETATM   21  H   UNK N   1      31.658  16.342   4.331  0.00  0.00     0.150 HD
HETATM   22  H   UNK N   1      32.484  17.300   3.121  0.00  0.00     0.150 HD
ENDBRANCH  15  20
ENDBRANCH  14  15
ENDBRANCH  13  14
ENDBRANCH   2  13
TORSDOF 13
ENDMDL
MODEL 9
REMARK VINA RESULT:      -4.8      2.030      6.124
REMARK  13 active torsions:
REMARK  status: ('A' for Active; 'I' for Inactive)
REMARK    1  A    between atoms: C_4  and  C_1 
REMARK    2  A    between atoms: O_8  and  C_1 
REMARK    3  A    between atoms: C_4  and  C_2 
REMARK    4  A    between atoms: O_14  and  C_2 
REMARK    5  A    between atoms: C_5  and  C_3 
REMARK    6  A    between atoms: O_15  and  C_3 
REMARK    7  A    between atoms: C_4  and  O_9 
REMARK    8  A    between atoms: C_6  and  C_5 
REMARK    9  A    between atoms: C_5  and  N_7 
REMARK   10  A    between atoms: O_11  and  C_6 
REMARK   11  A    between atoms: P_16  and  O_12 
REMARK   12  A    between atoms: P_16  and  O_14 
REMARK   13  A    between atoms: P_16  and  O_15 
ROOT
HETATM    1  O   UNK N   1      34.689  14.957  10.924  0.00  0.00    -0.631 OA
HETATM    2  P   UNK N   1      36.071  14.903  10.214  0.00  0.00     0.393 P 
ENDROOT
BRANCH   2   3
HETATM    3  O   UNK N   1      37.121  16.144  10.835  0.00  0.00    -0.307 OA
HETATM    4  H   UNK N   1      38.043  16.304  11.092  0.00  0.00     0.222 HD
ENDBRANCH   2   3
BRANCH   2   5
HETATM    5  O   UNK N   1      35.477  16.488   9.794  0.00  0.00    -0.294 OA
BRANCH   5   6
HETATM    6  C   UNK N   1      34.124  16.318   9.469  0.00  0.00     0.214 C 
BRANCH   6   7
HETATM    7  C   UNK N   1      33.558  17.578   8.825  0.00  0.00     0.166 C 
BRANCH   7   8
HETATM    8  C   UNK N   1      34.586  18.213   7.897  0.00  0.00     0.198 C 
BRANCH   8   9
HETATM    9  O   UNK N   1      35.298  19.208   8.570  0.00  0.00    -0.398 OA
HETATM   10  H   UNK N   1      35.833  19.849   8.078  0.00  0.00     0.209 HD
ENDBRANCH   8   9
ENDBRANCH   7   8
BRANCH   7  11
HETATM   11  O   UNK N   1      32.401  17.262   8.111  0.00  0.00    -0.391 OA
HETATM   12  H   UNK N   1      32.024  16.369   8.107  0.00  0.00     0.210 HD
ENDBRANCH   7  11
ENDBRANCH   6   7
ENDBRANCH   5   6
ENDBRANCH   2   5
BRANCH   2  13
HETATM   13  O   UNK N   1      36.431  14.524  11.879  0.00  0.00    -0.294 OA
BRANCH  13  14
HETATM   14  C   UNK N   1      36.731  13.153  11.959  0.00  0.00     0.216 C 
BRANCH  14  15
HETATM   15  C   UNK N   1      35.889  12.424  13.009  0.00  0.00     0.198 C 
BRANCH  15  16
HETATM   16  C   UNK N   1      35.871  13.241  14.274  0.00  0.00     0.165 C 
HETATM   17  O   UNK N   1      34.842  13.362  14.923  0.00  0.00    -0.648 OA
BRANCH  16  18
HETATM   18  O   UNK N   1      36.994  13.853  14.696  0.00  0.00    -0.775 OA
HETATM   19  H   UNK N   1      37.284  13.836  15.587  0.00  0.00     0.167 HD
ENDBRANCH  16  18
ENDBRANCH  15  16
BRANCH  15  20
HETATM   20  N   UNK N   1      34.534  12.221  12.516  0.00  0.00    -0.416 N 
HETATM   21  H   UNK N   1      34.023  11.342  12.606  0.00  0.00     0.150 HD
HETATM   22  H   UNK N   1      34.068  13.001  12.053  0.00  0.00     0.150 HD
ENDBRANCH  15  20
ENDBRANCH  14  15
ENDBRANCH  13  14
ENDBRANCH   2  13
TORSDOF 13
ENDMDL
