MODEL 1
REMARK VINA RESULT:      -5.7      0.000      0.000
REMARK  9 active torsions:
REMARK  status: ('A' for Active; 'I' for Inactive)
REMARK    1  A    between atoms: C_10  and  C_4 
REMARK    2  A    between atoms: C_10  and  C_5 
REMARK    3  A    between atoms: O_18  and  C_8 
REMARK    4  A    between atoms: C_14  and  C_9 
REMARK    5  A    between atoms: O_21  and  C_10 
REMARK    6  A    between atoms: C_11  and  N_15 
REMARK    7  A    between atoms: C_12  and  O_21 
REMARK    8  A    between atoms: C_13  and  N_16 
REMARK    9  A    between atoms: O_20  and  C_14 
ROOT
HETATM    1  C   UNK N   1      35.530  14.034   9.795  0.00  0.00     0.072 C 
HETATM    2  C   UNK N   1      35.316  14.904  12.119  0.00  0.00     0.021 C 
HETATM    3  C   UNK N   1      35.311  15.141  10.802  0.00  0.00     0.016 C 
HETATM    4  C   UNK N   1      35.857  12.657  10.385  0.00  0.00     0.103 C 
HETATM    5  C   UNK N   1      35.549  13.557  12.753  0.00  0.00     0.170 C 
HETATM    6  C   UNK N   1      35.168  12.433  11.755  0.00  0.00     0.138 C 
ENDROOT
BRANCH   5   7
HETATM    7  O   UNK N   1      34.722  13.435  13.902  0.00  0.00    -0.375 OA
BRANCH   7   8
HETATM    8  C   UNK N   1      35.412  13.463  15.151  0.00  0.00     0.121 C 
BRANCH   8   9
HETATM    9  C   UNK N   1      34.951  12.401  16.130  0.00  0.00     0.027 C 
HETATM   10  C   UNK N   1      35.044  12.959  17.543  0.00  0.00     0.007 C 
ENDBRANCH   8   9
BRANCH   8  11
HETATM   11  C   UNK N   1      36.928  13.693  15.160  0.00  0.00     0.027 C 
HETATM   12  C   UNK N   1      37.242  15.084  15.677  0.00  0.00     0.007 C 
ENDBRANCH   8  11
ENDBRANCH   7   8
ENDBRANCH   5   7
BRANCH   6  13
HETATM   13  N   UNK N   1      35.539  11.146  12.324  0.00  0.00    -0.365 N 
HETATM   14  C   UNK N   1      34.721  10.354  12.932  0.00  0.00     0.107 C 
HETATM   15  C   UNK N   1      35.212   9.042  13.437  0.00  0.00     0.097 C 
ATOM     16  HN  UNK N   1      36.511  10.849  12.237  1.00  0.00     0.161 HD
BRANCH  14  17
HETATM   17  O   UNK N   1      33.429  10.693  13.123  0.00  0.00    -0.350 OA
HETATM   18  H   UNK N   1      33.093  11.503  13.450  0.00  0.00     0.219 HD
ENDBRANCH  14  17
ENDBRANCH   6  13
BRANCH   3  19
HETATM   19  C   UNK N   1      35.041  16.512  10.317  0.00  0.00     0.171 C 
HETATM   20  O   UNK N   1      35.894  17.386  10.430  0.00  0.00    -0.646 OA
BRANCH  19  21
HETATM   21  O   UNK N   1      33.859  16.813   9.755  0.00  0.00    -0.773 OA
HETATM   22  H   UNK N   1      33.763  16.829   8.823  0.00  0.00     0.167 HD
ENDBRANCH  19  21
ENDBRANCH   3  19
BRANCH   4  23
HETATM   23  N   UNK N   1      37.297  12.500  10.497  0.00  0.00    -0.424 N 
HETATM   24  H   UNK N   1      38.275  12.511  10.790  0.00  0.00     0.150 HD
HETATM   25  H   UNK N   1      37.436  11.999   9.620  0.00  0.00     0.150 HD
ENDBRANCH   4  23
TORSDOF 9
ENDMDL
MODEL 2
REMARK VINA RESULT:      -5.7      7.280      9.855
REMARK  9 active torsions:
REMARK  status: ('A' for Active; 'I' for Inactive)
REMARK    1  A    between atoms: C_10  and  C_4 
REMARK    2  A    between atoms: C_10  and  C_5 
REMARK    3  A    between atoms: O_18  and  C_8 
REMARK    4  A    between atoms: C_14  and  C_9 
REMARK    5  A    between atoms: O_21  and  C_10 
REMARK    6  A    between atoms: C_11  and  N_15 
REMARK    7  A    between atoms: C_12  and  O_21 
REMARK    8  A    between atoms: C_13  and  N_16 
REMARK    9  A    between atoms: O_20  and  C_14 
ROOT
HETATM    1  C   UNK N   1      30.714  18.133   8.827  0.00  0.00     0.072 C 
HETATM    2  C   UNK N   1      29.490  16.879   7.058  0.00  0.00     0.021 C 
HETATM    3  C   UNK N   1      29.482  17.822   8.008  0.00  0.00     0.016 C 
HETATM    4  C   UNK N   1      31.928  17.233   8.567  0.00  0.00     0.103 C 
HETATM    5  C   UNK N   1      30.676  16.021   6.702  0.00  0.00     0.170 C 
HETATM    6  C   UNK N   1      31.987  16.748   7.096  0.00  0.00     0.138 C 
ENDROOT
BRANCH   5   7
HETATM    7  O   UNK N   1      30.688  15.805   5.298  0.00  0.00    -0.375 OA
BRANCH   7   8
HETATM    8  C   UNK N   1      30.376  16.952   4.507  0.00  0.00     0.121 C 
BRANCH   8   9
HETATM    9  C   UNK N   1      31.593  17.740   4.062  0.00  0.00     0.027 C 
HETATM   10  C   UNK N   1      32.459  16.853   3.180  0.00  0.00     0.007 C 
ENDBRANCH   8   9
BRANCH   8  11
HETATM   11  C   UNK N   1      29.285  16.844   3.434  0.00  0.00     0.027 C 
HETATM   12  C   UNK N   1      28.052  17.615   3.864  0.00  0.00     0.007 C 
ENDBRANCH   8  11
ENDBRANCH   7   8
ENDBRANCH   5   7
BRANCH   6  13
HETATM   13  N   UNK N   1      33.112  15.848   6.885  0.00  0.00    -0.365 N 
HETATM   14  C   UNK N   1      34.282  16.223   6.489  0.00  0.00     0.107 C 
HETATM   15  C   UNK N   1      35.365  15.211   6.348  0.00  0.00     0.097 C 
ATOM     16  HN  UNK N   1      32.965  14.855   7.063  1.00  0.00     0.161 HD
BRANCH  14  17
HETATM   17  O   UNK N   1      34.542  17.513   6.194  0.00  0.00    -0.350 OA
HETATM   18  H   UNK N   1      35.244  18.043   6.515  0.00  0.00     0.219 HD
ENDBRANCH  14  17
ENDBRANCH   6  13
BRANCH   3  19
HETATM   19  C   UNK N   1      28.251  18.609   8.233  0.00  0.00     0.171 C 
HETATM   20  O   UNK N   1      27.937  19.501   7.451  0.00  0.00    -0.646 OA
BRANCH  19  21
HETATM   21  O   UNK N   1      27.470  18.361   9.297  0.00  0.00    -0.773 OA
HETATM   22  H   UNK N   1      27.329  19.017   9.951  0.00  0.00     0.167 HD
ENDBRANCH  19  21
ENDBRANCH   3  19
BRANCH   4  23
HETATM   23  N   UNK N   1      31.909  16.104   9.483  0.00  0.00    -0.424 N 
HETATM   24  H   UNK N   1      32.021  15.469  10.274  0.00  0.00     0.150 HD
HETATM   25  H   UNK N   1      31.397  15.462   8.879  0.00  0.00     0.150 HD
ENDBRANCH   4  23
TORSDOF 9
ENDMDL
MODEL 3
REMARK VINA RESULT:      -5.6     14.070     17.693
REMARK  9 active torsions:
REMARK  status: ('A' for Active; 'I' for Inactive)
REMARK    1  A    between atoms: C_10  and  C_4 
REMARK    2  A    between atoms: C_10  and  C_5 
REMARK    3  A    between atoms: O_18  and  C_8 
REMARK    4  A    between atoms: C_14  and  C_9 
REMARK    5  A    between atoms: O_21  and  C_10 
REMARK    6  A    between atoms: C_11  and  N_15 
REMARK    7  A    between atoms: C_12  and  O_21 
REMARK    8  A    between atoms: C_13  and  N_16 
REMARK    9  A    between atoms: O_20  and  C_14 
ROOT
HETATM    1  C   UNK N   1      43.292  20.979   3.396  0.00  0.00     0.072 C 
HETATM    2  C   UNK N   1      41.972  22.373   1.809  0.00  0.00     0.021 C 
HETATM    3  C   UNK N   1      42.003  21.397   2.725  0.00  0.00     0.016 C 
HETATM    4  C   UNK N   1      44.561  21.673   2.885  0.00  0.00     0.103 C 
HETATM    5  C   UNK N   1      43.174  23.144   1.328  0.00  0.00     0.170 C 
HETATM    6  C   UNK N   1      44.281  23.122   2.413  0.00  0.00     0.138 C 
ENDROOT
BRANCH   5   7
HETATM    7  O   UNK N   1      42.796  24.495   1.101  0.00  0.00    -0.375 OA
BRANCH   7   8
HETATM    8  C   UNK N   1      42.688  24.871  -0.272  0.00  0.00     0.121 C 
BRANCH   8   9
HETATM    9  C   UNK N   1      41.497  25.759  -0.572  0.00  0.00     0.027 C 
HETATM   10  C   UNK N   1      40.381  25.437   0.411  0.00  0.00     0.007 C 
ENDBRANCH   8   9
BRANCH   8  11
HETATM   11  C   UNK N   1      43.956  25.259  -1.041  0.00  0.00     0.027 C 
HETATM   12  C   UNK N   1      44.323  26.701  -0.752  0.00  0.00     0.007 C 
ENDBRANCH   8  11
ENDBRANCH   7   8
ENDBRANCH   5   7
BRANCH   6  13
HETATM   13  N   UNK N   1      45.485  23.741   1.877  0.00  0.00    -0.365 N 
HETATM   14  C   UNK N   1      45.851  24.955   2.118  0.00  0.00     0.107 C 
HETATM   15  C   UNK N   1      47.126  25.462   1.543  0.00  0.00     0.097 C 
ATOM     16  HN  UNK N   1      46.079  23.177   1.270  1.00  0.00     0.161 HD
BRANCH  14  17
HETATM   17  O   UNK N   1      45.097  25.776   2.878  0.00  0.00    -0.350 OA
HETATM   18  H   UNK N   1      45.389  26.471   3.433  0.00  0.00     0.219 HD
ENDBRANCH  14  17
ENDBRANCH   6  13
BRANCH   3  19
HETATM   19  C   UNK N   1      40.740  20.740   3.123  0.00  0.00     0.171 C 
HETATM   20  O   UNK N   1      40.762  19.729   3.817  0.00  0.00    -0.646 OA
BRANCH  19  21
HETATM   21  O   UNK N   1      39.559  21.240   2.724  0.00  0.00    -0.773 OA
HETATM   22  H   UNK N   1      39.313  21.224   1.820  0.00  0.00     0.167 HD
ENDBRANCH  19  21
ENDBRANCH   3  19
BRANCH   4  23
HETATM   23  N   UNK N   1      45.155  20.886   1.816  0.00  0.00    -0.424 N 
HETATM   24  H   UNK N   1      45.784  20.413   1.167  0.00  0.00     0.150 HD
HETATM   25  H   UNK N   1      44.282  20.561   1.402  0.00  0.00     0.150 HD
ENDBRANCH   4  23
TORSDOF 9
ENDMDL
MODEL 4
REMARK VINA RESULT:      -5.5     15.123     17.229
REMARK  9 active torsions:
REMARK  status: ('A' for Active; 'I' for Inactive)
REMARK    1  A    between atoms: C_10  and  C_4 
REMARK    2  A    between atoms: C_10  and  C_5 
REMARK    3  A    between atoms: O_18  and  C_8 
REMARK    4  A    between atoms: C_14  and  C_9 
REMARK    5  A    between atoms: O_21  and  C_10 
REMARK    6  A    between atoms: C_11  and  N_15 
REMARK    7  A    between atoms: C_12  and  O_21 
REMARK    8  A    between atoms: C_13  and  N_16 
REMARK    9  A    between atoms: O_20  and  C_14 
ROOT
HETATM    1  C   UNK N   1      19.477  18.957   2.393  0.00  0.00     0.072 C 
HETATM    2  C   UNK N   1      21.864  19.566   2.761  0.00  0.00     0.021 C 
HETATM    3  C   UNK N   1      20.725  19.752   2.082  0.00  0.00     0.016 C 
HETATM    4  C   UNK N   1      19.636  17.864   3.457  0.00  0.00     0.103 C 
HETATM    5  C   UNK N   1      22.054  18.565   3.871  0.00  0.00     0.170 C 
HETATM    6  C   UNK N   1      20.688  18.245   4.530  0.00  0.00     0.138 C 
ENDROOT
BRANCH   5   7
HETATM    7  O   UNK N   1      22.907  19.126   4.859  0.00  0.00    -0.375 OA
BRANCH   7   8
HETATM    8  C   UNK N   1      24.249  18.638   4.849  0.00  0.00     0.121 C 
BRANCH   8   9
HETATM    9  C   UNK N   1      24.405  17.289   4.175  0.00  0.00     0.027 C 
HETATM   10  C   UNK N   1      24.440  16.205   5.242  0.00  0.00     0.007 C 
ENDBRANCH   8   9
BRANCH   8  11
HETATM   11  C   UNK N   1      25.395  19.613   4.553  0.00  0.00     0.027 C 
HETATM   12  C   UNK N   1      25.519  19.834   3.058  0.00  0.00     0.007 C 
ENDBRANCH   8  11
ENDBRANCH   7   8
ENDBRANCH   5   7
BRANCH   6  13
HETATM   13  N   UNK N   1      20.866  17.171   5.495  0.00  0.00    -0.365 N 
HETATM   14  C   UNK N   1      21.000  17.347   6.767  0.00  0.00     0.107 C 
HETATM   15  C   UNK N   1      21.136  16.163   7.659  0.00  0.00     0.097 C 
ATOM     16  HN  UNK N   1      20.886  16.213   5.143  1.00  0.00     0.161 HD
BRANCH  14  17
HETATM   17  O   UNK N   1      21.025  18.584   7.303  0.00  0.00    -0.350 OA
HETATM   18  H   UNK N   1      20.945  19.404   6.857  0.00  0.00     0.219 HD
ENDBRANCH  14  17
ENDBRANCH   6  13
BRANCH   3  19
HETATM   19  C   UNK N   1      20.672  20.791   1.032  0.00  0.00     0.171 C 
HETATM   20  O   UNK N   1      20.749  21.978   1.333  0.00  0.00    -0.646 OA
BRANCH  19  21
HETATM   21  O   UNK N   1      20.533  20.446  -0.259  0.00  0.00    -0.773 OA
HETATM   22  H   UNK N   1      20.332  19.563  -0.499  0.00  0.00     0.167 HD
ENDBRANCH  19  21
ENDBRANCH   3  19
BRANCH   4  23
HETATM   23  N   UNK N   1      19.979  16.603   2.821  0.00  0.00    -0.424 N 
HETATM   24  H   UNK N   1      20.005  15.643   2.474  0.00  0.00     0.150 HD
HETATM   25  H   UNK N   1      20.861  16.908   2.410  0.00  0.00     0.150 HD
ENDBRANCH   4  23
TORSDOF 9
ENDMDL
MODEL 5
REMARK VINA RESULT:      -5.3     14.190     15.128
REMARK  9 active torsions:
REMARK  status: ('A' for Active; 'I' for Inactive)
REMARK    1  A    between atoms: C_10  and  C_4 
REMARK    2  A    between atoms: C_10  and  C_5 
REMARK    3  A    between atoms: O_18  and  C_8 
REMARK    4  A    between atoms: C_14  and  C_9 
REMARK    5  A    between atoms: O_21  and  C_10 
REMARK    6  A    between atoms: C_11  and  N_15 
REMARK    7  A    between atoms: C_12  and  O_21 
REMARK    8  A    between atoms: C_13  and  N_16 
REMARK    9  A    between atoms: O_20  and  C_14 
ROOT
HETATM    1  C   UNK N   1      20.363  16.795   6.856  0.00  0.00     0.072 C 
HETATM    2  C   UNK N   1      20.541  15.553   9.007  0.00  0.00     0.021 C 
HETATM    3  C   UNK N   1      20.093  16.620   8.334  0.00  0.00     0.016 C 
HETATM    4  C   UNK N   1      21.262  15.731   6.215  0.00  0.00     0.103 C 
HETATM    5  C   UNK N   1      21.358  14.436   8.412  0.00  0.00     0.170 C 
HETATM    6  C   UNK N   1      21.093  14.345   6.888  0.00  0.00     0.138 C 
ENDROOT
BRANCH   5   7
HETATM    7  O   UNK N   1      20.968  13.207   9.009  0.00  0.00    -0.375 OA
BRANCH   7   8
HETATM    8  C   UNK N   1      21.916  12.646   9.916  0.00  0.00     0.121 C 
BRANCH   8   9
HETATM    9  C   UNK N   1      21.332  12.281  11.267  0.00  0.00     0.027 C 
HETATM   10  C   UNK N   1      22.464  11.886  12.204  0.00  0.00     0.007 C 
ENDBRANCH   8   9
BRANCH   8  11
HETATM   11  C   UNK N   1      22.940  11.632   9.392  0.00  0.00     0.027 C 
HETATM   12  C   UNK N   1      24.236  12.334   9.035  0.00  0.00     0.007 C 
ENDBRANCH   8  11
ENDBRANCH   7   8
ENDBRANCH   5   7
BRANCH   6  13
HETATM   13  N   UNK N   1      21.997  13.365   6.305  0.00  0.00    -0.365 N 
HETATM   14  C   UNK N   1      21.683  12.138   6.058  0.00  0.00     0.107 C 
HETATM   15  C   UNK N   1      22.685  11.239   5.421  0.00  0.00     0.097 C 
ATOM     16  HN  UNK N   1      22.944  13.668   6.076  1.00  0.00     0.161 HD
BRANCH  14  17
HETATM   17  O   UNK N   1      20.464  11.651   6.370  0.00  0.00    -0.350 OA
HETATM   18  H   UNK N   1      20.237  10.766   6.577  0.00  0.00     0.219 HD
ENDBRANCH  14  17
ENDBRANCH   6  13
BRANCH   3  19
HETATM   19  C   UNK N   1      19.277  17.630   9.040  0.00  0.00     0.171 C 
HETATM   20  O   UNK N   1      18.133  17.361   9.394  0.00  0.00    -0.646 OA
BRANCH  19  21
HETATM   21  O   UNK N   1      19.777  18.849   9.296  0.00  0.00    -0.773 OA
HETATM   22  H   UNK N   1      20.327  18.995  10.040  0.00  0.00     0.167 HD
ENDBRANCH  19  21
ENDBRANCH   3  19
BRANCH   4  23
HETATM   23  N   UNK N   1      22.649  16.164   6.265  0.00  0.00    -0.424 N 
HETATM   24  H   UNK N   1      23.536  16.628   6.469  0.00  0.00     0.150 HD
HETATM   25  H   UNK N   1      23.009  15.508   5.573  0.00  0.00     0.150 HD
ENDBRANCH   4  23
TORSDOF 9
ENDMDL
MODEL 6
REMARK VINA RESULT:      -5.3      6.256      9.351
REMARK  9 active torsions:
REMARK  status: ('A' for Active; 'I' for Inactive)
REMARK    1  A    between atoms: C_10  and  C_4 
REMARK    2  A    between atoms: C_10  and  C_5 
REMARK    3  A    between atoms: O_18  and  C_8 
REMARK    4  A    between atoms: C_14  and  C_9 
REMARK    5  A    between atoms: O_21  and  C_10 
REMARK    6  A    between atoms: C_11  and  N_15 
REMARK    7  A    between atoms: C_12  and  O_21 
REMARK    8  A    between atoms: C_13  and  N_16 
REMARK    9  A    between atoms: O_20  and  C_14 
ROOT
HETATM    1  C   UNK N   1      29.099  18.682   8.466  0.00  0.00     0.072 C 
HETATM    2  C   UNK N   1      29.857  17.475   6.424  0.00  0.00     0.021 C 
HETATM    3  C   UNK N   1      28.938  18.237   7.030  0.00  0.00     0.016 C 
HETATM    4  C   UNK N   1      30.322  18.120   9.201  0.00  0.00     0.103 C 
HETATM    5  C   UNK N   1      31.117  16.962   7.071  0.00  0.00     0.170 C 
HETATM    6  C   UNK N   1      31.520  17.890   8.245  0.00  0.00     0.138 C 
ENDROOT
BRANCH   5   7
HETATM    7  O   UNK N   1      32.167  16.971   6.113  0.00  0.00    -0.375 OA
BRANCH   7   8
HETATM    8  C   UNK N   1      32.468  15.702   5.533  0.00  0.00     0.121 C 
BRANCH   8   9
HETATM    9  C   UNK N   1      32.587  15.730   4.022  0.00  0.00     0.027 C 
HETATM   10  C   UNK N   1      32.403  17.161   3.539  0.00  0.00     0.007 C 
ENDBRANCH   8   9
BRANCH   8  11
HETATM   11  C   UNK N   1      33.500  14.796   6.217  0.00  0.00     0.027 C 
HETATM   12  C   UNK N   1      34.903  15.299   5.937  0.00  0.00     0.007 C 
ENDBRANCH   8  11
ENDBRANCH   7   8
ENDBRANCH   5   7
BRANCH   6  13
HETATM   13  N   UNK N   1      32.649  17.302   8.951  0.00  0.00    -0.365 N 
HETATM   14  C   UNK N   1      33.885  17.588   8.717  0.00  0.00     0.107 C 
HETATM   15  C   UNK N   1      34.952  16.948   9.535  0.00  0.00     0.097 C 
ATOM     16  HN  UNK N   1      32.449  16.616   9.680  1.00  0.00     0.161 HD
BRANCH  14  17
HETATM   17  O   UNK N   1      34.232  18.454   7.742  0.00  0.00    -0.350 OA
HETATM   18  H   UNK N   1      33.701  18.760   7.034  0.00  0.00     0.219 HD
ENDBRANCH  14  17
ENDBRANCH   6  13
BRANCH   3  19
HETATM   19  C   UNK N   1      27.758  18.692   6.264  0.00  0.00     0.171 C 
HETATM   20  O   UNK N   1      27.568  18.284   5.123  0.00  0.00    -0.646 OA
BRANCH  19  21
HETATM   21  O   UNK N   1      26.889  19.560   6.807  0.00  0.00    -0.773 OA
HETATM   22  H   UNK N   1      25.977  19.518   6.598  0.00  0.00     0.167 HD
ENDBRANCH  19  21
ENDBRANCH   3  19
BRANCH   4  23
HETATM   23  N   UNK N   1      29.962  16.889   9.885  0.00  0.00    -0.424 N 
HETATM   24  H   UNK N   1      29.934  15.952  10.288  0.00  0.00     0.150 HD
HETATM   25  H   UNK N   1      29.041  17.188  10.203  0.00  0.00     0.150 HD
ENDBRANCH   4  23
TORSDOF 9
ENDMDL
MODEL 7
REMARK VINA RESULT:      -5.3     20.295     22.960
REMARK  9 active torsions:
REMARK  status: ('A' for Active; 'I' for Inactive)
REMARK    1  A    between atoms: C_10  and  C_4 
REMARK    2  A    between atoms: C_10  and  C_5 
REMARK    3  A    between atoms: O_18  and  C_8 
REMARK    4  A    between atoms: C_14  and  C_9 
REMARK    5  A    between atoms: O_21  and  C_10 
REMARK    6  A    between atoms: C_11  and  N_15 
REMARK    7  A    between atoms: C_12  and  O_21 
REMARK    8  A    between atoms: C_13  and  N_16 
REMARK    9  A    between atoms: O_20  and  C_14 
ROOT
HETATM    1  C   UNK N   1      25.222  26.618  -5.766  0.00  0.00     0.072 C 
HETATM    2  C   UNK N   1      27.168  25.894  -4.392  0.00  0.00     0.021 C 
HETATM    3  C   UNK N   1      26.162  26.753  -4.589  0.00  0.00     0.016 C 
HETATM    4  C   UNK N   1      25.562  25.502  -6.761  0.00  0.00     0.103 C 
HETATM    5  C   UNK N   1      27.500  24.731  -5.291  0.00  0.00     0.170 C 
HETATM    6  C   UNK N   1      26.233  24.289  -6.068  0.00  0.00     0.138 C 
ENDROOT
BRANCH   5   7
HETATM    7  O   UNK N   1      27.940  23.640  -4.494  0.00  0.00    -0.375 OA
BRANCH   7   8
HETATM    8  C   UNK N   1      29.345  23.394  -4.526  0.00  0.00     0.121 C 
BRANCH   8   9
HETATM    9  C   UNK N   1      30.073  23.825  -3.268  0.00  0.00     0.027 C 
HETATM   10  C   UNK N   1      30.761  25.157  -3.527  0.00  0.00     0.007 C 
ENDBRANCH   8   9
BRANCH   8  11
HETATM   11  C   UNK N   1      29.858  22.074  -5.114  0.00  0.00     0.027 C 
HETATM   12  C   UNK N   1      30.467  21.217  -4.021  0.00  0.00     0.007 C 
ENDBRANCH   8  11
ENDBRANCH   7   8
ENDBRANCH   5   7
BRANCH   6  13
HETATM   13  N   UNK N   1      26.602  23.269  -7.037  0.00  0.00    -0.365 N 
HETATM   14  C   UNK N   1      25.881  22.236  -7.320  0.00  0.00     0.107 C 
HETATM   15  C   UNK N   1      26.348  21.281  -8.362  0.00  0.00     0.097 C 
ATOM     16  HN  UNK N   1      27.490  23.376  -7.527  1.00  0.00     0.161 HD
BRANCH  14  17
HETATM   17  O   UNK N   1      24.714  22.003  -6.686  0.00  0.00    -0.350 OA
HETATM   18  H   UNK N   1      23.853  21.989  -7.056  0.00  0.00     0.219 HD
ENDBRANCH  14  17
ENDBRANCH   6  13
BRANCH   3  19
HETATM   19  C   UNK N   1      25.935  27.837  -3.609  0.00  0.00     0.171 C 
HETATM   20  O   UNK N   1      26.039  27.613  -2.407  0.00  0.00    -0.646 OA
BRANCH  19  21
HETATM   21  O   UNK N   1      25.607  29.071  -4.023  0.00  0.00    -0.773 OA
HETATM   22  H   UNK N   1      24.861  29.209  -4.574  0.00  0.00     0.167 HD
ENDBRANCH  19  21
ENDBRANCH   3  19
BRANCH   4  23
HETATM   23  N   UNK N   1      26.410  26.028  -7.819  0.00  0.00    -0.424 N 
HETATM   24  H   UNK N   1      26.840  26.284  -8.708  0.00  0.00     0.150 HD
HETATM   25  H   UNK N   1      27.087  26.494  -7.215  0.00  0.00     0.150 HD
ENDBRANCH   4  23
TORSDOF 9
ENDMDL
MODEL 8
REMARK VINA RESULT:      -5.3     19.663     22.997
REMARK  9 active torsions:
REMARK  status: ('A' for Active; 'I' for Inactive)
REMARK    1  A    between atoms: C_10  and  C_4 
REMARK    2  A    between atoms: C_10  and  C_5 
REMARK    3  A    between atoms: O_18  and  C_8 
REMARK    4  A    between atoms: C_14  and  C_9 
REMARK    5  A    between atoms: O_21  and  C_10 
REMARK    6  A    between atoms: C_11  and  N_15 
REMARK    7  A    between atoms: C_12  and  O_21 
REMARK    8  A    between atoms: C_13  and  N_16 
REMARK    9  A    between atoms: O_20  and  C_14 
ROOT
HETATM    1  C   UNK N   1      30.919  25.904  -3.390  0.00  0.00     0.072 C 
HETATM    2  C   UNK N   1      28.899  24.542  -3.908  0.00  0.00     0.021 C 
HETATM    3  C   UNK N   1      30.161  24.598  -3.464  0.00  0.00     0.016 C 
HETATM    4  C   UNK N   1      30.186  27.129  -3.951  0.00  0.00     0.103 C 
HETATM    5  C   UNK N   1      28.102  25.725  -4.393  0.00  0.00     0.170 C 
HETATM    6  C   UNK N   1      28.652  27.027  -3.757  0.00  0.00     0.138 C 
ENDROOT
BRANCH   5   7
HETATM    7  O   UNK N   1      26.748  25.567  -3.991  0.00  0.00    -0.375 OA
BRANCH   7   8
HETATM    8  C   UNK N   1      25.860  25.122  -5.016  0.00  0.00     0.121 C 
BRANCH   8   9
HETATM    9  C   UNK N   1      25.638  26.137  -6.120  0.00  0.00     0.027 C 
HETATM   10  C   UNK N   1      24.675  27.204  -5.622  0.00  0.00     0.007 C 
ENDBRANCH   8   9
BRANCH   8  11
HETATM   11  C   UNK N   1      25.968  23.677  -5.519  0.00  0.00     0.027 C 
HETATM   12  C   UNK N   1      25.904  23.645  -7.034  0.00  0.00     0.007 C 
ENDBRANCH   8  11
ENDBRANCH   7   8
ENDBRANCH   5   7
BRANCH   6  13
HETATM   13  N   UNK N   1      27.972  28.170  -4.348  0.00  0.00    -0.365 N 
HETATM   14  C   UNK N   1      27.313  29.055  -3.678  0.00  0.00     0.107 C 
HETATM   15  C   UNK N   1      26.693  30.203  -4.393  0.00  0.00     0.097 C 
ATOM     16  HN  UNK N   1      28.018  28.279  -5.361  1.00  0.00     0.161 HD
BRANCH  14  17
HETATM   17  O   UNK N   1      27.172  28.957  -2.340  0.00  0.00    -0.350 OA
HETATM   18  H   UNK N   1      27.575  28.337  -1.765  0.00  0.00     0.219 HD
ENDBRANCH  14  17
ENDBRANCH   6  13
BRANCH   3  19
HETATM   19  C   UNK N   1      30.815  23.359  -2.991  0.00  0.00     0.171 C 
HETATM   20  O   UNK N   1      31.466  22.669  -3.770  0.00  0.00    -0.646 OA
BRANCH  19  21
HETATM   21  O   UNK N   1      30.698  22.975  -1.710  0.00  0.00    -0.773 OA
HETATM   22  H   UNK N   1      31.439  22.650  -1.238  0.00  0.00     0.167 HD
ENDBRANCH  19  21
ENDBRANCH   3  19
BRANCH   4  23
HETATM   23  N   UNK N   1      30.520  27.302  -5.355  0.00  0.00    -0.424 N 
HETATM   24  H   UNK N   1      30.610  27.624  -6.319  0.00  0.00     0.150 HD
HETATM   25  H   UNK N   1      31.115  26.478  -5.443  0.00  0.00     0.150 HD
ENDBRANCH   4  23
TORSDOF 9
ENDMDL
MODEL 9
REMARK VINA RESULT:      -5.2      7.072      9.886
REMARK  9 active torsions:
REMARK  status: ('A' for Active; 'I' for Inactive)
REMARK    1  A    between atoms: C_10  and  C_4 
REMARK    2  A    between atoms: C_10  and  C_5 
REMARK    3  A    between atoms: O_18  and  C_8 
REMARK    4  A    between atoms: C_14  and  C_9 
REMARK    5  A    between atoms: O_21  and  C_10 
REMARK    6  A    between atoms: C_11  and  N_15 
REMARK    7  A    between atoms: C_12  and  O_21 
REMARK    8  A    between atoms: C_13  and  N_16 
REMARK    9  A    between atoms: O_20  and  C_14 
ROOT
HETATM    1  C   UNK N   1      33.319  15.810   6.349  0.00  0.00     0.072 C 
HETATM    2  C   UNK N   1      31.611  17.412   7.194  0.00  0.00     0.021 C 
HETATM    3  C   UNK N   1      32.872  16.964   7.217  0.00  0.00     0.016 C 
HETATM    4  C   UNK N   1      32.216  15.131   5.529  0.00  0.00     0.103 C 
HETATM    5  C   UNK N   1      30.505  16.838   6.348  0.00  0.00     0.170 C 
HETATM    6  C   UNK N   1      31.107  16.128   5.108  0.00  0.00     0.138 C 
ENDROOT
BRANCH   5   7
HETATM    7  O   UNK N   1      29.669  17.895   5.897  0.00  0.00    -0.375 OA
BRANCH   7   8
HETATM    8  C   UNK N   1      28.648  18.291   6.812  0.00  0.00     0.121 C 
BRANCH   8   9
HETATM    9  C   UNK N   1      27.661  19.287   6.235  0.00  0.00     0.027 C 
HETATM   10  C   UNK N   1      28.020  19.553   4.781  0.00  0.00     0.007 C 
ENDBRANCH   8   9
BRANCH   8  11
HETATM   11  C   UNK N   1      28.001  17.232   7.712  0.00  0.00     0.027 C 
HETATM   12  C   UNK N   1      28.104  17.648   9.166  0.00  0.00     0.007 C 
ENDBRANCH   8  11
ENDBRANCH   7   8
ENDBRANCH   5   7
BRANCH   6  13
HETATM   13  N   UNK N   1      30.041  15.452   4.382  0.00  0.00    -0.365 N 
HETATM   14  C   UNK N   1      29.624  15.797   3.211  0.00  0.00     0.107 C 
HETATM   15  C   UNK N   1      28.552  15.001   2.553  0.00  0.00     0.097 C 
ATOM     16  HN  UNK N   1      29.594  14.652   4.830  1.00  0.00     0.161 HD
BRANCH  14  17
HETATM   17  O   UNK N   1      30.137  16.868   2.571  0.00  0.00    -0.350 OA
HETATM   18  H   UNK N   1      30.918  17.341   2.782  0.00  0.00     0.219 HD
ENDBRANCH  14  17
ENDBRANCH   6  13
BRANCH   3  19
HETATM   19  C   UNK N   1      33.864  17.642   8.079  0.00  0.00     0.171 C 
HETATM   20  O   UNK N   1      34.701  18.391   7.585  0.00  0.00    -0.646 OA
BRANCH  19  21
HETATM   21  O   UNK N   1      33.861  17.440   9.406  0.00  0.00    -0.773 OA
HETATM   22  H   UNK N   1      34.346  18.003   9.977  0.00  0.00     0.167 HD
ENDBRANCH  19  21
ENDBRANCH   3  19
BRANCH   4  23
HETATM   23  N   UNK N   1      31.655  14.021   6.282  0.00  0.00    -0.424 N 
HETATM   24  H   UNK N   1      31.427  13.110   6.682  0.00  0.00     0.150 HD
HETATM   25  H   UNK N   1      30.974  14.563   6.813  0.00  0.00     0.150 HD
ENDBRANCH   4  23
TORSDOF 9
ENDMDL
