REMARK  6 active torsions:
REMARK  status: ('A' for Active; 'I' for Inactive)
REMARK    1  A    between atoms: C_4  and  C_1 
REMARK    2  A    between atoms: O_20  and  C_1 
REMARK    3  A    between atoms: C_6  and  O_18 
REMARK    4  A    between atoms: C_7  and  O_19 
REMARK    5  A    between atoms: S_22  and  C_9 
REMARK    6  A    between atoms: C_10  and  N_17 
ROOT
HETATM    1  C   UNK N   1       5.057   0.723  -0.040  0.00  0.00     0.183 A 
HETATM    2  C   UNK N   1       0.686   0.034  -0.111  0.00  0.00     0.188 A 
HETATM    3  C   UNK N   1       2.704  -0.634   0.138  0.00  0.00     0.112 A 
HETATM    4  C   UNK N   1       2.723   0.692  -0.112  0.00  0.00     0.141 A 
HETATM    5  C   UNK N   1       3.892  -1.334   0.314  0.00  0.00     0.101 A 
HETATM    6  N   UNK N   1       3.877   1.396  -0.208  0.00  0.00    -0.336 N 
ATOM      7  HN  UNK N   1       3.866   2.398  -0.400  1.00  0.00     0.168 HD
HETATM    8  N   UNK N   1       5.059  -0.627   0.219  0.00  0.00    -0.345 N 
ATOM      9  HN  UNK N   1       5.948  -1.111   0.344  1.00  0.00     0.167 HD
HETATM   10  N   UNK N   1       1.432  -1.073   0.156  0.00  0.00    -0.347 N 
ATOM     11  HN  UNK N   1       1.101  -2.023   0.330  1.00  0.00     0.167 HD
HETATM   12  N   UNK N   1       1.466   1.135  -0.265  0.00  0.00    -0.297 N 
ENDROOT
BRANCH  12  13
HETATM   13  C   UNK N   1       0.997   2.486  -0.591  0.00  0.00     0.262 C 
HETATM   14  C   UNK N   1      -0.212   2.883   0.224  0.00  0.00     0.198 C 
HETATM   15  C   UNK N   1      -0.144   4.349   0.028  0.00  0.00     0.182 C 
HETATM   16  C   UNK N   1       1.333   4.546   0.251  0.00  0.00     0.179 C 
HETATM   17  O   UNK N   1       1.997   3.462  -0.367  0.00  0.00    -0.353 OA
BRANCH  14  18
HETATM   18  O   UNK N   1      -1.382   2.360  -0.329  0.00  0.00    -0.388 OA
HETATM   19  H   UNK N   1      -2.104   2.882  -0.713  0.00  0.00     0.210 HD
ENDBRANCH  14  18
BRANCH  15  20
HETATM   20  O   UNK N   1      -0.908   5.030   0.976  0.00  0.00    -0.390 OA
HETATM   21  H   UNK N   1      -0.764   5.727   1.636  0.00  0.00     0.210 HD
ENDBRANCH  15  20
BRANCH  16  22
HETATM   22  C   UNK N   1       1.782   5.870  -0.340  0.00  0.00     0.198 C 
BRANCH  22  23
HETATM   23  O   UNK N   1       3.128   6.085  -0.044  0.00  0.00    -0.398 OA
HETATM   24  H   UNK N   1       3.726   5.349   0.162  0.00  0.00     0.209 HD
ENDBRANCH  22  23
ENDBRANCH  16  22
ENDBRANCH  12  13
BRANCH   5  25
HETATM   25  S   UNK N   1       3.934  -3.095   0.696  0.00  0.00    -0.114 SA
HETATM   26  C   UNK N   1       2.764  -3.614  -0.596  0.00  0.00     0.097 C 
ENDBRANCH   5  25
TORSDOF 6
