REMARK  6 active torsions:
REMARK  status: ('A' for Active; 'I' for Inactive)
REMARK    1  A    between atoms: C_2  and  N_1 
REMARK    2  A    between atoms: C_3  and  O_4 
REMARK    3  A    between atoms: C_6  and  C_7 
REMARK    4  A    between atoms: C_7  and  O_8 
REMARK    5  A    between atoms: C_9  and  O_10 
REMARK    6  A    between atoms: C_11  and  O_12 
ROOT
HETATM    1  C   UNK N   1       1.961   1.166  -0.244  0.00  0.00     0.161 C 
HETATM    2  C   UNK N   1       1.858  -0.283   0.245  0.00  0.00     0.282 C 
HETATM    3  O   UNK N   1       0.746  -0.895  -0.364  0.00  0.00    -0.349 OA
HETATM    4  C   UNK N   1      -0.410  -0.330   0.212  0.00  0.00     0.179 C 
HETATM    5  C   UNK N   1      -0.548   1.130  -0.247  0.00  0.00     0.180 C 
HETATM    6  C   UNK N   1       0.696   1.900   0.197  0.00  0.00     0.176 C 
ENDROOT
BRANCH   1   7
HETATM    7  N   UNK N   1       3.130   1.812   0.329  0.00  0.00    -0.420 N 
HETATM    8  H   UNK N   1       3.933   1.328   0.732  0.00  0.00     0.150 HD
HETATM    9  H   UNK N   1       3.149   2.831   0.329  0.00  0.00     0.150 HD
ENDBRANCH   1   7
BRANCH   2  10
HETATM   10  O   UNK N   1       3.013  -0.990  -0.092  0.00  0.00    -0.369 OA
HETATM   11  H   UNK N   1       2.988  -1.931  -0.326  0.00  0.00     0.212 HD
ENDBRANCH   2  10
BRANCH   6  12
HETATM   12  O   UNK N   1       0.675   3.193  -0.329  0.00  0.00    -0.391 OA
HETATM   13  H   UNK N   1       1.445   3.655  -0.694  0.00  0.00     0.210 HD
ENDBRANCH   6  12
BRANCH   5  14
HETATM   14  O   UNK N   1      -1.684   1.714   0.319  0.00  0.00    -0.390 OA
HETATM   15  H   UNK N   1      -1.727   2.599   0.712  0.00  0.00     0.210 HD
ENDBRANCH   5  14
BRANCH   4  16
HETATM   16  C   UNK N   1      -1.628  -1.129  -0.228  0.00  0.00     0.198 C 
BRANCH  16  17
HETATM   17  O   UNK N   1      -1.514  -2.452   0.200  0.00  0.00    -0.398 OA
HETATM   18  H   UNK N   1      -2.271  -2.980   0.498  0.00  0.00     0.209 HD
ENDBRANCH  16  17
ENDBRANCH   4  16
TORSDOF 6
