REMARK  4 active torsions:
REMARK  status: ('A' for Active; 'I' for Inactive)
REMARK    1  A    between atoms: O_1  and  C_2 
REMARK    2  A    between atoms: C_2  and  C_4 
REMARK    3  A    between atoms: C_9  and  C_10 
REMARK    4  A    between atoms: C_10  and  O_11 
ROOT
HETATM    1  C   UNK N   1       1.501   0.658   0.000  0.00  0.00     0.054 A 
HETATM    2  C   UNK N   1       1.510  -0.753   0.000  0.00  0.00     0.019 A 
HETATM    3  C   UNK N   1       0.340  -1.503   0.000  0.00  0.00     0.001 A 
HETATM    4  C   UNK N   1      -0.888  -0.862   0.000  0.00  0.00     0.001 A 
HETATM    5  C   UNK N   1      -0.943   0.526   0.000  0.00  0.00     0.019 A 
HETATM    6  C   UNK N   1       0.217   1.326  -0.000  0.00  0.00     0.054 A 
ENDROOT
BRANCH   1   7
HETATM    7  C   UNK N   1       2.862   1.294  -0.000  0.00  0.00     0.177 C 
HETATM    8  O   UNK N   1       3.853   0.578   0.000  0.00  0.00    -0.646 OA
BRANCH   7   9
HETATM    9  O   UNK N   1       3.047   2.620  -0.000  0.00  0.00    -0.773 OA
HETATM   10  H   UNK N   1       3.915   2.971  -0.000  0.00  0.00     0.167 HD
ENDBRANCH   7   9
ENDBRANCH   1   7
BRANCH   6  11
HETATM   11  C   UNK N   1      -0.047   2.805  -0.000  0.00  0.00     0.177 C 
HETATM   12  O   UNK N   1      -1.204   3.201  -0.000  0.00  0.00    -0.646 OA
BRANCH  11  13
HETATM   13  O   UNK N   1       0.928   3.723   0.000  0.00  0.00    -0.773 OA
HETATM   14  H   UNK N   1       1.825   3.454   0.000  0.00  0.00     0.167 HD
ENDBRANCH  11  13
ENDBRANCH   6  11
TORSDOF 4
