MODEL 1
REMARK VINA RESULT:      -6.0      0.000      0.000
REMARK  4 active torsions:
REMARK  status: ('A' for Active; 'I' for Inactive)
REMARK    1  A    between atoms: C_6  and  C_4 
REMARK    2  A    between atoms: C_9  and  C_7 
REMARK    3  A    between atoms: C_10  and  C_8 
REMARK    4  A    between atoms: O_18  and  C_10 
ROOT
HETATM    1  C   UNK N   1      19.741  18.625   2.334  0.00  0.00     0.100 C 
HETATM    2  C   UNK N   1      21.480  16.510   3.789  0.00  0.00     0.082 C 
HETATM    3  C   UNK N   1      20.790  19.455   2.485  0.00  0.00     0.015 C 
HETATM    4  C   UNK N   1      20.323  16.389   3.142  0.00  0.00     0.112 C 
HETATM    5  C   UNK N   1      21.838  19.388   3.625  0.00  0.00     0.141 C 
HETATM    6  N   UNK N   1      19.433  17.476   3.099  0.00  0.00    -0.359 N 
HETATM    7  S   UNK N   1      21.819  17.962   4.802  0.00  0.00    -0.123 SA
HETATM    8  H   UNK N   1      18.589  17.438   3.604  0.00  0.00     0.165 HD
ENDROOT
BRANCH   5   9
HETATM    9  C   UNK N   1      23.273  19.765   3.278  0.00  0.00     0.059 A 
HETATM   10  C   UNK N   1      24.441  19.334   3.890  0.00  0.00     0.135 A 
HETATM   11  N   UNK N   1      25.430  20.074   3.355  0.00  0.00    -0.289 N 
HETATM   12  C   UNK N   1      26.838  20.019   3.696  0.00  0.00     0.174 C 
HETATM   13  N   UNK N   1      24.912  20.920   2.483  0.00  0.00    -0.021 NA
HETATM   14  N   UNK N   1      23.602  20.759   2.424  0.00  0.00    -0.285 N 
ATOM     15  HN  UNK N   1      22.956  21.289   1.838  1.00  0.00     0.184 HD
ENDBRANCH   5   9
BRANCH   3  16
HETATM   16  C   UNK N   1      20.733  20.610   1.560  0.00  0.00     0.268 C 
HETATM   17  O   UNK N   1      21.245  20.606   0.455  0.00  0.00    -0.302 OA
ENDBRANCH   3  16
BRANCH   4  18
HETATM   18  C   UNK N   1      19.917  15.109   2.519  0.00  0.00     0.194 C 
HETATM   19  O   UNK N   1      20.524  14.691   1.543  0.00  0.00    -0.645 OA
BRANCH  18  20
HETATM   20  O   UNK N   1      18.860  14.420   2.986  0.00  0.00    -0.772 OA
HETATM   21  H   UNK N   1      18.915  13.938   3.787  0.00  0.00     0.167 HD
ENDBRANCH  18  20
ENDBRANCH   4  18
TORSDOF 4
ENDMDL
MODEL 2
REMARK VINA RESULT:      -6.0     11.344     13.971
REMARK  4 active torsions:
REMARK  status: ('A' for Active; 'I' for Inactive)
REMARK    1  A    between atoms: C_6  and  C_4 
REMARK    2  A    between atoms: C_9  and  C_7 
REMARK    3  A    between atoms: C_10  and  C_8 
REMARK    4  A    between atoms: O_18  and  C_10 
ROOT
HETATM    1  C   UNK N   1      35.220  16.653   9.227  0.00  0.00     0.100 C 
HETATM    2  C   UNK N   1      33.368  14.476  10.431  0.00  0.00     0.082 C 
HETATM    3  C   UNK N   1      34.117  17.116   8.610  0.00  0.00     0.015 C 
HETATM    4  C   UNK N   1      34.626  14.804  10.718  0.00  0.00     0.112 C 
HETATM    5  C   UNK N   1      32.889  16.267   8.194  0.00  0.00     0.141 C 
HETATM    6  N   UNK N   1      35.449  15.345   9.715  0.00  0.00    -0.359 N 
HETATM    7  S   UNK N   1      32.777  14.501   8.729  0.00  0.00    -0.123 SA
HETATM    8  H   UNK N   1      36.192  14.811   9.350  0.00  0.00     0.165 HD
ENDROOT
BRANCH   5   9
HETATM    9  C   UNK N   1      31.520  16.930   8.278  0.00  0.00     0.059 A 
HETATM   10  C   UNK N   1      30.576  17.068   7.271  0.00  0.00     0.135 A 
HETATM   11  N   UNK N   1      29.620  17.873   7.773  0.00  0.00    -0.289 N 
HETATM   12  C   UNK N   1      28.432  18.341   7.088  0.00  0.00     0.174 C 
HETATM   13  N   UNK N   1      29.954  18.226   9.000  0.00  0.00    -0.021 NA
HETATM   14  N   UNK N   1      31.109  17.674   9.328  0.00  0.00    -0.285 N 
ATOM     15  HN  UNK N   1      31.601  17.789  10.215  1.00  0.00     0.184 HD
ENDBRANCH   5   9
BRANCH   3  16
HETATM   16  C   UNK N   1      34.274  18.516   8.152  0.00  0.00     0.268 C 
HETATM   17  O   UNK N   1      35.228  19.212   8.448  0.00  0.00    -0.302 OA
ENDBRANCH   3  16
BRANCH   4  18
HETATM   18  C   UNK N   1      35.204  14.550  12.056  0.00  0.00     0.194 C 
HETATM   19  O   UNK N   1      34.666  13.750  12.807  0.00  0.00    -0.645 OA
BRANCH  18  20
HETATM   20  O   UNK N   1      36.293  15.222  12.475  0.00  0.00    -0.772 OA
HETATM   21  H   UNK N   1      37.094  14.773  12.662  0.00  0.00     0.167 HD
ENDBRANCH  18  20
ENDBRANCH   4  18
TORSDOF 4
ENDMDL
MODEL 3
REMARK VINA RESULT:      -5.9     11.139     13.798
REMARK  4 active torsions:
REMARK  status: ('A' for Active; 'I' for Inactive)
REMARK    1  A    between atoms: C_6  and  C_4 
REMARK    2  A    between atoms: C_9  and  C_7 
REMARK    3  A    between atoms: C_10  and  C_8 
REMARK    4  A    between atoms: O_18  and  C_10 
ROOT
HETATM    1  C   UNK N   1      34.987  15.496   7.131  0.00  0.00     0.100 C 
HETATM    2  C   UNK N   1      34.159  14.842  10.047  0.00  0.00     0.082 C 
HETATM    3  C   UNK N   1      33.745  15.995   6.990  0.00  0.00     0.015 C 
HETATM    4  C   UNK N   1      35.349  14.805   9.451  0.00  0.00     0.112 C 
HETATM    5  C   UNK N   1      32.490  15.530   7.771  0.00  0.00     0.141 C 
HETATM    6  N   UNK N   1      35.430  14.539   8.074  0.00  0.00    -0.359 N 
HETATM    7  S   UNK N   1      32.674  14.329   9.164  0.00  0.00    -0.123 SA
HETATM    8  H   UNK N   1      35.798  13.681   7.762  0.00  0.00     0.165 HD
ENDROOT
BRANCH   5   9
HETATM    9  C   UNK N   1      31.454  16.591   8.124  0.00  0.00     0.059 A 
HETATM   10  C   UNK N   1      30.231  16.825   7.513  0.00  0.00     0.135 A 
HETATM   11  N   UNK N   1      29.764  17.966   8.053  0.00  0.00    -0.289 N 
HETATM   12  C   UNK N   1      28.528  18.645   7.716  0.00  0.00     0.174 C 
HETATM   13  N   UNK N   1      30.643  18.420   8.927  0.00  0.00    -0.021 NA
HETATM   14  N   UNK N   1      31.684  17.608   8.982  0.00  0.00    -0.285 N 
ATOM     15  HN  UNK N   1      32.510  17.728   9.568  1.00  0.00     0.184 HD
ENDBRANCH   5   9
BRANCH   3  16
HETATM   16  C   UNK N   1      33.633  16.909   5.829  0.00  0.00     0.268 C 
HETATM   17  O   UNK N   1      34.077  18.042   5.828  0.00  0.00    -0.302 OA
ENDBRANCH   3  16
BRANCH   4  18
HETATM   18  C   UNK N   1      36.603  14.974  10.220  0.00  0.00     0.194 C 
HETATM   19  O   UNK N   1      37.370  14.031  10.344  0.00  0.00    -0.645 OA
BRANCH  18  20
HETATM   20  O   UNK N   1      36.889  16.143  10.823  0.00  0.00    -0.772 OA
HETATM   21  H   UNK N   1      37.358  16.165  11.633  0.00  0.00     0.167 HD
ENDBRANCH  18  20
ENDBRANCH   4  18
TORSDOF 4
ENDMDL
MODEL 4
REMARK VINA RESULT:      -5.9     13.839     15.920
REMARK  4 active torsions:
REMARK  status: ('A' for Active; 'I' for Inactive)
REMARK    1  A    between atoms: C_6  and  C_4 
REMARK    2  A    between atoms: C_9  and  C_7 
REMARK    3  A    between atoms: C_10  and  C_8 
REMARK    4  A    between atoms: O_18  and  C_10 
ROOT
HETATM    1  C   UNK N   1      35.634  16.169  10.744  0.00  0.00     0.100 C 
HETATM    2  C   UNK N   1      33.483  16.183   8.510  0.00  0.00     0.082 C 
HETATM    3  C   UNK N   1      35.478  14.832  10.756  0.00  0.00     0.015 C 
HETATM    4  C   UNK N   1      34.284  17.150   8.953  0.00  0.00     0.112 C 
HETATM    5  C   UNK N   1      34.183  14.070  10.377  0.00  0.00     0.141 C 
HETATM    6  N   UNK N   1      34.711  17.141  10.292  0.00  0.00    -0.359 N 
HETATM    7  S   UNK N   1      32.756  14.997   9.656  0.00  0.00    -0.123 SA
HETATM    8  H   UNK N   1      34.367  17.816  10.920  0.00  0.00     0.165 HD
ENDROOT
BRANCH   5   9
HETATM    9  C   UNK N   1      34.343  12.724   9.681  0.00  0.00     0.059 A 
HETATM   10  C   UNK N   1      34.717  12.482   8.367  0.00  0.00     0.135 A 
HETATM   11  N   UNK N   1      34.542  11.162   8.174  0.00  0.00    -0.289 N 
HETATM   12  C   UNK N   1      34.767  10.426   6.945  0.00  0.00     0.174 C 
HETATM   13  N   UNK N   1      34.075  10.621   9.284  0.00  0.00    -0.021 NA
HETATM   14  N   UNK N   1      33.936  11.551  10.213  0.00  0.00    -0.285 N 
ATOM     15  HN  UNK N   1      33.586  11.408  11.160  1.00  0.00     0.184 HD
ENDBRANCH   5   9
BRANCH   3  16
HETATM   16  C   UNK N   1      36.622  14.137  11.392  0.00  0.00     0.268 C 
HETATM   17  O   UNK N   1      36.656  13.856  12.576  0.00  0.00    -0.302 OA
ENDBRANCH   3  16
BRANCH   4  18
HETATM   18  C   UNK N   1      34.686  18.278   8.082  0.00  0.00     0.194 C 
HETATM   19  O   UNK N   1      34.423  18.247   6.889  0.00  0.00    -0.645 OA
BRANCH  18  20
HETATM   20  O   UNK N   1      35.377  19.320   8.580  0.00  0.00    -0.772 OA
HETATM   21  H   UNK N   1      36.201  19.572   8.212  0.00  0.00     0.167 HD
ENDBRANCH  18  20
ENDBRANCH   4  18
TORSDOF 4
ENDMDL
MODEL 5
REMARK VINA RESULT:      -5.8      3.486      6.350
REMARK  4 active torsions:
REMARK  status: ('A' for Active; 'I' for Inactive)
REMARK    1  A    between atoms: C_6  and  C_4 
REMARK    2  A    between atoms: C_9  and  C_7 
REMARK    3  A    between atoms: C_10  and  C_8 
REMARK    4  A    between atoms: O_18  and  C_10 
ROOT
HETATM    1  C   UNK N   1      20.066  16.271   3.233  0.00  0.00     0.100 C 
HETATM    2  C   UNK N   1      21.466  18.501   4.872  0.00  0.00     0.082 C 
HETATM    3  C   UNK N   1      20.132  15.534   4.358  0.00  0.00     0.015 C 
HETATM    4  C   UNK N   1      20.894  18.534   3.670  0.00  0.00     0.112 C 
HETATM    5  C   UNK N   1      21.208  15.670   5.465  0.00  0.00     0.141 C 
HETATM    6  N   UNK N   1      20.878  17.373   2.876  0.00  0.00    -0.359 N 
HETATM    7  S   UNK N   1      22.419  17.065   5.398  0.00  0.00    -0.123 SA
HETATM    8  H   UNK N   1      21.434  17.328   2.065  0.00  0.00     0.165 HD
ENDROOT
BRANCH   5   9
HETATM    9  C   UNK N   1      20.764  15.427   6.903  0.00  0.00     0.059 A 
HETATM   10  C   UNK N   1      21.238  14.474   7.793  0.00  0.00     0.135 A 
HETATM   11  N   UNK N   1      20.422  14.532   8.861  0.00  0.00    -0.289 N 
HETATM   12  C   UNK N   1      20.487  13.706  10.050  0.00  0.00     0.174 C 
HETATM   13  N   UNK N   1      19.494  15.445   8.646  0.00  0.00    -0.021 NA
HETATM   14  N   UNK N   1      19.673  15.997   7.459  0.00  0.00    -0.285 N 
ATOM     15  HN  UNK N   1      19.093  16.724   7.038  1.00  0.00     0.184 HD
ENDBRANCH   5   9
BRANCH   3  16
HETATM   16  C   UNK N   1      19.183  14.397   4.342  0.00  0.00     0.268 C 
HETATM   17  O   UNK N   1      18.150  14.382   4.986  0.00  0.00    -0.302 OA
ENDBRANCH   3  16
BRANCH   4  18
HETATM   18  C   UNK N   1      20.329  19.785   3.117  0.00  0.00     0.194 C 
HETATM   19  O   UNK N   1      20.284  20.789   3.813  0.00  0.00    -0.645 OA
BRANCH  18  20
HETATM   20  O   UNK N   1      19.823  19.820   1.870  0.00  0.00    -0.772 OA
HETATM   21  H   UNK N   1      19.333  20.560   1.570  0.00  0.00     0.167 HD
ENDBRANCH  18  20
ENDBRANCH   4  18
TORSDOF 4
ENDMDL
MODEL 6
REMARK VINA RESULT:      -5.7     13.076     15.686
REMARK  4 active torsions:
REMARK  status: ('A' for Active; 'I' for Inactive)
REMARK    1  A    between atoms: C_6  and  C_4 
REMARK    2  A    between atoms: C_9  and  C_7 
REMARK    3  A    between atoms: C_10  and  C_8 
REMARK    4  A    between atoms: O_18  and  C_10 
ROOT
HETATM    1  C   UNK N   1      35.597  16.575  10.610  0.00  0.00     0.100 C 
HETATM    2  C   UNK N   1      35.892  13.503  10.909  0.00  0.00     0.082 C 
HETATM    3  C   UNK N   1      35.009  16.310   9.429  0.00  0.00     0.015 C 
HETATM    4  C   UNK N   1      36.089  14.485  11.786  0.00  0.00     0.112 C 
HETATM    5  C   UNK N   1      35.286  15.071   8.540  0.00  0.00     0.141 C 
HETATM    6  N   UNK N   1      36.493  15.752  11.331  0.00  0.00    -0.359 N 
HETATM    7  S   UNK N   1      36.358  13.708   9.180  0.00  0.00    -0.123 SA
HETATM    8  H   UNK N   1      37.406  16.070  11.517  0.00  0.00     0.165 HD
ENDROOT
BRANCH   5   9
HETATM    9  C   UNK N   1      34.111  14.494   7.760  0.00  0.00     0.059 A 
HETATM   10  C   UNK N   1      33.920  14.487   6.385  0.00  0.00     0.135 A 
HETATM   11  N   UNK N   1      32.667  14.035   6.192  0.00  0.00    -0.289 N 
HETATM   12  C   UNK N   1      31.987  13.878   4.921  0.00  0.00     0.174 C 
HETATM   13  N   UNK N   1      32.109  13.794   7.364  0.00  0.00    -0.021 NA
HETATM   14  N   UNK N   1      32.962  14.074   8.334  0.00  0.00    -0.285 N 
ATOM     15  HN  UNK N   1      32.785  13.987   9.335  1.00  0.00     0.184 HD
ENDBRANCH   5   9
BRANCH   3  16
HETATM   16  C   UNK N   1      34.206  17.450   8.930  0.00  0.00     0.268 C 
HETATM   17  O   UNK N   1      34.696  18.503   8.568  0.00  0.00    -0.302 OA
ENDBRANCH   3  16
BRANCH   4  18
HETATM   18  C   UNK N   1      35.955  14.258  13.242  0.00  0.00     0.194 C 
HETATM   19  O   UNK N   1      35.002  13.624  13.672  0.00  0.00    -0.645 OA
BRANCH  18  20
HETATM   20  O   UNK N   1      36.848  14.777  14.105  0.00  0.00    -0.772 OA
HETATM   21  H   UNK N   1      37.044  15.693  14.102  0.00  0.00     0.167 HD
ENDBRANCH  18  20
ENDBRANCH   4  18
TORSDOF 4
ENDMDL
MODEL 7
REMARK VINA RESULT:      -5.6      7.531      9.541
REMARK  4 active torsions:
REMARK  status: ('A' for Active; 'I' for Inactive)
REMARK    1  A    between atoms: C_6  and  C_4 
REMARK    2  A    between atoms: C_9  and  C_7 
REMARK    3  A    between atoms: C_10  and  C_8 
REMARK    4  A    between atoms: O_18  and  C_10 
ROOT
HETATM    1  C   UNK N   1      29.151  18.119   8.045  0.00  0.00     0.100 C 
HETATM    2  C   UNK N   1      27.646  18.825   5.428  0.00  0.00     0.082 C 
HETATM    3  C   UNK N   1      29.989  17.414   7.262  0.00  0.00     0.015 C 
HETATM    4  C   UNK N   1      27.520  19.310   6.661  0.00  0.00     0.112 C 
HETATM    5  C   UNK N   1      29.620  16.751   5.912  0.00  0.00     0.141 C 
HETATM    6  N   UNK N   1      27.815  18.490   7.764  0.00  0.00    -0.359 N 
HETATM    7  S   UNK N   1      27.964  17.072   5.158  0.00  0.00    -0.123 SA
HETATM    8  H   UNK N   1      27.088  18.171   8.346  0.00  0.00     0.165 HD
ENDROOT
BRANCH   5   9
HETATM    9  C   UNK N   1      30.695  16.723   4.831  0.00  0.00     0.059 A 
HETATM   10  C   UNK N   1      31.493  15.654   4.449  0.00  0.00     0.135 A 
HETATM   11  N   UNK N   1      32.400  16.162   3.593  0.00  0.00    -0.289 N 
HETATM   12  C   UNK N   1      33.477  15.443   2.942  0.00  0.00     0.174 C 
HETATM   13  N   UNK N   1      32.192  17.459   3.464  0.00  0.00    -0.021 NA
HETATM   14  N   UNK N   1      31.167  17.827   4.213  0.00  0.00    -0.285 N 
ATOM     15  HN  UNK N   1      30.799  18.774   4.307  1.00  0.00     0.184 HD
ENDBRANCH   5   9
BRANCH   3  16
HETATM   16  C   UNK N   1      31.282  17.135   7.929  0.00  0.00     0.268 C 
HETATM   17  O   UNK N   1      31.879  17.958   8.598  0.00  0.00    -0.302 OA
ENDBRANCH   3  16
BRANCH   4  18
HETATM   18  C   UNK N   1      27.012  20.678   6.905  0.00  0.00     0.194 C 
HETATM   19  O   UNK N   1      27.464  21.616   6.266  0.00  0.00    -0.645 OA
BRANCH  18  20
HETATM   20  O   UNK N   1      26.086  20.910   7.854  0.00  0.00    -0.772 OA
HETATM   21  H   UNK N   1      25.968  20.315   8.568  0.00  0.00     0.167 HD
ENDBRANCH  18  20
ENDBRANCH   4  18
TORSDOF 4
ENDMDL
MODEL 8
REMARK VINA RESULT:      -5.5      7.565     10.105
REMARK  4 active torsions:
REMARK  status: ('A' for Active; 'I' for Inactive)
REMARK    1  A    between atoms: C_6  and  C_4 
REMARK    2  A    between atoms: C_9  and  C_7 
REMARK    3  A    between atoms: C_10  and  C_8 
REMARK    4  A    between atoms: O_18  and  C_10 
ROOT
HETATM    1  C   UNK N   1      27.965  18.342   7.888  0.00  0.00     0.100 C 
HETATM    2  C   UNK N   1      29.346  18.117   5.121  0.00  0.00     0.082 C 
HETATM    3  C   UNK N   1      29.075  17.765   8.384  0.00  0.00     0.015 C 
HETATM    4  C   UNK N   1      28.244  18.764   5.493  0.00  0.00     0.112 C 
HETATM    5  C   UNK N   1      30.006  16.790   7.619  0.00  0.00     0.141 C 
HETATM    6  N   UNK N   1      27.476  18.272   6.562  0.00  0.00    -0.359 N 
HETATM    7  S   UNK N   1      29.740  16.500   5.813  0.00  0.00    -0.123 SA
HETATM    8  H   UNK N   1      26.591  17.878   6.388  0.00  0.00     0.165 HD
ENDROOT
BRANCH   5   9
HETATM    9  C   UNK N   1      31.497  16.863   7.927  0.00  0.00     0.059 A 
HETATM   10  C   UNK N   1      32.365  15.814   8.197  0.00  0.00     0.135 A 
HETATM   11  N   UNK N   1      33.522  16.385   8.579  0.00  0.00    -0.289 N 
HETATM   12  C   UNK N   1      34.731  15.703   8.998  0.00  0.00     0.174 C 
HETATM   13  N   UNK N   1      33.380  17.698   8.565  0.00  0.00    -0.021 NA
HETATM   14  N   UNK N   1      32.156  18.014   8.182  0.00  0.00    -0.285 N 
ATOM     15  HN  UNK N   1      31.778  18.958   8.093  1.00  0.00     0.184 HD
ENDBRANCH   5   9
BRANCH   3  16
HETATM   16  C   UNK N   1      29.217  17.979   9.843  0.00  0.00     0.268 C 
HETATM   17  O   UNK N   1      29.788  18.940  10.324  0.00  0.00    -0.302 OA
ENDBRANCH   3  16
BRANCH   4  18
HETATM   18  C   UNK N   1      27.768  19.961   4.762  0.00  0.00     0.194 C 
HETATM   19  O   UNK N   1      27.499  20.981   5.380  0.00  0.00    -0.645 OA
BRANCH  18  20
HETATM   20  O   UNK N   1      27.585  19.926   3.430  0.00  0.00    -0.772 OA
HETATM   21  H   UNK N   1      28.184  20.354   2.850  0.00  0.00     0.167 HD
ENDBRANCH  18  20
ENDBRANCH   4  18
TORSDOF 4
ENDMDL
MODEL 9
REMARK VINA RESULT:      -5.5      9.980     12.513
REMARK  4 active torsions:
REMARK  status: ('A' for Active; 'I' for Inactive)
REMARK    1  A    between atoms: C_6  and  C_4 
REMARK    2  A    between atoms: C_9  and  C_7 
REMARK    3  A    between atoms: C_10  and  C_8 
REMARK    4  A    between atoms: O_18  and  C_10 
ROOT
HETATM    1  C   UNK N   1      31.347  16.434   8.275  0.00  0.00     0.100 C 
HETATM    2  C   UNK N   1      34.438  16.311   8.067  0.00  0.00     0.082 C 
HETATM    3  C   UNK N   1      31.355  16.543   6.933  0.00  0.00     0.015 C 
HETATM    4  C   UNK N   1      33.626  16.082   9.097  0.00  0.00     0.112 C 
HETATM    5  C   UNK N   1      32.494  17.161   6.084  0.00  0.00     0.141 C 
HETATM    6  N   UNK N   1      32.393  16.753   9.172  0.00  0.00    -0.359 N 
HETATM    7  S   UNK N   1      34.086  17.634   6.895  0.00  0.00    -0.123 SA
HETATM    8  H   UNK N   1      32.256  17.449   9.855  0.00  0.00     0.165 HD
ENDROOT
BRANCH   5   9
HETATM    9  C   UNK N   1      32.763  16.539   4.719  0.00  0.00     0.059 A 
HETATM   10  C   UNK N   1      33.468  15.379   4.433  0.00  0.00     0.135 A 
HETATM   11  N   UNK N   1      33.587  15.342   3.093  0.00  0.00    -0.289 N 
HETATM   12  C   UNK N   1      34.274  14.335   2.309  0.00  0.00     0.174 C 
HETATM   13  N   UNK N   1      33.012  16.414   2.580  0.00  0.00    -0.021 NA
HETATM   14  N   UNK N   1      32.512  17.163   3.547  0.00  0.00    -0.285 N 
ATOM     15  HN  UNK N   1      32.023  18.051   3.429  1.00  0.00     0.184 HD
ENDBRANCH   5   9
BRANCH   3  16
HETATM   16  C   UNK N   1      30.043  16.207   6.332  0.00  0.00     0.268 C 
HETATM   17  O   UNK N   1      28.989  16.665   6.733  0.00  0.00    -0.302 OA
ENDBRANCH   3  16
BRANCH   4  18
HETATM   18  C   UNK N   1      34.018  15.182  10.205  0.00  0.00     0.194 C 
HETATM   19  O   UNK N   1      35.121  14.656  10.197  0.00  0.00    -0.645 OA
BRANCH  18  20
HETATM   20  O   UNK N   1      33.158  14.901  11.201  0.00  0.00    -0.772 OA
HETATM   21  H   UNK N   1      32.563  15.550  11.522  0.00  0.00     0.167 HD
ENDBRANCH  18  20
ENDBRANCH   4  18
TORSDOF 4
ENDMDL
