MODEL 1
REMARK VINA RESULT:      -7.5      0.000      0.000
REMARK  18 active torsions:
REMARK  status: ('A' for Active; 'I' for Inactive)
REMARK    1  A    between atoms: C_5  and  C_3 
REMARK    2  A    between atoms: O_33  and  C_3 
REMARK    3  A    between atoms: C_6  and  C_4 
REMARK    4  A    between atoms: S_40  and  C_4 
REMARK    5  A    between atoms: O_19  and  C_7 
REMARK    6  A    between atoms: C_8  and  O_20 
REMARK    7  A    between atoms: C_9  and  O_21 
REMARK    8  A    between atoms: C_10  and  O_22 
REMARK    9  A    between atoms: C_11  and  O_23 
REMARK   10  A    between atoms: C_13  and  N_18 
REMARK   11  A    between atoms: C_14  and  O_36 
REMARK   12  A    between atoms: P_38  and  O_26 
REMARK   13  A    between atoms: P_39  and  O_28 
REMARK   14  A    between atoms: S_40  and  O_30 
REMARK   15  A    between atoms: P_38  and  O_33 
REMARK   16  A    between atoms: P_39  and  O_36 
REMARK   17  A    between atoms: P_38  and  O_37 
REMARK   18  A    between atoms: P_39  and  O_37 
ROOT
HETATM    1  C   UNK N   1      34.787  15.318   9.109  0.00  0.00     0.171 C 
HETATM    2  C   UNK N   1      34.577  14.407  10.347  0.00  0.00     0.179 C 
HETATM    3  C   UNK N   1      34.455  12.959   9.895  0.00  0.00     0.183 C 
HETATM    4  C   UNK N   1      33.351  12.856   8.862  0.00  0.00     0.205 C 
HETATM    5  C   UNK N   1      33.662  13.808   7.695  0.00  0.00     0.303 C 
HETATM    6  O   UNK N   1      32.099  13.161   9.411  0.00  0.00    -0.388 OA
HETATM    7  O   UNK N   1      33.737  15.147   8.165  0.00  0.00    -0.349 OA
HETATM    8  H   UNK N   1      31.235  13.426   9.765  0.00  0.00     0.210 HD
ENDROOT
BRANCH   3   9
HETATM    9  O   UNK N   1      34.189  12.119  10.978  0.00  0.00    -0.390 OA
HETATM   10  H   UNK N   1      33.361  11.623  11.071  0.00  0.00     0.210 HD
ENDBRANCH   3   9
BRANCH   5  11
HETATM   11  O   UNK N   1      32.595  13.730   6.773  0.00  0.00    -0.263 OA
BRANCH  11  12
HETATM   12  P   UNK N   1      32.859  14.794   5.407  0.00  0.00     0.404 P 
HETATM   13  O   UNK N   1      32.339  14.073   4.134  0.00  0.00    -0.631 OA
BRANCH  12  14
HETATM   14  O   UNK N   1      34.562  14.988   5.129  0.00  0.00    -0.307 OA
HETATM   15  H   UNK N   1      35.238  15.168   5.802  0.00  0.00     0.222 HD
ENDBRANCH  12  14
BRANCH  12  16
HETATM   16  O   UNK N   1      32.068  16.369   5.471  0.00  0.00    -0.195 OA
BRANCH  16  17
HETATM   17  P   UNK N   1      31.376  16.800   3.909  0.00  0.00     0.401 P 
HETATM   18  O   UNK N   1      31.551  18.345   3.815  0.00  0.00    -0.631 OA
BRANCH  17  19
HETATM   19  O   UNK N   1      33.103  16.961   3.999  0.00  0.00    -0.307 OA
HETATM   20  H   UNK N   1      33.994  16.635   4.200  0.00  0.00     0.222 HD
ENDBRANCH  17  19
BRANCH  17  21
HETATM   21  O   UNK N   1      30.247  17.181   5.160  0.00  0.00    -0.294 OA
BRANCH  21  22
HETATM   22  C   UNK N   1      28.948  16.988   4.697  0.00  0.00     0.215 C 
BRANCH  22  23
HETATM   23  C   UNK N   1      28.306  18.357   4.665  0.00  0.00     0.180 C 
HETATM   24  C   UNK N   1      27.929  18.904   6.045  0.00  0.00     0.182 C 
HETATM   25  C   UNK N   1      26.905  19.953   5.670  0.00  0.00     0.198 C 
HETATM   26  C   UNK N   1      26.503  19.551   4.232  0.00  0.00     0.263 C 
HETATM   27  O   UNK N   1      27.093  18.298   3.959  0.00  0.00    -0.353 OA
BRANCH  24  28
HETATM   28  O   UNK N   1      27.263  17.939   6.812  0.00  0.00    -0.390 OA
HETATM   29  H   UNK N   1      26.500  17.341   6.773  0.00  0.00     0.210 HD
ENDBRANCH  24  28
BRANCH  25  30
HETATM   30  O   UNK N   1      27.490  21.221   5.661  0.00  0.00    -0.388 OA
HETATM   31  H   UNK N   1      27.774  21.665   6.475  0.00  0.00     0.210 HD
ENDBRANCH  25  30
BRANCH  26  32
HETATM   32  N   UNK N   1      25.048  19.550   3.999  0.00  0.00    -0.280 N 
HETATM   33  C   UNK N   1      24.243  18.709   4.716  0.00  0.00     0.103 A 
HETATM   34  C   UNK N   1      22.877  18.636   4.452  0.00  0.00     0.073 A 
HETATM   35  C   UNK N   1      22.345  19.431   3.443  0.00  0.00     0.144 A 
HETATM   36  N   UNK N   1      23.150  20.271   2.747  0.00  0.00    -0.289 N 
HETATM   37  C   UNK N   1      24.491  20.341   3.010  0.00  0.00     0.330 A 
ATOM     38  HN  UNK N   1      22.750  20.860   2.016  1.00  0.00     0.172 HD
HETATM   39  O   UNK N   1      25.191  21.091   2.349  0.00  0.00    -0.246 OA
BRANCH  35  40
HETATM   40  O   UNK N   1      21.035  19.362   3.150  0.00  0.00    -0.346 OA
HETATM   41  H   UNK N   1      20.420  20.005   3.443  0.00  0.00     0.219 HD
ENDBRANCH  35  40
ENDBRANCH  26  32
ENDBRANCH  22  23
ENDBRANCH  21  22
ENDBRANCH  17  21
ENDBRANCH  16  17
ENDBRANCH  12  16
ENDBRANCH  11  12
ENDBRANCH   5  11
BRANCH   2  42
HETATM   42  O   UNK N   1      33.424  14.794  11.040  0.00  0.00    -0.390 OA
HETATM   43  H   UNK N   1      32.682  14.940  11.647  0.00  0.00     0.210 HD
ENDBRANCH   2  42
BRANCH   1  44
HETATM   44  C   UNK N   1      34.789  16.800   9.505  0.00  0.00     0.190 C 
BRANCH  44  45
HETATM   45  S   UNK N   1      34.298  17.943   8.169  0.00  0.00     0.096 S 
HETATM   46  O   UNK N   1      34.975  19.309   8.341  0.00  0.00    -0.601 OA
HETATM   47  O   UNK N   1      32.814  18.334   8.205  0.00  0.00    -0.601 OA
BRANCH  45  48
HETATM   48  O   UNK N   1      34.636  17.508   6.541  0.00  0.00    -0.296 OA
HETATM   49  H   UNK N   1      34.656  18.054   5.741  0.00  0.00     0.232 HD
ENDBRANCH  45  48
ENDBRANCH  44  45
ENDBRANCH   1  44
TORSDOF 18
ENDMDL
MODEL 2
REMARK VINA RESULT:      -7.4      2.873      4.845
REMARK  18 active torsions:
REMARK  status: ('A' for Active; 'I' for Inactive)
REMARK    1  A    between atoms: C_5  and  C_3 
REMARK    2  A    between atoms: O_33  and  C_3 
REMARK    3  A    between atoms: C_6  and  C_4 
REMARK    4  A    between atoms: S_40  and  C_4 
REMARK    5  A    between atoms: O_19  and  C_7 
REMARK    6  A    between atoms: C_8  and  O_20 
REMARK    7  A    between atoms: C_9  and  O_21 
REMARK    8  A    between atoms: C_10  and  O_22 
REMARK    9  A    between atoms: C_11  and  O_23 
REMARK   10  A    between atoms: C_13  and  N_18 
REMARK   11  A    between atoms: C_14  and  O_36 
REMARK   12  A    between atoms: P_38  and  O_26 
REMARK   13  A    between atoms: P_39  and  O_28 
REMARK   14  A    between atoms: S_40  and  O_30 
REMARK   15  A    between atoms: P_38  and  O_33 
REMARK   16  A    between atoms: P_39  and  O_36 
REMARK   17  A    between atoms: P_38  and  O_37 
REMARK   18  A    between atoms: P_39  and  O_37 
ROOT
HETATM    1  C   UNK N   1      34.762  13.665  10.382  0.00  0.00     0.171 C 
HETATM    2  C   UNK N   1      35.777  13.622  11.553  0.00  0.00     0.179 C 
HETATM    3  C   UNK N   1      35.721  14.935  12.320  0.00  0.00     0.183 C 
HETATM    4  C   UNK N   1      35.945  16.081  11.354  0.00  0.00     0.205 C 
HETATM    5  C   UNK N   1      34.891  16.012  10.237  0.00  0.00     0.303 C 
HETATM    6  O   UNK N   1      37.233  16.049  10.804  0.00  0.00    -0.388 OA
HETATM    7  O   UNK N   1      35.005  14.782   9.535  0.00  0.00    -0.349 OA
HETATM    8  H   UNK N   1      38.100  16.005  10.373  0.00  0.00     0.210 HD
ENDROOT
BRANCH   3   9
HETATM    9  O   UNK N   1      36.678  14.960  13.337  0.00  0.00    -0.390 OA
HETATM   10  H   UNK N   1      37.457  14.381  13.344  0.00  0.00     0.210 HD
ENDBRANCH   3   9
BRANCH   5  11
HETATM   11  O   UNK N   1      35.153  17.058   9.326  0.00  0.00    -0.263 OA
BRANCH  11  12
HETATM   12  P   UNK N   1      33.906  17.158   8.099  0.00  0.00     0.404 P 
HETATM   13  O   UNK N   1      33.265  18.570   8.186  0.00  0.00    -0.631 OA
BRANCH  12  14
HETATM   14  O   UNK N   1      32.609  16.069   8.485  0.00  0.00    -0.307 OA
HETATM   15  H   UNK N   1      32.619  15.104   8.383  0.00  0.00     0.222 HD
ENDBRANCH  12  14
BRANCH  12  16
HETATM   16  O   UNK N   1      34.424  16.924   6.430  0.00  0.00    -0.195 OA
BRANCH  16  17
HETATM   17  P   UNK N   1      33.527  15.617   5.661  0.00  0.00     0.401 P 
HETATM   18  O   UNK N   1      34.542  14.978   4.667  0.00  0.00    -0.631 OA
BRANCH  17  19
HETATM   19  O   UNK N   1      34.786  15.090   6.737  0.00  0.00    -0.307 OA
HETATM   20  H   UNK N   1      35.130  14.832   7.606  0.00  0.00     0.222 HD
ENDBRANCH  17  19
BRANCH  17  21
HETATM   21  O   UNK N   1      33.599  16.970   4.589  0.00  0.00    -0.294 OA
BRANCH  21  22
HETATM   22  C   UNK N   1      32.564  16.891   3.662  0.00  0.00     0.215 C 
BRANCH  22  23
HETATM   23  C   UNK N   1      31.322  16.529   4.448  0.00  0.00     0.180 C 
HETATM   24  C   UNK N   1      30.168  16.005   3.589  0.00  0.00     0.182 C 
HETATM   25  C   UNK N   1      28.994  16.227   4.516  0.00  0.00     0.198 C 
HETATM   26  C   UNK N   1      29.546  17.241   5.544  0.00  0.00     0.263 C 
HETATM   27  O   UNK N   1      30.808  17.673   5.081  0.00  0.00    -0.353 OA
BRANCH  24  28
HETATM   28  O   UNK N   1      29.960  16.816   2.465  0.00  0.00    -0.390 OA
HETATM   29  H   UNK N   1      29.394  16.883   1.679  0.00  0.00     0.210 HD
ENDBRANCH  24  28
BRANCH  25  30
HETATM   30  O   UNK N   1      28.653  15.036   5.162  0.00  0.00    -0.388 OA
HETATM   31  H   UNK N   1      28.621  14.964   6.128  0.00  0.00     0.210 HD
ENDBRANCH  25  30
BRANCH  26  32
HETATM   32  N   UNK N   1      28.635  18.366   5.820  0.00  0.00    -0.280 N 
HETATM   33  C   UNK N   1      28.279  19.218   4.812  0.00  0.00     0.103 A 
HETATM   34  C   UNK N   1      27.484  20.333   5.071  0.00  0.00     0.073 A 
HETATM   35  C   UNK N   1      27.061  20.567   6.375  0.00  0.00     0.144 A 
HETATM   36  N   UNK N   1      27.409  19.708   7.364  0.00  0.00    -0.289 N 
HETATM   37  C   UNK N   1      28.189  18.613   7.105  0.00  0.00     0.330 A 
ATOM     38  HN  UNK N   1      27.085  19.880   8.316  1.00  0.00     0.172 HD
HETATM   39  O   UNK N   1      28.502  17.874   8.023  0.00  0.00    -0.246 OA
BRANCH  35  40
HETATM   40  O   UNK N   1      26.315  21.648   6.657  0.00  0.00    -0.346 OA
HETATM   41  H   UNK N   1      25.419  21.585   6.927  0.00  0.00     0.219 HD
ENDBRANCH  35  40
ENDBRANCH  26  32
ENDBRANCH  22  23
ENDBRANCH  21  22
ENDBRANCH  17  21
ENDBRANCH  16  17
ENDBRANCH  12  16
ENDBRANCH  11  12
ENDBRANCH   5  11
BRANCH   2  42
HETATM   42  O   UNK N   1      37.070  13.407  11.061  0.00  0.00    -0.390 OA
HETATM   43  H   UNK N   1      37.996  13.432  10.775  0.00  0.00     0.210 HD
ENDBRANCH   2  42
BRANCH   1  44
HETATM   44  C   UNK N   1      34.873  12.412   9.504  0.00  0.00     0.190 C 
BRANCH  44  45
HETATM   45  S   UNK N   1      33.422  12.098   8.442  0.00  0.00     0.096 S 
HETATM   46  O   UNK N   1      32.492  11.058   9.079  0.00  0.00    -0.601 OA
HETATM   47  O   UNK N   1      33.767  11.419   7.110  0.00  0.00    -0.601 OA
BRANCH  45  48
HETATM   48  O   UNK N   1      32.381  13.409   8.053  0.00  0.00    -0.296 OA
HETATM   49  H   UNK N   1      32.454  14.077   7.353  0.00  0.00     0.232 HD
ENDBRANCH  45  48
ENDBRANCH  44  45
ENDBRANCH   1  44
TORSDOF 18
ENDMDL
MODEL 3
REMARK VINA RESULT:      -7.4      6.639     12.101
REMARK  18 active torsions:
REMARK  status: ('A' for Active; 'I' for Inactive)
REMARK    1  A    between atoms: C_5  and  C_3 
REMARK    2  A    between atoms: O_33  and  C_3 
REMARK    3  A    between atoms: C_6  and  C_4 
REMARK    4  A    between atoms: S_40  and  C_4 
REMARK    5  A    between atoms: O_19  and  C_7 
REMARK    6  A    between atoms: C_8  and  O_20 
REMARK    7  A    between atoms: C_9  and  O_21 
REMARK    8  A    between atoms: C_10  and  O_22 
REMARK    9  A    between atoms: C_11  and  O_23 
REMARK   10  A    between atoms: C_13  and  N_18 
REMARK   11  A    between atoms: C_14  and  O_36 
REMARK   12  A    between atoms: P_38  and  O_26 
REMARK   13  A    between atoms: P_39  and  O_28 
REMARK   14  A    between atoms: S_40  and  O_30 
REMARK   15  A    between atoms: P_38  and  O_33 
REMARK   16  A    between atoms: P_39  and  O_36 
REMARK   17  A    between atoms: P_38  and  O_37 
REMARK   18  A    between atoms: P_39  and  O_37 
ROOT
HETATM    1  C   UNK N   1      33.922  16.227   7.330  0.00  0.00     0.171 C 
HETATM    2  C   UNK N   1      34.139  17.023   8.644  0.00  0.00     0.179 C 
HETATM    3  C   UNK N   1      34.685  16.090   9.715  0.00  0.00     0.183 C 
HETATM    4  C   UNK N   1      33.751  14.905   9.861  0.00  0.00     0.205 C 
HETATM    5  C   UNK N   1      33.605  14.208   8.498  0.00  0.00     0.303 C 
HETATM    6  O   UNK N   1      32.493  15.294  10.339  0.00  0.00    -0.388 OA
HETATM    7  O   UNK N   1      33.066  15.111   7.544  0.00  0.00    -0.349 OA
HETATM    8  H   UNK N   1      31.601  15.558  10.615  0.00  0.00     0.210 HD
ENDROOT
BRANCH   3   9
HETATM    9  O   UNK N   1      34.820  16.757  10.935  0.00  0.00    -0.390 OA
HETATM   10  H   UNK N   1      34.096  16.841  11.575  0.00  0.00     0.210 HD
ENDBRANCH   3   9
BRANCH   5  11
HETATM   11  O   UNK N   1      32.694  13.141   8.651  0.00  0.00    -0.263 OA
BRANCH  11  12
HETATM   12  P   UNK N   1      33.521  11.654   9.066  0.00  0.00     0.404 P 
HETATM   13  O   UNK N   1      34.620  11.406   7.997  0.00  0.00    -0.631 OA
BRANCH  12  14
HETATM   14  O   UNK N   1      32.437  10.307   8.892  0.00  0.00    -0.307 OA
HETATM   15  H   UNK N   1      32.630   9.382   9.110  0.00  0.00     0.222 HD
ENDBRANCH  12  14
BRANCH  12  16
HETATM   16  O   UNK N   1      34.308  11.604  10.643  0.00  0.00    -0.195 OA
BRANCH  16  17
HETATM   17  P   UNK N   1      36.019  11.210  10.490  0.00  0.00     0.401 P 
HETATM   18  O   UNK N   1      36.370  10.470  11.814  0.00  0.00    -0.631 OA
BRANCH  17  19
HETATM   19  O   UNK N   1      34.955   9.838  10.415  0.00  0.00    -0.307 OA
HETATM   20  H   UNK N   1      34.760   8.902  10.256  0.00  0.00     0.222 HD
ENDBRANCH  17  19
BRANCH  17  21
HETATM   21  O   UNK N   1      35.837  12.588  11.515  0.00  0.00    -0.294 OA
BRANCH  21  22
HETATM   22  C   UNK N   1      34.969  12.286  12.561  0.00  0.00     0.215 C 
BRANCH  22  23
HETATM   23  C   UNK N   1      35.341  13.214  13.697  0.00  0.00     0.180 C 
HETATM   24  C   UNK N   1      36.848  13.325  13.946  0.00  0.00     0.182 C 
HETATM   25  C   UNK N   1      36.868  13.851  15.364  0.00  0.00     0.198 C 
HETATM   26  C   UNK N   1      35.445  13.530  15.876  0.00  0.00     0.263 C 
HETATM   27  O   UNK N   1      34.813  12.726  14.903  0.00  0.00    -0.353 OA
BRANCH  24  28
HETATM   28  O   UNK N   1      37.456  12.063  13.969  0.00  0.00    -0.390 OA
HETATM   29  H   UNK N   1      37.907  11.433  13.385  0.00  0.00     0.210 HD
ENDBRANCH  24  28
BRANCH  25  30
HETATM   30  O   UNK N   1      37.072  15.232  15.368  0.00  0.00    -0.388 OA
HETATM   31  H   UNK N   1      37.325  15.715  16.169  0.00  0.00     0.210 HD
ENDBRANCH  25  30
BRANCH  26  32
HETATM   32  N   UNK N   1      35.419  12.915  17.216  0.00  0.00    -0.280 N 
HETATM   33  C   UNK N   1      35.378  11.554  17.341  0.00  0.00     0.103 A 
HETATM   34  C   UNK N   1      35.271  10.958  18.596  0.00  0.00     0.073 A 
HETATM   35  C   UNK N   1      35.201  11.772  19.722  0.00  0.00     0.144 A 
HETATM   36  N   UNK N   1      35.256  13.120  19.587  0.00  0.00    -0.289 N 
HETATM   37  C   UNK N   1      35.363  13.701  18.352  0.00  0.00     0.330 A 
ATOM     38  HN  UNK N   1      35.216  13.711  20.418  1.00  0.00     0.172 HD
HETATM   39  O   UNK N   1      35.386  14.918  18.265  0.00  0.00    -0.246 OA
BRANCH  35  40
HETATM   40  O   UNK N   1      35.072  11.226  20.942  0.00  0.00    -0.346 OA
HETATM   41  H   UNK N   1      35.423  11.626  21.713  0.00  0.00     0.219 HD
ENDBRANCH  35  40
ENDBRANCH  26  32
ENDBRANCH  22  23
ENDBRANCH  21  22
ENDBRANCH  17  21
ENDBRANCH  16  17
ENDBRANCH  12  16
ENDBRANCH  11  12
ENDBRANCH   5  11
BRANCH   2  42
HETATM   42  O   UNK N   1      32.931  17.589   9.068  0.00  0.00    -0.390 OA
HETATM   43  H   UNK N   1      32.200  18.127   9.410  0.00  0.00     0.210 HD
ENDBRANCH   2  42
BRANCH   1  44
HETATM   44  C   UNK N   1      33.253  17.098   6.258  0.00  0.00     0.190 C 
BRANCH  44  45
HETATM   45  S   UNK N   1      31.469  16.785   6.030  0.00  0.00     0.096 S 
HETATM   46  O   UNK N   1      30.921  17.582   4.839  0.00  0.00    -0.601 OA
HETATM   47  O   UNK N   1      30.598  17.316   7.177  0.00  0.00    -0.601 OA
BRANCH  45  48
HETATM   48  O   UNK N   1      30.942  15.176   5.737  0.00  0.00    -0.296 OA
HETATM   49  H   UNK N   1      31.235  14.341   6.134  0.00  0.00     0.232 HD
ENDBRANCH  45  48
ENDBRANCH  44  45
ENDBRANCH   1  44
TORSDOF 18
ENDMDL
MODEL 4
REMARK VINA RESULT:      -7.3      5.054     10.938
REMARK  18 active torsions:
REMARK  status: ('A' for Active; 'I' for Inactive)
REMARK    1  A    between atoms: C_5  and  C_3 
REMARK    2  A    between atoms: O_33  and  C_3 
REMARK    3  A    between atoms: C_6  and  C_4 
REMARK    4  A    between atoms: S_40  and  C_4 
REMARK    5  A    between atoms: O_19  and  C_7 
REMARK    6  A    between atoms: C_8  and  O_20 
REMARK    7  A    between atoms: C_9  and  O_21 
REMARK    8  A    between atoms: C_10  and  O_22 
REMARK    9  A    between atoms: C_11  and  O_23 
REMARK   10  A    between atoms: C_13  and  N_18 
REMARK   11  A    between atoms: C_14  and  O_36 
REMARK   12  A    between atoms: P_38  and  O_26 
REMARK   13  A    between atoms: P_39  and  O_28 
REMARK   14  A    between atoms: S_40  and  O_30 
REMARK   15  A    between atoms: P_38  and  O_33 
REMARK   16  A    between atoms: P_39  and  O_36 
REMARK   17  A    between atoms: P_38  and  O_37 
REMARK   18  A    between atoms: P_39  and  O_37 
ROOT
HETATM    1  C   UNK N   1      29.641  17.133   6.426  0.00  0.00     0.171 C 
HETATM    2  C   UNK N   1      28.991  17.380   5.039  0.00  0.00     0.179 C 
HETATM    3  C   UNK N   1      29.488  16.332   4.054  0.00  0.00     0.183 C 
HETATM    4  C   UNK N   1      31.004  16.350   4.036  0.00  0.00     0.205 C 
HETATM    5  C   UNK N   1      31.528  16.108   5.461  0.00  0.00     0.303 C 
HETATM    6  O   UNK N   1      31.500  17.562   3.541  0.00  0.00    -0.388 OA
HETATM    7  O   UNK N   1      31.060  17.128   6.333  0.00  0.00    -0.349 OA
HETATM    8  H   UNK N   1      31.856  18.418   3.254  0.00  0.00     0.210 HD
ENDROOT
BRANCH   3   9
HETATM    9  O   UNK N   1      28.982  16.570   2.775  0.00  0.00    -0.390 OA
HETATM   10  H   UNK N   1      29.529  16.895   2.042  0.00  0.00     0.210 HD
ENDBRANCH   3   9
BRANCH   5  11
HETATM   11  O   UNK N   1      32.937  16.180   5.425  0.00  0.00    -0.263 OA
BRANCH  11  12
HETATM   12  P   UNK N   1      33.643  15.560   6.904  0.00  0.00     0.404 P 
HETATM   13  O   UNK N   1      34.283  14.182   6.584  0.00  0.00    -0.631 OA
BRANCH  12  14
HETATM   14  O   UNK N   1      32.388  15.199   8.050  0.00  0.00    -0.307 OA
HETATM   15  H   UNK N   1      32.457  15.260   9.016  0.00  0.00     0.222 HD
ENDBRANCH  12  14
BRANCH  12  16
HETATM   16  O   UNK N   1      34.892  16.551   7.656  0.00  0.00    -0.195 OA
BRANCH  16  17
HETATM   17  P   UNK N   1      34.187  17.904   8.539  0.00  0.00     0.401 P 
HETATM   18  O   UNK N   1      35.213  19.062   8.364  0.00  0.00    -0.631 OA
BRANCH  17  19
HETATM   19  O   UNK N   1      34.200  18.100   6.813  0.00  0.00    -0.307 OA
HETATM   20  H   UNK N   1      34.444  17.834   5.913  0.00  0.00     0.222 HD
ENDBRANCH  17  19
BRANCH  17  21
HETATM   21  O   UNK N   1      35.433  17.183   9.494  0.00  0.00    -0.294 OA
BRANCH  21  22
HETATM   22  C   UNK N   1      34.865  16.472  10.549  0.00  0.00     0.215 C 
BRANCH  22  23
HETATM   23  C   UNK N   1      35.736  15.252  10.751  0.00  0.00     0.180 C 
HETATM   24  C   UNK N   1      35.167  13.969  10.138  0.00  0.00     0.182 C 
HETATM   25  C   UNK N   1      35.931  12.916  10.910  0.00  0.00     0.198 C 
HETATM   26  C   UNK N   1      36.459  13.697  12.136  0.00  0.00     0.263 C 
HETATM   27  O   UNK N   1      35.855  14.972  12.122  0.00  0.00    -0.353 OA
BRANCH  24  28
HETATM   28  O   UNK N   1      33.812  13.808  10.459  0.00  0.00    -0.390 OA
HETATM   29  H   UNK N   1      33.110  14.217  10.989  0.00  0.00     0.210 HD
ENDBRANCH  24  28
BRANCH  25  30
HETATM   30  O   UNK N   1      37.004  12.442  10.153  0.00  0.00    -0.388 OA
HETATM   31  H   UNK N   1      37.790  12.049  10.562  0.00  0.00     0.210 HD
ENDBRANCH  25  30
BRANCH  26  32
HETATM   32  N   UNK N   1      36.262  12.996  13.418  0.00  0.00    -0.280 N 
HETATM   33  C   UNK N   1      35.313  13.438  14.297  0.00  0.00     0.103 A 
HETATM   34  C   UNK N   1      35.167  12.839  15.547  0.00  0.00     0.073 A 
HETATM   35  C   UNK N   1      36.008  11.785  15.888  0.00  0.00     0.144 A 
HETATM   36  N   UNK N   1      36.937  11.347  15.003  0.00  0.00    -0.289 N 
HETATM   37  C   UNK N   1      37.075  11.937  13.776  0.00  0.00     0.330 A 
ATOM     38  HN  UNK N   1      37.543  10.566  15.256  1.00  0.00     0.172 HD
HETATM   39  O   UNK N   1      37.937  11.532  13.013  0.00  0.00    -0.246 OA
BRANCH  35  40
HETATM   40  O   UNK N   1      35.907  11.206  17.096  0.00  0.00    -0.346 OA
HETATM   41  H   UNK N   1      36.385  11.510  17.842  0.00  0.00     0.219 HD
ENDBRANCH  35  40
ENDBRANCH  26  32
ENDBRANCH  22  23
ENDBRANCH  21  22
ENDBRANCH  17  21
ENDBRANCH  16  17
ENDBRANCH  12  16
ENDBRANCH  11  12
ENDBRANCH   5  11
BRANCH   2  42
HETATM   42  O   UNK N   1      29.312  18.662   4.579  0.00  0.00    -0.390 OA
HETATM   43  H   UNK N   1      29.401  19.520   4.135  0.00  0.00     0.210 HD
ENDBRANCH   2  42
BRANCH   1  44
HETATM   44  C   UNK N   1      29.267  18.242   7.419  0.00  0.00     0.190 C 
BRANCH  44  45
HETATM   45  S   UNK N   1      29.482  17.792   9.175  0.00  0.00     0.096 S 
HETATM   46  O   UNK N   1      28.193  17.188   9.747  0.00  0.00    -0.601 OA
HETATM   47  O   UNK N   1      29.688  18.998  10.101  0.00  0.00    -0.601 OA
BRANCH  45  48
HETATM   48  O   UNK N   1      30.701  16.655   9.595  0.00  0.00    -0.296 OA
HETATM   49  H   UNK N   1      31.242  16.084   9.030  0.00  0.00     0.232 HD
ENDBRANCH  45  48
ENDBRANCH  44  45
ENDBRANCH   1  44
TORSDOF 18
ENDMDL
MODEL 5
REMARK VINA RESULT:      -7.3      3.690      5.642
REMARK  18 active torsions:
REMARK  status: ('A' for Active; 'I' for Inactive)
REMARK    1  A    between atoms: C_5  and  C_3 
REMARK    2  A    between atoms: O_33  and  C_3 
REMARK    3  A    between atoms: C_6  and  C_4 
REMARK    4  A    between atoms: S_40  and  C_4 
REMARK    5  A    between atoms: O_19  and  C_7 
REMARK    6  A    between atoms: C_8  and  O_20 
REMARK    7  A    between atoms: C_9  and  O_21 
REMARK    8  A    between atoms: C_10  and  O_22 
REMARK    9  A    between atoms: C_11  and  O_23 
REMARK   10  A    between atoms: C_13  and  N_18 
REMARK   11  A    between atoms: C_14  and  O_36 
REMARK   12  A    between atoms: P_38  and  O_26 
REMARK   13  A    between atoms: P_39  and  O_28 
REMARK   14  A    between atoms: S_40  and  O_30 
REMARK   15  A    between atoms: P_38  and  O_33 
REMARK   16  A    between atoms: P_39  and  O_36 
REMARK   17  A    between atoms: P_38  and  O_37 
REMARK   18  A    between atoms: P_39  and  O_37 
ROOT
HETATM    1  C   UNK N   1      34.978  13.017  10.936  0.00  0.00     0.171 C 
HETATM    2  C   UNK N   1      35.993  13.316  12.070  0.00  0.00     0.179 C 
HETATM    3  C   UNK N   1      35.806  14.746  12.553  0.00  0.00     0.183 C 
HETATM    4  C   UNK N   1      35.914  15.686  11.368  0.00  0.00     0.205 C 
HETATM    5  C   UNK N   1      34.872  15.285  10.311  0.00  0.00     0.303 C 
HETATM    6  O   UNK N   1      37.198  15.667  10.809  0.00  0.00    -0.388 OA
HETATM    7  O   UNK N   1      35.108  13.954   9.873  0.00  0.00    -0.349 OA
HETATM    8  H   UNK N   1      38.065  15.620  10.377  0.00  0.00     0.210 HD
ENDROOT
BRANCH   3   9
HETATM    9  O   UNK N   1      36.756  15.073  13.523  0.00  0.00    -0.390 OA
HETATM   10  H   UNK N   1      37.315  15.865  13.470  0.00  0.00     0.210 HD
ENDBRANCH   3   9
BRANCH   5  11
HETATM   11  O   UNK N   1      35.027  16.142   9.200  0.00  0.00    -0.263 OA
BRANCH  11  12
HETATM   12  P   UNK N   1      33.484  16.495   8.451  0.00  0.00     0.404 P 
HETATM   13  O   UNK N   1      33.310  18.038   8.422  0.00  0.00    -0.631 OA
BRANCH  12  14
HETATM   14  O   UNK N   1      32.192  15.934   9.467  0.00  0.00    -0.307 OA
HETATM   15  H   UNK N   1      31.854  15.025   9.519  0.00  0.00     0.222 HD
ENDBRANCH  12  14
BRANCH  12  16
HETATM   16  O   UNK N   1      33.258  15.916   6.800  0.00  0.00    -0.195 OA
BRANCH  16  17
HETATM   17  P   UNK N   1      34.552  14.819   6.326  0.00  0.00     0.401 P 
HETATM   18  O   UNK N   1      34.751  15.082   4.804  0.00  0.00    -0.631 OA
BRANCH  17  19
HETATM   19  O   UNK N   1      34.995  16.499   6.318  0.00  0.00    -0.307 OA
HETATM   20  H   UNK N   1      34.924  17.411   5.998  0.00  0.00     0.222 HD
ENDBRANCH  17  19
BRANCH  17  21
HETATM   21  O   UNK N   1      33.033  14.160   5.834  0.00  0.00    -0.294 OA
BRANCH  21  22
HETATM   22  C   UNK N   1      32.925  14.212   4.447  0.00  0.00     0.215 C 
BRANCH  22  23
HETATM   23  C   UNK N   1      31.592  14.865   4.154  0.00  0.00     0.180 C 
HETATM   24  C   UNK N   1      31.701  16.283   3.586  0.00  0.00     0.182 C 
HETATM   25  C   UNK N   1      30.319  16.821   3.884  0.00  0.00     0.198 C 
HETATM   26  C   UNK N   1      29.788  15.844   4.959  0.00  0.00     0.263 C 
HETATM   27  O   UNK N   1      30.860  15.010   5.343  0.00  0.00    -0.353 OA
BRANCH  24  28
HETATM   28  O   UNK N   1      32.608  17.058   4.321  0.00  0.00    -0.390 OA
HETATM   29  H   UNK N   1      33.265  16.978   5.032  0.00  0.00     0.210 HD
ENDBRANCH  24  28
BRANCH  25  30
HETATM   30  O   UNK N   1      29.515  16.752   2.744  0.00  0.00    -0.388 OA
HETATM   31  H   UNK N   1      29.319  15.913   2.301  0.00  0.00     0.210 HD
ENDBRANCH  25  30
BRANCH  26  32
HETATM   32  N   UNK N   1      29.156  16.512   6.110  0.00  0.00    -0.280 N 
HETATM   33  C   UNK N   1      29.928  17.181   7.019  0.00  0.00     0.103 A 
HETATM   34  C   UNK N   1      29.357  17.749   8.156  0.00  0.00     0.073 A 
HETATM   35  C   UNK N   1      27.987  17.621   8.355  0.00  0.00     0.144 A 
HETATM   36  N   UNK N   1      27.229  16.967   7.441  0.00  0.00    -0.289 N 
HETATM   37  C   UNK N   1      27.794  16.412   6.324  0.00  0.00     0.330 A 
ATOM     38  HN  UNK N   1      26.222  16.886   7.587  1.00  0.00     0.172 HD
HETATM   39  O   UNK N   1      27.085  15.810   5.533  0.00  0.00    -0.246 OA
BRANCH  35  40
HETATM   40  O   UNK N   1      27.414  18.137   9.455  0.00  0.00    -0.346 OA
HETATM   41  H   UNK N   1      27.770  18.874   9.909  0.00  0.00     0.219 HD
ENDBRANCH  35  40
ENDBRANCH  26  32
ENDBRANCH  22  23
ENDBRANCH  21  22
ENDBRANCH  17  21
ENDBRANCH  16  17
ENDBRANCH  12  16
ENDBRANCH  11  12
ENDBRANCH   5  11
BRANCH   2  42
HETATM   42  O   UNK N   1      37.301  13.131  11.605  0.00  0.00    -0.390 OA
HETATM   43  H   UNK N   1      38.135  12.855  11.195  0.00  0.00     0.210 HD
ENDBRANCH   2  42
BRANCH   1  44
HETATM   44  C   UNK N   1      35.214  11.627  10.332  0.00  0.00     0.190 C 
BRANCH  44  45
HETATM   45  S   UNK N   1      33.723  10.578  10.237  0.00  0.00     0.096 S 
HETATM   46  O   UNK N   1      33.368  10.005  11.616  0.00  0.00    -0.601 OA
HETATM   47  O   UNK N   1      33.921   9.295   9.419  0.00  0.00    -0.601 OA
BRANCH  45  48
HETATM   48  O   UNK N   1      32.254  11.275   9.682  0.00  0.00    -0.296 OA
HETATM   49  H   UNK N   1      32.046  11.702   8.837  0.00  0.00     0.232 HD
ENDBRANCH  45  48
ENDBRANCH  44  45
ENDBRANCH   1  44
TORSDOF 18
ENDMDL
MODEL 6
REMARK VINA RESULT:      -7.3      1.525      2.327
REMARK  18 active torsions:
REMARK  status: ('A' for Active; 'I' for Inactive)
REMARK    1  A    between atoms: C_5  and  C_3 
REMARK    2  A    between atoms: O_33  and  C_3 
REMARK    3  A    between atoms: C_6  and  C_4 
REMARK    4  A    between atoms: S_40  and  C_4 
REMARK    5  A    between atoms: O_19  and  C_7 
REMARK    6  A    between atoms: C_8  and  O_20 
REMARK    7  A    between atoms: C_9  and  O_21 
REMARK    8  A    between atoms: C_10  and  O_22 
REMARK    9  A    between atoms: C_11  and  O_23 
REMARK   10  A    between atoms: C_13  and  N_18 
REMARK   11  A    between atoms: C_14  and  O_36 
REMARK   12  A    between atoms: P_38  and  O_26 
REMARK   13  A    between atoms: P_39  and  O_28 
REMARK   14  A    between atoms: S_40  and  O_30 
REMARK   15  A    between atoms: P_38  and  O_33 
REMARK   16  A    between atoms: P_39  and  O_36 
REMARK   17  A    between atoms: P_38  and  O_37 
REMARK   18  A    between atoms: P_39  and  O_37 
ROOT
HETATM    1  C   UNK N   1      35.174  15.449   9.451  0.00  0.00     0.171 C 
HETATM    2  C   UNK N   1      34.649  14.594  10.633  0.00  0.00     0.179 C 
HETATM    3  C   UNK N   1      34.735  13.119  10.269  0.00  0.00     0.183 C 
HETATM    4  C   UNK N   1      33.993  12.889   8.967  0.00  0.00     0.205 C 
HETATM    5  C   UNK N   1      34.591  13.796   7.879  0.00  0.00     0.303 C 
HETATM    6  O   UNK N   1      32.622  13.140   9.102  0.00  0.00    -0.388 OA
HETATM    7  O   UNK N   1      34.460  15.159   8.254  0.00  0.00    -0.349 OA
HETATM    8  H   UNK N   1      31.681  13.366   9.167  0.00  0.00     0.210 HD
ENDROOT
BRANCH   3   9
HETATM    9  O   UNK N   1      34.199  12.323  11.283  0.00  0.00    -0.390 OA
HETATM   10  H   UNK N   1      34.439  12.425  12.218  0.00  0.00     0.210 HD
ENDBRANCH   3   9
BRANCH   5  11
HETATM   11  O   UNK N   1      33.852  13.598   6.693  0.00  0.00    -0.263 OA
BRANCH  11  12
HETATM   12  P   UNK N   1      34.653  14.329   5.317  0.00  0.00     0.404 P 
HETATM   13  O   UNK N   1      35.103  13.187   4.366  0.00  0.00    -0.631 OA
BRANCH  12  14
HETATM   14  O   UNK N   1      36.135  15.079   5.826  0.00  0.00    -0.307 OA
HETATM   15  H   UNK N   1      37.033  14.759   5.644  0.00  0.00     0.222 HD
ENDBRANCH  12  14
BRANCH  12  16
HETATM   16  O   UNK N   1      33.696  15.458   4.357  0.00  0.00    -0.195 OA
BRANCH  16  17
HETATM   17  P   UNK N   1      32.196  14.716   3.806  0.00  0.00     0.401 P 
HETATM   18  O   UNK N   1      31.494  15.825   2.968  0.00  0.00    -0.631 OA
BRANCH  17  19
HETATM   19  O   UNK N   1      33.364  14.995   2.550  0.00  0.00    -0.307 OA
HETATM   20  H   UNK N   1      33.636  15.313   1.676  0.00  0.00     0.222 HD
ENDBRANCH  17  19
BRANCH  17  21
HETATM   21  O   UNK N   1      31.862  15.760   5.141  0.00  0.00    -0.294 OA
BRANCH  21  22
HETATM   22  C   UNK N   1      31.374  16.978   4.675  0.00  0.00     0.215 C 
BRANCH  22  23
HETATM   23  C   UNK N   1      30.230  17.350   5.593  0.00  0.00     0.180 C 
HETATM   24  C   UNK N   1      29.282  16.191   5.914  0.00  0.00     0.182 C 
HETATM   25  C   UNK N   1      28.050  16.941   6.369  0.00  0.00     0.198 C 
HETATM   26  C   UNK N   1      28.286  18.367   5.817  0.00  0.00     0.263 C 
HETATM   27  O   UNK N   1      29.418  18.316   4.976  0.00  0.00    -0.353 OA
BRANCH  24  28
HETATM   28  O   UNK N   1      28.927  15.487   4.756  0.00  0.00    -0.390 OA
HETATM   29  H   UNK N   1      28.306  14.807   4.448  0.00  0.00     0.210 HD
ENDBRANCH  24  28
BRANCH  25  30
HETATM   30  O   UNK N   1      27.991  16.978   7.764  0.00  0.00    -0.388 OA
HETATM   31  H   UNK N   1      28.521  17.599   8.287  0.00  0.00     0.210 HD
ENDBRANCH  25  30
BRANCH  26  32
HETATM   32  N   UNK N   1      27.111  18.946   5.143  0.00  0.00    -0.280 N 
HETATM   33  C   UNK N   1      26.658  18.401   3.974  0.00  0.00     0.103 A 
HETATM   34  C   UNK N   1      25.599  18.984   3.280  0.00  0.00     0.073 A 
HETATM   35  C   UNK N   1      25.012  20.134   3.795  0.00  0.00     0.144 A 
HETATM   36  N   UNK N   1      25.460  20.658   4.962  0.00  0.00    -0.289 N 
HETATM   37  C   UNK N   1      26.500  20.082   5.641  0.00  0.00     0.330 A 
ATOM     38  HN  UNK N   1      25.017  21.496   5.340  1.00  0.00     0.172 HD
HETATM   39  O   UNK N   1      26.893  20.593   6.677  0.00  0.00    -0.246 OA
BRANCH  35  40
HETATM   40  O   UNK N   1      24.006  20.731   3.135  0.00  0.00    -0.346 OA
HETATM   41  H   UNK N   1      23.399  21.307   3.556  0.00  0.00     0.219 HD
ENDBRANCH  35  40
ENDBRANCH  26  32
ENDBRANCH  22  23
ENDBRANCH  21  22
ENDBRANCH  17  21
ENDBRANCH  16  17
ENDBRANCH  12  16
ENDBRANCH  11  12
ENDBRANCH   5  11
BRANCH   2  42
HETATM   42  O   UNK N   1      33.326  14.941  10.928  0.00  0.00    -0.390 OA
HETATM   43  H   UNK N   1      32.371  15.005  11.088  0.00  0.00     0.210 HD
ENDBRANCH   2  42
BRANCH   1  44
HETATM   44  C   UNK N   1      34.989  16.947   9.724  0.00  0.00     0.190 C 
BRANCH  44  45
HETATM   45  S   UNK N   1      34.337  17.902   8.310  0.00  0.00     0.096 S 
HETATM   46  O   UNK N   1      34.844  19.350   8.347  0.00  0.00    -0.601 OA
HETATM   47  O   UNK N   1      32.818  18.112   8.355  0.00  0.00    -0.601 OA
BRANCH  45  48
HETATM   48  O   UNK N   1      34.698  17.371   6.717  0.00  0.00    -0.296 OA
HETATM   49  H   UNK N   1      34.568  17.817   5.866  0.00  0.00     0.232 HD
ENDBRANCH  45  48
ENDBRANCH  44  45
ENDBRANCH   1  44
TORSDOF 18
ENDMDL
MODEL 7
REMARK VINA RESULT:      -7.2      7.353     11.535
REMARK  18 active torsions:
REMARK  status: ('A' for Active; 'I' for Inactive)
REMARK    1  A    between atoms: C_5  and  C_3 
REMARK    2  A    between atoms: O_33  and  C_3 
REMARK    3  A    between atoms: C_6  and  C_4 
REMARK    4  A    between atoms: S_40  and  C_4 
REMARK    5  A    between atoms: O_19  and  C_7 
REMARK    6  A    between atoms: C_8  and  O_20 
REMARK    7  A    between atoms: C_9  and  O_21 
REMARK    8  A    between atoms: C_10  and  O_22 
REMARK    9  A    between atoms: C_11  and  O_23 
REMARK   10  A    between atoms: C_13  and  N_18 
REMARK   11  A    between atoms: C_14  and  O_36 
REMARK   12  A    between atoms: P_38  and  O_26 
REMARK   13  A    between atoms: P_39  and  O_28 
REMARK   14  A    between atoms: S_40  and  O_30 
REMARK   15  A    between atoms: P_38  and  O_33 
REMARK   16  A    between atoms: P_39  and  O_36 
REMARK   17  A    between atoms: P_38  and  O_37 
REMARK   18  A    between atoms: P_39  and  O_37 
ROOT
HETATM    1  C   UNK N   1      23.317  15.413   2.522  0.00  0.00     0.171 C 
HETATM    2  C   UNK N   1      22.547  14.256   1.835  0.00  0.00     0.179 C 
HETATM    3  C   UNK N   1      21.331  14.816   1.112  0.00  0.00     0.183 C 
HETATM    4  C   UNK N   1      20.495  15.612   2.095  0.00  0.00     0.205 C 
HETATM    5  C   UNK N   1      21.365  16.717   2.717  0.00  0.00     0.303 C 
HETATM    6  O   UNK N   1      19.963  14.796   3.101  0.00  0.00    -0.388 OA
HETATM    7  O   UNK N   1      22.468  16.140   3.403  0.00  0.00    -0.349 OA
HETATM    8  H   UNK N   1      19.635  14.252   3.834  0.00  0.00     0.210 HD
ENDROOT
BRANCH   3   9
HETATM    9  O   UNK N   1      20.571  13.791   0.545  0.00  0.00    -0.390 OA
HETATM   10  H   UNK N   1      19.625  13.881   0.347  0.00  0.00     0.210 HD
ENDBRANCH   3   9
BRANCH   5  11
HETATM   11  O   UNK N   1      20.579  17.409   3.663  0.00  0.00    -0.263 OA
BRANCH  11  12
HETATM   12  P   UNK N   1      21.550  18.529   4.597  0.00  0.00     0.404 P 
HETATM   13  O   UNK N   1      20.824  19.901   4.600  0.00  0.00    -0.631 OA
BRANCH  12  14
HETATM   14  O   UNK N   1      23.051  18.835   3.778  0.00  0.00    -0.307 OA
HETATM   15  H   UNK N   1      23.824  18.249   3.755  0.00  0.00     0.222 HD
ENDBRANCH  12  14
BRANCH  12  16
HETATM   16  O   UNK N   1      21.851  18.096   6.280  0.00  0.00    -0.195 OA
BRANCH  16  17
HETATM   17  P   UNK N   1      20.497  17.197   6.960  0.00  0.00     0.401 P 
HETATM   18  O   UNK N   1      20.877  16.987   8.455  0.00  0.00    -0.631 OA
BRANCH  17  19
HETATM   19  O   UNK N   1      20.625  18.836   7.520  0.00  0.00    -0.307 OA
HETATM   20  H   UNK N   1      20.474  19.791   7.446  0.00  0.00     0.222 HD
ENDBRANCH  17  19
BRANCH  17  21
HETATM   21  O   UNK N   1      21.810  16.115   6.658  0.00  0.00    -0.294 OA
BRANCH  21  22
HETATM   22  C   UNK N   1      21.323  14.917   6.143  0.00  0.00     0.215 C 
BRANCH  22  23
HETATM   23  C   UNK N   1      22.338  13.857   6.514  0.00  0.00     0.180 C 
HETATM   24  C   UNK N   1      21.817  12.422   6.390  0.00  0.00     0.182 C 
HETATM   25  C   UNK N   1      22.798  11.682   7.272  0.00  0.00     0.198 C 
HETATM   26  C   UNK N   1      23.426  12.811   8.121  0.00  0.00     0.263 C 
HETATM   27  O   UNK N   1      22.697  13.993   7.864  0.00  0.00    -0.353 OA
BRANCH  24  28
HETATM   28  O   UNK N   1      20.553  12.285   6.979  0.00  0.00    -0.390 OA
HETATM   29  H   UNK N   1      19.997  12.680   7.669  0.00  0.00     0.210 HD
ENDBRANCH  24  28
BRANCH  25  30
HETATM   30  O   UNK N   1      23.784  11.070   6.495  0.00  0.00    -0.388 OA
HETATM   31  H   UNK N   1      24.022  11.395   5.614  0.00  0.00     0.210 HD
ENDBRANCH  25  30
BRANCH  26  32
HETATM   32  N   UNK N   1      23.504  12.501   9.559  0.00  0.00    -0.280 N 
HETATM   33  C   UNK N   1      22.415  11.988  10.207  0.00  0.00     0.103 A 
HETATM   34  C   UNK N   1      22.445  11.765  11.582  0.00  0.00     0.073 A 
HETATM   35  C   UNK N   1      23.601  12.078  12.288  0.00  0.00     0.144 A 
HETATM   36  N   UNK N   1      24.680  12.574  11.634  0.00  0.00    -0.289 N 
HETATM   37  C   UNK N   1      24.647  12.790  10.282  0.00  0.00     0.330 A 
ATOM     38  HN  UNK N   1      25.530  12.791  12.156  1.00  0.00     0.172 HD
HETATM   39  O   UNK N   1      25.628  13.259   9.729  0.00  0.00    -0.246 OA
BRANCH  35  40
HETATM   40  O   UNK N   1      23.649  11.897  13.618  0.00  0.00    -0.346 OA
HETATM   41  H   UNK N   1      23.172  11.217  14.051  0.00  0.00     0.219 HD
ENDBRANCH  35  40
ENDBRANCH  26  32
ENDBRANCH  22  23
ENDBRANCH  21  22
ENDBRANCH  17  21
ENDBRANCH  16  17
ENDBRANCH  12  16
ENDBRANCH  11  12
ENDBRANCH   5  11
BRANCH   2  42
HETATM   42  O   UNK N   1      22.148  13.311   2.788  0.00  0.00    -0.390 OA
HETATM   43  H   UNK N   1      21.740  12.613   3.323  0.00  0.00     0.210 HD
ENDBRANCH   2  42
BRANCH   1  44
HETATM   44  C   UNK N   1      24.480  14.880   3.369  0.00  0.00     0.190 C 
BRANCH  44  45
HETATM   45  S   UNK N   1      25.284  16.132   4.428  0.00  0.00     0.096 S 
HETATM   46  O   UNK N   1      25.646  17.383   3.618  0.00  0.00    -0.601 OA
HETATM   47  O   UNK N   1      26.660  15.702   4.955  0.00  0.00    -0.601 OA
BRANCH  45  48
HETATM   48  O   UNK N   1      24.424  16.744   5.784  0.00  0.00    -0.296 OA
HETATM   49  H   UNK N   1      24.079  16.283   6.564  0.00  0.00     0.232 HD
ENDBRANCH  45  48
ENDBRANCH  44  45
ENDBRANCH   1  44
TORSDOF 18
ENDMDL
MODEL 8
REMARK VINA RESULT:      -7.2      5.318     10.346
REMARK  18 active torsions:
REMARK  status: ('A' for Active; 'I' for Inactive)
REMARK    1  A    between atoms: C_5  and  C_3 
REMARK    2  A    between atoms: O_33  and  C_3 
REMARK    3  A    between atoms: C_6  and  C_4 
REMARK    4  A    between atoms: S_40  and  C_4 
REMARK    5  A    between atoms: O_19  and  C_7 
REMARK    6  A    between atoms: C_8  and  O_20 
REMARK    7  A    between atoms: C_9  and  O_21 
REMARK    8  A    between atoms: C_10  and  O_22 
REMARK    9  A    between atoms: C_11  and  O_23 
REMARK   10  A    between atoms: C_13  and  N_18 
REMARK   11  A    between atoms: C_14  and  O_36 
REMARK   12  A    between atoms: P_38  and  O_26 
REMARK   13  A    between atoms: P_39  and  O_28 
REMARK   14  A    between atoms: S_40  and  O_30 
REMARK   15  A    between atoms: P_38  and  O_33 
REMARK   16  A    between atoms: P_39  and  O_36 
REMARK   17  A    between atoms: P_38  and  O_37 
REMARK   18  A    between atoms: P_39  and  O_37 
ROOT
HETATM    1  C   UNK N   1      21.762  19.691   3.287  0.00  0.00     0.171 C 
HETATM    2  C   UNK N   1      20.435  19.768   2.488  0.00  0.00     0.179 C 
HETATM    3  C   UNK N   1      19.433  18.785   3.076  0.00  0.00     0.183 C 
HETATM    4  C   UNK N   1      20.054  17.403   3.104  0.00  0.00     0.205 C 
HETATM    5  C   UNK N   1      21.363  17.456   3.910  0.00  0.00     0.303 C 
HETATM    6  O   UNK N   1      20.304  16.923   1.812  0.00  0.00    -0.388 OA
HETATM    7  O   UNK N   1      22.273  18.363   3.305  0.00  0.00    -0.349 OA
HETATM    8  H   UNK N   1      20.535  16.603   0.926  0.00  0.00     0.210 HD
ENDROOT
BRANCH   3   9
HETATM    9  O   UNK N   1      18.251  18.774   2.332  0.00  0.00    -0.390 OA
HETATM   10  H   UNK N   1      18.237  18.735   1.362  0.00  0.00     0.210 HD
ENDBRANCH   3   9
BRANCH   5  11
HETATM   11  O   UNK N   1      21.946  16.170   3.878  0.00  0.00    -0.263 OA
BRANCH  11  12
HETATM   12  P   UNK N   1      23.154  15.990   5.133  0.00  0.00     0.404 P 
HETATM   13  O   UNK N   1      22.416  15.678   6.464  0.00  0.00    -0.631 OA
BRANCH  12  14
HETATM   14  O   UNK N   1      23.938  17.513   5.421  0.00  0.00    -0.307 OA
HETATM   15  H   UNK N   1      23.507  18.380   5.478  0.00  0.00     0.222 HD
ENDBRANCH  12  14
BRANCH  12  16
HETATM   16  O   UNK N   1      24.354  14.720   4.895  0.00  0.00    -0.195 OA
BRANCH  16  17
HETATM   17  P   UNK N   1      24.021  13.793   3.434  0.00  0.00     0.401 P 
HETATM   18  O   UNK N   1      24.476  12.344   3.778  0.00  0.00    -0.631 OA
BRANCH  17  19
HETATM   19  O   UNK N   1      22.988  13.413   4.779  0.00  0.00    -0.307 OA
HETATM   20  H   UNK N   1      22.546  12.799   5.384  0.00  0.00     0.222 HD
ENDBRANCH  17  19
BRANCH  17  21
HETATM   21  O   UNK N   1      25.709  14.152   3.512  0.00  0.00    -0.294 OA
BRANCH  21  22
HETATM   22  C   UNK N   1      26.167  14.534   2.254  0.00  0.00     0.215 C 
BRANCH  22  23
HETATM   23  C   UNK N   1      27.224  15.590   2.495  0.00  0.00     0.180 C 
HETATM   24  C   UNK N   1      28.623  15.026   2.761  0.00  0.00     0.182 C 
HETATM   25  C   UNK N   1      29.285  16.203   3.442  0.00  0.00     0.198 C 
HETATM   26  C   UNK N   1      28.084  17.072   3.882  0.00  0.00     0.263 C 
HETATM   27  O   UNK N   1      26.909  16.326   3.649  0.00  0.00    -0.353 OA
BRANCH  24  28
HETATM   28  O   UNK N   1      28.584  13.982   3.695  0.00  0.00    -0.390 OA
HETATM   29  H   UNK N   1      29.167  13.347   4.140  0.00  0.00     0.210 HD
ENDBRANCH  24  28
BRANCH  25  30
HETATM   30  O   UNK N   1      30.073  16.911   2.532  0.00  0.00    -0.388 OA
HETATM   31  H   UNK N   1      30.294  16.559   1.657  0.00  0.00     0.210 HD
ENDBRANCH  25  30
BRANCH  26  32
HETATM   32  N   UNK N   1      28.176  17.555   5.272  0.00  0.00    -0.280 N 
HETATM   33  C   UNK N   1      28.268  16.658   6.300  0.00  0.00     0.103 A 
HETATM   34  C   UNK N   1      28.274  17.093   7.624  0.00  0.00     0.073 A 
HETATM   35  C   UNK N   1      28.180  18.456   7.883  0.00  0.00     0.144 A 
HETATM   36  N   UNK N   1      28.103  19.337   6.856  0.00  0.00    -0.289 N 
HETATM   37  C   UNK N   1      28.099  18.905   5.557  0.00  0.00     0.330 A 
ATOM     38  HN  UNK N   1      28.047  20.336   7.053  1.00  0.00     0.172 HD
HETATM   39  O   UNK N   1      28.005  19.724   4.656  0.00  0.00    -0.246 OA
BRANCH  35  40
HETATM   40  O   UNK N   1      28.159  18.901   9.150  0.00  0.00    -0.346 OA
HETATM   41  H   UNK N   1      27.422  19.352   9.513  0.00  0.00     0.219 HD
ENDBRANCH  35  40
ENDBRANCH  26  32
ENDBRANCH  22  23
ENDBRANCH  21  22
ENDBRANCH  17  21
ENDBRANCH  16  17
ENDBRANCH  12  16
ENDBRANCH  11  12
ENDBRANCH   5  11
BRANCH   2  42
HETATM   42  O   UNK N   1      20.668  19.471   1.140  0.00  0.00    -0.390 OA
HETATM   43  H   UNK N   1      20.661  19.186   0.213  0.00  0.00     0.210 HD
ENDBRANCH   2  42
BRANCH   1  44
HETATM   44  C   UNK N   1      22.844  20.573   2.652  0.00  0.00     0.190 C 
BRANCH  44  45
HETATM   45  S   UNK N   1      24.552  20.147   3.137  0.00  0.00     0.096 S 
HETATM   46  O   UNK N   1      24.834  20.574   4.583  0.00  0.00    -0.601 OA
HETATM   47  O   UNK N   1      25.625  20.935   2.374  0.00  0.00    -0.601 OA
BRANCH  45  48
HETATM   48  O   UNK N   1      25.041  18.500   3.082  0.00  0.00    -0.296 OA
HETATM   49  H   UNK N   1      24.541  17.694   3.281  0.00  0.00     0.232 HD
ENDBRANCH  45  48
ENDBRANCH  44  45
ENDBRANCH   1  44
TORSDOF 18
ENDMDL
MODEL 9
REMARK VINA RESULT:      -7.1      4.710      9.981
REMARK  18 active torsions:
REMARK  status: ('A' for Active; 'I' for Inactive)
REMARK    1  A    between atoms: C_5  and  C_3 
REMARK    2  A    between atoms: O_33  and  C_3 
REMARK    3  A    between atoms: C_6  and  C_4 
REMARK    4  A    between atoms: S_40  and  C_4 
REMARK    5  A    between atoms: O_19  and  C_7 
REMARK    6  A    between atoms: C_8  and  O_20 
REMARK    7  A    between atoms: C_9  and  O_21 
REMARK    8  A    between atoms: C_10  and  O_22 
REMARK    9  A    between atoms: C_11  and  O_23 
REMARK   10  A    between atoms: C_13  and  N_18 
REMARK   11  A    between atoms: C_14  and  O_36 
REMARK   12  A    between atoms: P_38  and  O_26 
REMARK   13  A    between atoms: P_39  and  O_28 
REMARK   14  A    between atoms: S_40  and  O_30 
REMARK   15  A    between atoms: P_38  and  O_33 
REMARK   16  A    between atoms: P_39  and  O_36 
REMARK   17  A    between atoms: P_38  and  O_37 
REMARK   18  A    between atoms: P_39  and  O_37 
ROOT
HETATM    1  C   UNK N   1      29.459  17.002   6.553  0.00  0.00     0.171 C 
HETATM    2  C   UNK N   1      28.728  17.279   5.214  0.00  0.00     0.179 C 
HETATM    3  C   UNK N   1      29.009  16.145   4.239  0.00  0.00     0.183 C 
HETATM    4  C   UNK N   1      30.509  15.975   4.098  0.00  0.00     0.205 C 
HETATM    5  C   UNK N   1      31.120  15.718   5.486  0.00  0.00     0.303 C 
HETATM    6  O   UNK N   1      31.103  17.099   3.511  0.00  0.00    -0.388 OA
HETATM    7  O   UNK N   1      30.854  16.817   6.346  0.00  0.00    -0.349 OA
HETATM    8  H   UNK N   1      31.534  17.894   3.159  0.00  0.00     0.210 HD
ENDROOT
BRANCH   3   9
HETATM    9  O   UNK N   1      28.428  16.400   2.996  0.00  0.00    -0.390 OA
HETATM   10  H   UNK N   1      28.507  17.254   2.540  0.00  0.00     0.210 HD
ENDBRANCH   3   9
BRANCH   5  11
HETATM   11  O   UNK N   1      32.519  15.614   5.333  0.00  0.00    -0.263 OA
BRANCH  11  12
HETATM   12  P   UNK N   1      33.299  15.252   6.858  0.00  0.00     0.404 P 
HETATM   13  O   UNK N   1      33.982  13.863   6.726  0.00  0.00    -0.631 OA
BRANCH  12  14
HETATM   14  O   UNK N   1      32.101  15.029   8.096  0.00  0.00    -0.307 OA
HETATM   15  H   UNK N   1      31.419  15.668   8.358  0.00  0.00     0.222 HD
ENDBRANCH  12  14
BRANCH  12  16
HETATM   16  O   UNK N   1      34.533  16.388   7.402  0.00  0.00    -0.195 OA
BRANCH  16  17
HETATM   17  P   UNK N   1      33.843  17.631   8.442  0.00  0.00     0.401 P 
HETATM   18  O   UNK N   1      35.076  18.337   9.080  0.00  0.00    -0.631 OA
BRANCH  17  19
HETATM   19  O   UNK N   1      34.662  18.242   7.036  0.00  0.00    -0.307 OA
HETATM   20  H   UNK N   1      34.728  18.803   6.248  0.00  0.00     0.222 HD
ENDBRANCH  17  19
BRANCH  17  21
HETATM   21  O   UNK N   1      34.336  16.286   9.406  0.00  0.00    -0.294 OA
BRANCH  21  22
HETATM   22  C   UNK N   1      35.253  16.706  10.366  0.00  0.00     0.215 C 
BRANCH  22  23
HETATM   23  C   UNK N   1      35.837  15.447  10.969  0.00  0.00     0.180 C 
HETATM   24  C   UNK N   1      36.903  14.773  10.099  0.00  0.00     0.182 C 
HETATM   25  C   UNK N   1      36.900  13.373  10.672  0.00  0.00     0.198 C 
HETATM   26  C   UNK N   1      35.557  13.311  11.436  0.00  0.00     0.263 C 
HETATM   27  O   UNK N   1      34.831  14.479  11.119  0.00  0.00    -0.353 OA
BRANCH  24  28
HETATM   28  O   UNK N   1      36.483  14.670   8.766  0.00  0.00    -0.390 OA
HETATM   29  H   UNK N   1      36.665  15.042   7.888  0.00  0.00     0.210 HD
ENDBRANCH  24  28
BRANCH  25  30
HETATM   30  O   UNK N   1      37.961  13.212  11.566  0.00  0.00    -0.388 OA
HETATM   31  H   UNK N   1      38.783  12.763  11.316  0.00  0.00     0.210 HD
ENDBRANCH  25  30
BRANCH  26  32
HETATM   32  N   UNK N   1      34.784  12.082  11.181  0.00  0.00    -0.280 N 
HETATM   33  C   UNK N   1      34.326  11.814   9.921  0.00  0.00     0.103 A 
HETATM   34  C   UNK N   1      33.524  10.700   9.678  0.00  0.00     0.073 A 
HETATM   35  C   UNK N   1      33.194   9.866  10.741  0.00  0.00     0.144 A 
HETATM   36  N   UNK N   1      33.665  10.134  11.983  0.00  0.00    -0.289 N 
HETATM   37  C   UNK N   1      34.453  11.229  12.218  0.00  0.00     0.330 A 
ATOM     38  HN  UNK N   1      33.428   9.512  12.756  1.00  0.00     0.172 HD
HETATM   39  O   UNK N   1      34.840  11.454  13.353  0.00  0.00    -0.246 OA
BRANCH  35  40
HETATM   40  O   UNK N   1      32.403   8.799  10.540  0.00  0.00    -0.346 OA
HETATM   41  H   UNK N   1      32.742   7.956  10.311  0.00  0.00     0.219 HD
ENDBRANCH  35  40
ENDBRANCH  26  32
ENDBRANCH  22  23
ENDBRANCH  21  22
ENDBRANCH  17  21
ENDBRANCH  16  17
ENDBRANCH  12  16
ENDBRANCH  11  12
ENDBRANCH   5  11
BRANCH   2  42
HETATM   42  O   UNK N   1      29.160  18.496   4.674  0.00  0.00    -0.390 OA
HETATM   43  H   UNK N   1      29.616  19.305   4.394  0.00  0.00     0.210 HD
ENDBRANCH   2  42
BRANCH   1  44
HETATM   44  C   UNK N   1      29.308  18.181   7.523  0.00  0.00     0.190 C 
BRANCH  44  45
HETATM   45  S   UNK N   1      29.354  17.721   9.289  0.00  0.00     0.096 S 
HETATM   46  O   UNK N   1      27.984  17.214   9.759  0.00  0.00    -0.601 OA
HETATM   47  O   UNK N   1      29.575  18.913  10.231  0.00  0.00    -0.601 OA
BRANCH  45  48
HETATM   48  O   UNK N   1      30.451  16.501   9.799  0.00  0.00    -0.296 OA
HETATM   49  H   UNK N   1      31.163  16.059   9.311  0.00  0.00     0.232 HD
ENDBRANCH  45  48
ENDBRANCH  44  45
ENDBRANCH   1  44
TORSDOF 18
ENDMDL
