MODEL 1
REMARK VINA RESULT:      -6.7      0.000      0.000
REMARK  18 active torsions:
REMARK  status: ('A' for Active; 'I' for Inactive)
REMARK    1  A    between atoms: C_6  and  C_3 
REMARK    2  A    between atoms: O_18  and  C_3 
REMARK    3  A    between atoms: C_6  and  C_4 
REMARK    4  A    between atoms: O_27  and  C_4 
REMARK    5  A    between atoms: C_7  and  C_5 
REMARK    6  A    between atoms: O_28  and  C_5 
REMARK    7  A    between atoms: C_6  and  O_19 
REMARK    8  A    between atoms: N_13  and  C_8 
REMARK    9  A    between atoms: C_9  and  O_20 
REMARK   10  A    between atoms: C_10  and  O_21 
REMARK   11  A    between atoms: C_11  and  N_17 
REMARK   12  A    between atoms: O_22  and  C_12 
REMARK   13  A    between atoms: P_31  and  O_23 
REMARK   14  A    between atoms: P_32  and  O_25 
REMARK   15  A    between atoms: P_31  and  O_27 
REMARK   16  A    between atoms: P_32  and  O_28 
REMARK   17  A    between atoms: P_31  and  O_30 
REMARK   18  A    between atoms: P_32  and  O_30 
ROOT
HETATM    1  C   UNK N   1      36.186  15.650  11.026  0.00  0.00     0.180 C 
HETATM    2  C   UNK N   1      36.361  14.346  10.218  0.00  0.00     0.182 C 
HETATM    3  C   UNK N   1      36.550  13.324  11.305  0.00  0.00     0.198 C 
HETATM    4  C   UNK N   1      35.578  13.929  12.315  0.00  0.00     0.262 C 
HETATM    5  O   UNK N   1      35.950  15.288  12.372  0.00  0.00    -0.353 OA
ENDROOT
BRANCH   1   6
HETATM    6  C   UNK N   1      34.940  16.358  10.515  0.00  0.00     0.215 C 
BRANCH   6   7
HETATM    7  O   UNK N   1      35.203  17.555   9.856  0.00  0.00    -0.294 OA
BRANCH   7   8
HETATM    8  P   UNK N   1      34.196  17.492   8.421  0.00  0.00     0.401 P 
HETATM    9  O   UNK N   1      34.712  18.549   7.403  0.00  0.00    -0.631 OA
BRANCH   8  10
HETATM   10  O   UNK N   1      34.488  15.977   7.617  0.00  0.00    -0.307 OA
HETATM   11  H   UNK N   1      33.999  15.743   6.813  0.00  0.00     0.222 HD
ENDBRANCH   8  10
BRANCH   8  12
HETATM   12  O   UNK N   1      32.466  17.808   8.598  0.00  0.00    -0.195 OA
BRANCH  12  13
HETATM   13  P   UNK N   1      31.537  16.946   7.368  0.00  0.00     0.401 P 
HETATM   14  O   UNK N   1      31.498  15.406   7.530  0.00  0.00    -0.631 OA
BRANCH  13  15
HETATM   15  O   UNK N   1      32.462  17.172   5.944  0.00  0.00    -0.307 OA
HETATM   16  H   UNK N   1      32.761  16.950   5.048  0.00  0.00     0.222 HD
ENDBRANCH  13  15
BRANCH  13  17
HETATM   17  O   UNK N   1      29.947  17.478   6.858  0.00  0.00    -0.294 OA
BRANCH  17  18
HETATM   18  C   UNK N   1      29.353  18.189   7.894  0.00  0.00     0.214 C 
BRANCH  18  19
HETATM   19  C   UNK N   1      28.249  17.339   8.502  0.00  0.00     0.166 C 
BRANCH  19  20
HETATM   20  C   UNK N   1      27.412  16.792   7.365  0.00  0.00     0.198 C 
BRANCH  20  21
HETATM   21  O   UNK N   1      27.140  17.799   6.442  0.00  0.00    -0.398 OA
HETATM   22  H   UNK N   1      26.254  18.190   6.395  0.00  0.00     0.209 HD
ENDBRANCH  20  21
ENDBRANCH  19  20
BRANCH  19  23
HETATM   23  O   UNK N   1      27.452  18.094   9.369  0.00  0.00    -0.391 OA
HETATM   24  H   UNK N   1      27.663  18.249  10.303  0.00  0.00     0.210 HD
ENDBRANCH  19  23
ENDBRANCH  18  19
ENDBRANCH  17  18
ENDBRANCH  13  17
ENDBRANCH  12  13
ENDBRANCH   8  12
ENDBRANCH   7   8
ENDBRANCH   6   7
ENDBRANCH   1   6
BRANCH   2  25
HETATM   25  O   UNK N   1      37.422  14.393   9.308  0.00  0.00    -0.390 OA
HETATM   26  H   UNK N   1      38.324  14.745   9.355  0.00  0.00     0.210 HD
ENDBRANCH   2  25
BRANCH   3  27
HETATM   27  O   UNK N   1      37.860  13.390  11.796  0.00  0.00    -0.388 OA
HETATM   28  H   UNK N   1      38.651  13.744  12.231  0.00  0.00     0.210 HD
ENDBRANCH   3  27
BRANCH   4  29
HETATM   29  N   UNK N   1      35.484  13.352  13.673  0.00  0.00    -0.293 N 
HETATM   30  C   UNK N   1      34.597  12.325  13.812  0.00  0.00     0.101 A 
HETATM   31  C   UNK N   1      34.448  11.660  15.022  0.00  0.00     0.065 A 
HETATM   32  C   UNK N   1      35.234  12.057  16.091  0.00  0.00     0.102 A 
HETATM   33  N   UNK N   1      36.117  13.071  15.940  0.00  0.00    -0.308 N 
HETATM   34  C   UNK N   1      36.257  13.725  14.752  0.00  0.00     0.227 A 
ATOM     35  HN  UNK N   1      36.691  13.354  16.734  1.00  0.00     0.171 HD
BRANCH  32  36
HETATM   36  N   UNK N   1      35.134  11.454  17.213  0.00  0.00    -0.385 N 
HETATM   37  H   UNK N   1      35.502  10.548  17.327  0.00  0.00     0.157 HD
ATOM     38  HN  UNK N   1      34.670  11.914  17.996  1.00  0.00     0.157 HD
ENDBRANCH  32  36
BRANCH  34  39
HETATM   39  O   UNK N   1      37.177  14.694  14.660  0.00  0.00    -0.332 OA
HETATM   40  H   UNK N   1      37.469  15.164  15.416  0.00  0.00     0.221 HD
ENDBRANCH  34  39
ENDBRANCH   4  29
TORSDOF 18
ENDMDL
MODEL 2
REMARK VINA RESULT:      -6.6      4.731      9.625
REMARK  18 active torsions:
REMARK  status: ('A' for Active; 'I' for Inactive)
REMARK    1  A    between atoms: C_6  and  C_3 
REMARK    2  A    between atoms: O_18  and  C_3 
REMARK    3  A    between atoms: C_6  and  C_4 
REMARK    4  A    between atoms: O_27  and  C_4 
REMARK    5  A    between atoms: C_7  and  C_5 
REMARK    6  A    between atoms: O_28  and  C_5 
REMARK    7  A    between atoms: C_6  and  O_19 
REMARK    8  A    between atoms: N_13  and  C_8 
REMARK    9  A    between atoms: C_9  and  O_20 
REMARK   10  A    between atoms: C_10  and  O_21 
REMARK   11  A    between atoms: C_11  and  N_17 
REMARK   12  A    between atoms: O_22  and  C_12 
REMARK   13  A    between atoms: P_31  and  O_23 
REMARK   14  A    between atoms: P_32  and  O_25 
REMARK   15  A    between atoms: P_31  and  O_27 
REMARK   16  A    between atoms: P_32  and  O_28 
REMARK   17  A    between atoms: P_31  and  O_30 
REMARK   18  A    between atoms: P_32  and  O_30 
ROOT
HETATM    1  C   UNK N   1      30.357  18.159   8.998  0.00  0.00     0.180 C 
HETATM    2  C   UNK N   1      29.478  17.040   9.597  0.00  0.00     0.182 C 
HETATM    3  C   UNK N   1      28.192  17.204   8.835  0.00  0.00     0.198 C 
HETATM    4  C   UNK N   1      28.808  17.587   7.491  0.00  0.00     0.262 C 
HETATM    5  O   UNK N   1      29.723  18.610   7.816  0.00  0.00    -0.353 OA
ENDROOT
BRANCH   1   6
HETATM    6  C   UNK N   1      31.692  17.549   8.599  0.00  0.00     0.215 C 
BRANCH   6   7
HETATM    7  O   UNK N   1      32.482  18.387   7.818  0.00  0.00    -0.294 OA
BRANCH   7   8
HETATM    8  P   UNK N   1      34.126  17.878   8.162  0.00  0.00     0.401 P 
HETATM    9  O   UNK N   1      35.018  19.143   8.312  0.00  0.00    -0.631 OA
BRANCH   8  10
HETATM   10  O   UNK N   1      34.156  17.170   9.750  0.00  0.00    -0.307 OA
HETATM   11  H   UNK N   1      33.337  17.058  10.257  0.00  0.00     0.222 HD
ENDBRANCH   8  10
BRANCH   8  12
HETATM   12  O   UNK N   1      34.950  16.854   6.980  0.00  0.00    -0.195 OA
BRANCH  12  13
HETATM   13  P   UNK N   1      34.780  15.146   7.395  0.00  0.00     0.401 P 
HETATM   14  O   UNK N   1      35.531  14.162   6.463  0.00  0.00    -0.631 OA
BRANCH  13  15
HETATM   15  O   UNK N   1      33.129  14.824   7.065  0.00  0.00    -0.307 OA
HETATM   16  H   UNK N   1      32.380  14.264   6.805  0.00  0.00     0.222 HD
ENDBRANCH  13  15
BRANCH  13  17
HETATM   17  O   UNK N   1      34.942  14.566   9.041  0.00  0.00    -0.294 OA
BRANCH  17  18
HETATM   18  C   UNK N   1      36.290  14.378   9.323  0.00  0.00     0.214 C 
BRANCH  18  19
HETATM   19  C   UNK N   1      36.548  14.772  10.769  0.00  0.00     0.166 C 
BRANCH  19  20
HETATM   20  C   UNK N   1      35.386  14.268  11.596  0.00  0.00     0.198 C 
BRANCH  20  21
HETATM   21  O   UNK N   1      34.361  15.212  11.611  0.00  0.00    -0.398 OA
HETATM   22  H   UNK N   1      34.028  15.582  10.779  0.00  0.00     0.209 HD
ENDBRANCH  20  21
ENDBRANCH  19  20
BRANCH  19  23
HETATM   23  O   UNK N   1      36.668  16.160  10.898  0.00  0.00    -0.391 OA
HETATM   24  H   UNK N   1      37.091  16.600  11.652  0.00  0.00     0.210 HD
ENDBRANCH  19  23
ENDBRANCH  18  19
ENDBRANCH  17  18
ENDBRANCH  13  17
ENDBRANCH  12  13
ENDBRANCH   8  12
ENDBRANCH   7   8
ENDBRANCH   6   7
ENDBRANCH   1   6
BRANCH   2  25
HETATM   25  O   UNK N   1      29.320  17.138  10.983  0.00  0.00    -0.390 OA
HETATM   26  H   UNK N   1      29.724  16.676  11.733  0.00  0.00     0.210 HD
ENDBRANCH   2  25
BRANCH   3  27
HETATM   27  O   UNK N   1      27.465  18.282   9.357  0.00  0.00    -0.388 OA
HETATM   28  H   UNK N   1      26.923  19.085   9.383  0.00  0.00     0.210 HD
ENDBRANCH   3  27
BRANCH   4  29
HETATM   29  N   UNK N   1      27.928  18.004   6.379  0.00  0.00    -0.293 N 
HETATM   30  C   UNK N   1      27.557  17.009   5.522  0.00  0.00     0.101 A 
HETATM   31  C   UNK N   1      26.693  17.253   4.463  0.00  0.00     0.065 A 
HETATM   32  C   UNK N   1      26.200  18.537   4.301  0.00  0.00     0.102 A 
HETATM   33  N   UNK N   1      26.567  19.516   5.161  0.00  0.00    -0.308 N 
HETATM   34  C   UNK N   1      27.421  19.273   6.196  0.00  0.00     0.227 A 
ATOM     35  HN  UNK N   1      26.197  20.457   5.032  1.00  0.00     0.171 HD
BRANCH  32  36
HETATM   36  N   UNK N   1      25.388  18.792   3.348  0.00  0.00    -0.385 N 
HETATM   37  H   UNK N   1      25.367  19.687   2.937  0.00  0.00     0.157 HD
ATOM     38  HN  UNK N   1      24.759  18.065   3.010  1.00  0.00     0.157 HD
ENDBRANCH  32  36
BRANCH  34  39
HETATM   39  O   UNK N   1      27.713  20.277   7.034  0.00  0.00    -0.332 OA
HETATM   40  H   UNK N   1      27.577  21.171   6.790  0.00  0.00     0.221 HD
ENDBRANCH  34  39
ENDBRANCH   4  29
TORSDOF 18
ENDMDL
MODEL 3
REMARK VINA RESULT:      -6.5      1.797      2.838
REMARK  18 active torsions:
REMARK  status: ('A' for Active; 'I' for Inactive)
REMARK    1  A    between atoms: C_6  and  C_3 
REMARK    2  A    between atoms: O_18  and  C_3 
REMARK    3  A    between atoms: C_6  and  C_4 
REMARK    4  A    between atoms: O_27  and  C_4 
REMARK    5  A    between atoms: C_7  and  C_5 
REMARK    6  A    between atoms: O_28  and  C_5 
REMARK    7  A    between atoms: C_6  and  O_19 
REMARK    8  A    between atoms: N_13  and  C_8 
REMARK    9  A    between atoms: C_9  and  O_20 
REMARK   10  A    between atoms: C_10  and  O_21 
REMARK   11  A    between atoms: C_11  and  N_17 
REMARK   12  A    between atoms: O_22  and  C_12 
REMARK   13  A    between atoms: P_31  and  O_23 
REMARK   14  A    between atoms: P_32  and  O_25 
REMARK   15  A    between atoms: P_31  and  O_27 
REMARK   16  A    between atoms: P_32  and  O_28 
REMARK   17  A    between atoms: P_31  and  O_30 
REMARK   18  A    between atoms: P_32  and  O_30 
ROOT
HETATM    1  C   UNK N   1      36.277  15.658  10.728  0.00  0.00     0.180 C 
HETATM    2  C   UNK N   1      36.477  14.312   9.999  0.00  0.00     0.182 C 
HETATM    3  C   UNK N   1      36.639  13.352  11.144  0.00  0.00     0.198 C 
HETATM    4  C   UNK N   1      35.639  14.008  12.094  0.00  0.00     0.262 C 
HETATM    5  O   UNK N   1      36.007  15.370  12.086  0.00  0.00    -0.353 OA
ENDROOT
BRANCH   1   6
HETATM    6  C   UNK N   1      35.043  16.332  10.147  0.00  0.00     0.215 C 
BRANCH   6   7
HETATM    7  O   UNK N   1      34.921  16.190   8.769  0.00  0.00    -0.294 OA
BRANCH   7   8
HETATM    8  P   UNK N   1      34.305  17.740   8.225  0.00  0.00     0.401 P 
HETATM    9  O   UNK N   1      35.234  18.863   8.767  0.00  0.00    -0.631 OA
BRANCH   8  10
HETATM   10  O   UNK N   1      34.516  17.836   6.501  0.00  0.00    -0.307 OA
HETATM   11  H   UNK N   1      35.345  17.548   6.088  0.00  0.00     0.222 HD
ENDBRANCH   8  10
BRANCH   8  12
HETATM   12  O   UNK N   1      32.669  18.207   8.704  0.00  0.00    -0.195 OA
BRANCH  12  13
HETATM   13  P   UNK N   1      31.464  17.188   7.912  0.00  0.00     0.401 P 
HETATM   14  O   UNK N   1      30.030  17.290   8.492  0.00  0.00    -0.631 OA
BRANCH  13  15
HETATM   15  O   UNK N   1      31.951  15.600   8.334  0.00  0.00    -0.307 OA
HETATM   16  H   UNK N   1      32.390  14.748   8.182  0.00  0.00     0.222 HD
ENDBRANCH  13  15
BRANCH  13  17
HETATM   17  O   UNK N   1      31.337  17.079   6.167  0.00  0.00    -0.294 OA
BRANCH  17  18
HETATM   18  C   UNK N   1      31.526  15.757   5.782  0.00  0.00     0.214 C 
BRANCH  18  19
HETATM   19  C   UNK N   1      32.453  15.725   4.577  0.00  0.00     0.166 C 
BRANCH  19  20
HETATM   20  C   UNK N   1      33.545  14.718   4.866  0.00  0.00     0.198 C 
BRANCH  20  21
HETATM   21  O   UNK N   1      33.983  14.848   6.182  0.00  0.00    -0.398 OA
HETATM   22  H   UNK N   1      34.924  14.990   6.371  0.00  0.00     0.209 HD
ENDBRANCH  20  21
ENDBRANCH  19  20
BRANCH  19  23
HETATM   23  O   UNK N   1      33.009  16.986   4.336  0.00  0.00    -0.391 OA
HETATM   24  H   UNK N   1      33.716  17.154   3.693  0.00  0.00     0.210 HD
ENDBRANCH  19  23
ENDBRANCH  18  19
ENDBRANCH  17  18
ENDBRANCH  13  17
ENDBRANCH  12  13
ENDBRANCH   8  12
ENDBRANCH   7   8
ENDBRANCH   6   7
ENDBRANCH   1   6
BRANCH   2  25
HETATM   25  O   UNK N   1      37.561  14.313   9.115  0.00  0.00    -0.390 OA
HETATM   26  H   UNK N   1      37.633  14.248   8.150  0.00  0.00     0.210 HD
ENDBRANCH   2  25
BRANCH   3  27
HETATM   27  O   UNK N   1      37.936  13.451  11.666  0.00  0.00    -0.388 OA
HETATM   28  H   UNK N   1      38.896  13.582  11.696  0.00  0.00     0.210 HD
ENDBRANCH   3  27
BRANCH   4  29
HETATM   29  N   UNK N   1      35.512  13.506  13.479  0.00  0.00    -0.293 N 
HETATM   30  C   UNK N   1      34.631  12.479  13.650  0.00  0.00     0.101 A 
HETATM   31  C   UNK N   1      34.453  11.880  14.890  0.00  0.00     0.065 A 
HETATM   32  C   UNK N   1      35.203  12.344  15.957  0.00  0.00     0.102 A 
HETATM   33  N   UNK N   1      36.081  13.358  15.775  0.00  0.00    -0.308 N 
HETATM   34  C   UNK N   1      36.249  13.947  14.557  0.00  0.00     0.227 A 
ATOM     35  HN  UNK N   1      36.629  13.691  16.568  1.00  0.00     0.171 HD
BRANCH  32  36
HETATM   36  N   UNK N   1      35.077  11.804  17.108  0.00  0.00    -0.385 N 
HETATM   37  H   UNK N   1      35.835  11.784  17.736  0.00  0.00     0.157 HD
ATOM     38  HN  UNK N   1      34.184  11.391  17.378  1.00  0.00     0.157 HD
ENDBRANCH  32  36
BRANCH  34  39
HETATM   39  O   UNK N   1      37.162  14.920  14.437  0.00  0.00    -0.332 OA
HETATM   40  H   UNK N   1      37.574  15.104  13.616  0.00  0.00     0.221 HD
ENDBRANCH  34  39
ENDBRANCH   4  29
TORSDOF 18
ENDMDL
MODEL 4
REMARK VINA RESULT:      -6.5     12.267     15.127
REMARK  18 active torsions:
REMARK  status: ('A' for Active; 'I' for Inactive)
REMARK    1  A    between atoms: C_6  and  C_3 
REMARK    2  A    between atoms: O_18  and  C_3 
REMARK    3  A    between atoms: C_6  and  C_4 
REMARK    4  A    between atoms: O_27  and  C_4 
REMARK    5  A    between atoms: C_7  and  C_5 
REMARK    6  A    between atoms: O_28  and  C_5 
REMARK    7  A    between atoms: C_6  and  O_19 
REMARK    8  A    between atoms: N_13  and  C_8 
REMARK    9  A    between atoms: C_9  and  O_20 
REMARK   10  A    between atoms: C_10  and  O_21 
REMARK   11  A    between atoms: C_11  and  N_17 
REMARK   12  A    between atoms: O_22  and  C_12 
REMARK   13  A    between atoms: P_31  and  O_23 
REMARK   14  A    between atoms: P_32  and  O_25 
REMARK   15  A    between atoms: P_31  and  O_27 
REMARK   16  A    between atoms: P_32  and  O_28 
REMARK   17  A    between atoms: P_31  and  O_30 
REMARK   18  A    between atoms: P_32  and  O_30 
ROOT
HETATM    1  C   UNK N   1      20.479  19.661   3.288  0.00  0.00     0.180 C 
HETATM    2  C   UNK N   1      20.901  20.201   1.904  0.00  0.00     0.182 C 
HETATM    3  C   UNK N   1      22.326  20.615   2.146  0.00  0.00     0.198 C 
HETATM    4  C   UNK N   1      22.699  19.485   3.102  0.00  0.00     0.262 C 
HETATM    5  O   UNK N   1      21.656  19.485   4.052  0.00  0.00    -0.353 OA
ENDROOT
BRANCH   1   6
HETATM    6  C   UNK N   1      19.850  18.291   3.090  0.00  0.00     0.215 C 
BRANCH   6   7
HETATM    7  O   UNK N   1      20.293  17.628   1.949  0.00  0.00    -0.294 OA
BRANCH   7   8
HETATM    8  P   UNK N   1      20.780  16.045   2.529  0.00  0.00     0.401 P 
HETATM    9  O   UNK N   1      21.653  15.362   1.438  0.00  0.00    -0.631 OA
BRANCH   8  10
HETATM   10  O   UNK N   1      21.886  16.266   3.853  0.00  0.00    -0.307 OA
HETATM   11  H   UNK N   1      22.355  15.508   4.237  0.00  0.00     0.222 HD
ENDBRANCH   8  10
BRANCH   8  12
HETATM   12  O   UNK N   1      19.517  14.874   2.928  0.00  0.00    -0.195 OA
BRANCH  12  13
HETATM   13  P   UNK N   1      19.372  14.673   4.676  0.00  0.00     0.401 P 
HETATM   14  O   UNK N   1      20.459  13.783   5.331  0.00  0.00    -0.631 OA
BRANCH  13  15
HETATM   15  O   UNK N   1      17.942  13.743   4.848  0.00  0.00    -0.307 OA
HETATM   16  H   UNK N   1      17.245  13.291   5.350  0.00  0.00     0.222 HD
ENDBRANCH  13  15
BRANCH  13  17
HETATM   17  O   UNK N   1      19.058  16.024   5.747  0.00  0.00    -0.294 OA
BRANCH  17  18
HETATM   18  C   UNK N   1      19.602  15.747   6.996  0.00  0.00     0.214 C 
BRANCH  18  19
HETATM   19  C   UNK N   1      20.548  16.874   7.380  0.00  0.00     0.166 C 
BRANCH  19  20
HETATM   20  C   UNK N   1      19.873  17.689   8.463  0.00  0.00     0.198 C 
BRANCH  20  21
HETATM   21  O   UNK N   1      20.309  19.011   8.412  0.00  0.00    -0.398 OA
HETATM   22  H   UNK N   1      19.796  19.675   7.926  0.00  0.00     0.209 HD
ENDBRANCH  20  21
ENDBRANCH  19  20
BRANCH  19  23
HETATM   23  O   UNK N   1      20.840  17.684   6.277  0.00  0.00    -0.391 OA
HETATM   24  H   UNK N   1      20.525  18.595   6.175  0.00  0.00     0.210 HD
ENDBRANCH  19  23
ENDBRANCH  18  19
ENDBRANCH  17  18
ENDBRANCH  13  17
ENDBRANCH  12  13
ENDBRANCH   8  12
ENDBRANCH   7   8
ENDBRANCH   6   7
ENDBRANCH   1   6
BRANCH   2  25
HETATM   25  O   UNK N   1      20.089  21.242   1.442  0.00  0.00    -0.390 OA
HETATM   26  H   UNK N   1      20.070  21.756   0.619  0.00  0.00     0.210 HD
ENDBRANCH   2  25
BRANCH   3  27
HETATM   27  O   UNK N   1      22.355  21.845   2.817  0.00  0.00    -0.388 OA
HETATM   28  H   UNK N   1      22.464  22.796   2.967  0.00  0.00     0.210 HD
ENDBRANCH   3  27
BRANCH   4  29
HETATM   29  N   UNK N   1      24.018  19.501   3.770  0.00  0.00    -0.293 N 
HETATM   30  C   UNK N   1      24.963  20.289   3.180  0.00  0.00     0.101 A 
HETATM   31  C   UNK N   1      26.229  20.434   3.732  0.00  0.00     0.065 A 
HETATM   32  C   UNK N   1      26.511  19.766   4.912  0.00  0.00     0.102 A 
HETATM   33  N   UNK N   1      25.564  18.994   5.495  0.00  0.00    -0.308 N 
HETATM   34  C   UNK N   1      24.324  18.850   4.946  0.00  0.00     0.227 A 
ATOM     35  HN  UNK N   1      25.783  18.508   6.364  1.00  0.00     0.171 HD
BRANCH  32  36
HETATM   36  N   UNK N   1      27.660  19.893   5.456  0.00  0.00    -0.385 N 
HETATM   37  H   UNK N   1      27.917  19.322   6.217  0.00  0.00     0.157 HD
ATOM     38  HN  UNK N   1      28.315  20.588   5.101  1.00  0.00     0.157 HD
ENDBRANCH  32  36
BRANCH  34  39
HETATM   39  O   UNK N   1      23.421  18.102   5.594  0.00  0.00    -0.332 OA
HETATM   40  H   UNK N   1      22.549  17.998   5.268  0.00  0.00     0.221 HD
ENDBRANCH  34  39
ENDBRANCH   4  29
TORSDOF 18
ENDMDL
MODEL 5
REMARK VINA RESULT:      -6.4      4.498      9.699
REMARK  18 active torsions:
REMARK  status: ('A' for Active; 'I' for Inactive)
REMARK    1  A    between atoms: C_6  and  C_3 
REMARK    2  A    between atoms: O_18  and  C_3 
REMARK    3  A    between atoms: C_6  and  C_4 
REMARK    4  A    between atoms: O_27  and  C_4 
REMARK    5  A    between atoms: C_7  and  C_5 
REMARK    6  A    between atoms: O_28  and  C_5 
REMARK    7  A    between atoms: C_6  and  O_19 
REMARK    8  A    between atoms: N_13  and  C_8 
REMARK    9  A    between atoms: C_9  and  O_20 
REMARK   10  A    between atoms: C_10  and  O_21 
REMARK   11  A    between atoms: C_11  and  N_17 
REMARK   12  A    between atoms: O_22  and  C_12 
REMARK   13  A    between atoms: P_31  and  O_23 
REMARK   14  A    between atoms: P_32  and  O_25 
REMARK   15  A    between atoms: P_31  and  O_27 
REMARK   16  A    between atoms: P_32  and  O_28 
REMARK   17  A    between atoms: P_31  and  O_30 
REMARK   18  A    between atoms: P_32  and  O_30 
ROOT
HETATM    1  C   UNK N   1      34.756  15.579   8.948  0.00  0.00     0.180 C 
HETATM    2  C   UNK N   1      34.517  16.897   9.716  0.00  0.00     0.182 C 
HETATM    3  C   UNK N   1      33.770  17.722   8.705  0.00  0.00     0.198 C 
HETATM    4  C   UNK N   1      32.956  16.587   8.088  0.00  0.00     0.262 C 
HETATM    5  O   UNK N   1      33.918  15.593   7.810  0.00  0.00    -0.353 OA
ENDROOT
BRANCH   1   6
HETATM    6  C   UNK N   1      34.309  14.428   9.835  0.00  0.00     0.215 C 
BRANCH   6   7
HETATM    7  O   UNK N   1      34.006  14.806  11.139  0.00  0.00    -0.294 OA
BRANCH   7   8
HETATM    8  P   UNK N   1      35.298  14.111  12.103  0.00  0.00     0.401 P 
HETATM    9  O   UNK N   1      35.895  12.898  11.336  0.00  0.00    -0.631 OA
BRANCH   8  10
HETATM   10  O   UNK N   1      36.613  15.248  12.152  0.00  0.00    -0.307 OA
HETATM   11  H   UNK N   1      37.129  15.373  12.965  0.00  0.00     0.222 HD
ENDBRANCH   8  10
BRANCH   8  12
HETATM   12  O   UNK N   1      34.905  13.505  13.717  0.00  0.00    -0.195 OA
BRANCH  12  13
HETATM   13  P   UNK N   1      36.354  13.390  14.719  0.00  0.00     0.401 P 
HETATM   14  O   UNK N   1      36.946  14.746  15.182  0.00  0.00    -0.631 OA
BRANCH  13  15
HETATM   15  O   UNK N   1      37.537  12.791  13.633  0.00  0.00    -0.307 OA
HETATM   16  H   UNK N   1      38.440  12.677  13.296  0.00  0.00     0.222 HD
ENDBRANCH  13  15
BRANCH  13  17
HETATM   17  O   UNK N   1      36.478  12.260  16.053  0.00  0.00    -0.294 OA
BRANCH  17  18
HETATM   18  C   UNK N   1      35.219  11.738  16.321  0.00  0.00     0.214 C 
BRANCH  18  19
HETATM   19  C   UNK N   1      35.234  11.107  17.705  0.00  0.00     0.166 C 
BRANCH  19  20
HETATM   20  C   UNK N   1      35.367  12.226  18.716  0.00  0.00     0.198 C 
BRANCH  20  21
HETATM   21  O   UNK N   1      34.927  13.428  18.164  0.00  0.00    -0.398 OA
HETATM   22  H   UNK N   1      34.006  13.708  18.279  0.00  0.00     0.209 HD
ENDBRANCH  20  21
ENDBRANCH  19  20
BRANCH  19  23
HETATM   23  O   UNK N   1      36.297  10.208  17.837  0.00  0.00    -0.391 OA
HETATM   24  H   UNK N   1      36.846   9.905  17.097  0.00  0.00     0.210 HD
ENDBRANCH  19  23
ENDBRANCH  18  19
ENDBRANCH  17  18
ENDBRANCH  13  17
ENDBRANCH  12  13
ENDBRANCH   8  12
ENDBRANCH   7   8
ENDBRANCH   6   7
ENDBRANCH   1   6
BRANCH   2  25
HETATM   25  O   UNK N   1      35.695  17.501  10.166  0.00  0.00    -0.390 OA
HETATM   26  H   UNK N   1      35.985  18.424  10.238  0.00  0.00     0.210 HD
ENDBRANCH   2  25
BRANCH   3  27
HETATM   27  O   UNK N   1      34.666  18.242   7.762  0.00  0.00    -0.388 OA
HETATM   28  H   UNK N   1      35.288  18.272   7.018  0.00  0.00     0.210 HD
ENDBRANCH   3  27
BRANCH   4  29
HETATM   29  N   UNK N   1      32.117  16.855   6.900  0.00  0.00    -0.293 N 
HETATM   30  C   UNK N   1      30.788  17.031   7.151  0.00  0.00     0.101 A 
HETATM   31  C   UNK N   1      29.897  17.338   6.132  0.00  0.00     0.065 A 
HETATM   32  C   UNK N   1      30.391  17.475   4.846  0.00  0.00     0.102 A 
HETATM   33  N   UNK N   1      31.713  17.307   4.608  0.00  0.00    -0.308 N 
HETATM   34  C   UNK N   1      32.584  17.000   5.611  0.00  0.00     0.227 A 
ATOM     35  HN  UNK N   1      32.066  17.412   3.658  1.00  0.00     0.171 HD
BRANCH  32  36
HETATM   36  N   UNK N   1      29.601  17.775   3.888  0.00  0.00    -0.385 N 
HETATM   37  H   UNK N   1      28.822  17.207   3.687  0.00  0.00     0.157 HD
ATOM     38  HN  UNK N   1      29.776  18.609   3.328  1.00  0.00     0.157 HD
ENDBRANCH  32  36
BRANCH  34  39
HETATM   39  O   UNK N   1      33.886  16.885   5.315  0.00  0.00    -0.332 OA
HETATM   40  H   UNK N   1      34.545  16.961   5.976  0.00  0.00     0.221 HD
ENDBRANCH  34  39
ENDBRANCH   4  29
TORSDOF 18
ENDMDL
MODEL 6
REMARK VINA RESULT:      -6.4      4.778      9.926
REMARK  18 active torsions:
REMARK  status: ('A' for Active; 'I' for Inactive)
REMARK    1  A    between atoms: C_6  and  C_3 
REMARK    2  A    between atoms: O_18  and  C_3 
REMARK    3  A    between atoms: C_6  and  C_4 
REMARK    4  A    between atoms: O_27  and  C_4 
REMARK    5  A    between atoms: C_7  and  C_5 
REMARK    6  A    between atoms: O_28  and  C_5 
REMARK    7  A    between atoms: C_6  and  O_19 
REMARK    8  A    between atoms: N_13  and  C_8 
REMARK    9  A    between atoms: C_9  and  O_20 
REMARK   10  A    between atoms: C_10  and  O_21 
REMARK   11  A    between atoms: C_11  and  N_17 
REMARK   12  A    between atoms: O_22  and  C_12 
REMARK   13  A    between atoms: P_31  and  O_23 
REMARK   14  A    between atoms: P_32  and  O_25 
REMARK   15  A    between atoms: P_31  and  O_27 
REMARK   16  A    between atoms: P_32  and  O_28 
REMARK   17  A    between atoms: P_31  and  O_30 
REMARK   18  A    between atoms: P_32  and  O_30 
ROOT
HETATM    1  C   UNK N   1      30.228  18.214   8.793  0.00  0.00     0.180 C 
HETATM    2  C   UNK N   1      29.466  17.056   9.471  0.00  0.00     0.182 C 
HETATM    3  C   UNK N   1      28.102  17.167   8.847  0.00  0.00     0.198 C 
HETATM    4  C   UNK N   1      28.558  17.581   7.450  0.00  0.00     0.262 C 
HETATM    5  O   UNK N   1      29.457  18.642   7.687  0.00  0.00    -0.353 OA
ENDROOT
BRANCH   1   6
HETATM    6  C   UNK N   1      31.540  17.665   8.254  0.00  0.00     0.215 C 
BRANCH   6   7
HETATM    7  O   UNK N   1      32.661  18.378   8.666  0.00  0.00    -0.294 OA
BRANCH   7   8
HETATM    8  P   UNK N   1      34.001  17.279   8.391  0.00  0.00     0.401 P 
HETATM    9  O   UNK N   1      34.750  17.721   7.101  0.00  0.00    -0.631 OA
BRANCH   8  10
HETATM   10  O   UNK N   1      35.177  17.529   9.648  0.00  0.00    -0.307 OA
HETATM   11  H   UNK N   1      35.747  18.314   9.643  0.00  0.00     0.222 HD
ENDBRANCH   8  10
BRANCH   8  12
HETATM   12  O   UNK N   1      33.645  15.563   8.168  0.00  0.00    -0.195 OA
BRANCH  12  13
HETATM   13  P   UNK N   1      34.093  14.633   9.601  0.00  0.00     0.401 P 
HETATM   14  O   UNK N   1      33.729  13.127   9.551  0.00  0.00    -0.631 OA
BRANCH  13  15
HETATM   15  O   UNK N   1      33.053  15.252  10.814  0.00  0.00    -0.307 OA
HETATM   16  H   UNK N   1      32.190  15.454  11.210  0.00  0.00     0.222 HD
ENDBRANCH  13  15
BRANCH  13  17
HETATM   17  O   UNK N   1      35.667  14.786  10.357  0.00  0.00    -0.294 OA
BRANCH  17  18
HETATM   18  C   UNK N   1      35.494  15.029  11.714  0.00  0.00     0.214 C 
BRANCH  18  19
HETATM   19  C   UNK N   1      35.660  13.720  12.471  0.00  0.00     0.166 C 
BRANCH  19  20
HETATM   20  C   UNK N   1      36.611  12.849  11.678  0.00  0.00     0.198 C 
BRANCH  20  21
HETATM   21  O   UNK N   1      37.869  13.445  11.616  0.00  0.00    -0.398 OA
HETATM   22  H   UNK N   1      38.327  13.703  12.431  0.00  0.00     0.209 HD
ENDBRANCH  20  21
ENDBRANCH  19  20
BRANCH  19  23
HETATM   23  O   UNK N   1      34.430  13.072  12.631  0.00  0.00    -0.391 OA
HETATM   24  H   UNK N   1      33.588  13.534  12.767  0.00  0.00     0.210 HD
ENDBRANCH  19  23
ENDBRANCH  18  19
ENDBRANCH  17  18
ENDBRANCH  13  17
ENDBRANCH  12  13
ENDBRANCH   8  12
ENDBRANCH   7   8
ENDBRANCH   6   7
ENDBRANCH   1   6
BRANCH   2  25
HETATM   25  O   UNK N   1      29.448  17.143  10.867  0.00  0.00    -0.390 OA
HETATM   26  H   UNK N   1      29.960  17.660  11.508  0.00  0.00     0.210 HD
ENDBRANCH   2  25
BRANCH   3  27
HETATM   27  O   UNK N   1      27.387  18.210   9.451  0.00  0.00    -0.388 OA
HETATM   28  H   UNK N   1      26.871  19.026   9.540  0.00  0.00     0.210 HD
ENDBRANCH   3  27
BRANCH   4  29
HETATM   29  N   UNK N   1      27.550  17.962   6.438  0.00  0.00    -0.293 N 
HETATM   30  C   UNK N   1      27.204  16.979   5.558  0.00  0.00     0.101 A 
HETATM   31  C   UNK N   1      26.232  17.189   4.589  0.00  0.00     0.065 A 
HETATM   32  C   UNK N   1      25.608  18.424   4.540  0.00  0.00     0.102 A 
HETATM   33  N   UNK N   1      25.953  19.390   5.423  0.00  0.00    -0.308 N 
HETATM   34  C   UNK N   1      26.911  19.182   6.370  0.00  0.00     0.227 A 
ATOM     35  HN  UNK N   1      25.486  20.295   5.379  1.00  0.00     0.171 HD
BRANCH  32  36
HETATM   36  N   UNK N   1      24.697  18.644   3.672  0.00  0.00    -0.385 N 
HETATM   37  H   UNK N   1      24.841  19.301   2.953  0.00  0.00     0.157 HD
ATOM     38  HN  UNK N   1      23.815  18.135   3.723  1.00  0.00     0.157 HD
ENDBRANCH  32  36
BRANCH  34  39
HETATM   39  O   UNK N   1      27.178  20.168   7.238  0.00  0.00    -0.332 OA
HETATM   40  H   UNK N   1      27.622  20.000   8.045  0.00  0.00     0.221 HD
ENDBRANCH  34  39
ENDBRANCH   4  29
TORSDOF 18
ENDMDL
MODEL 7
REMARK VINA RESULT:      -6.3      4.610      9.205
REMARK  18 active torsions:
REMARK  status: ('A' for Active; 'I' for Inactive)
REMARK    1  A    between atoms: C_6  and  C_3 
REMARK    2  A    between atoms: O_18  and  C_3 
REMARK    3  A    between atoms: C_6  and  C_4 
REMARK    4  A    between atoms: O_27  and  C_4 
REMARK    5  A    between atoms: C_7  and  C_5 
REMARK    6  A    between atoms: O_28  and  C_5 
REMARK    7  A    between atoms: C_6  and  O_19 
REMARK    8  A    between atoms: N_13  and  C_8 
REMARK    9  A    between atoms: C_9  and  O_20 
REMARK   10  A    between atoms: C_10  and  O_21 
REMARK   11  A    between atoms: C_11  and  N_17 
REMARK   12  A    between atoms: O_22  and  C_12 
REMARK   13  A    between atoms: P_31  and  O_23 
REMARK   14  A    between atoms: P_32  and  O_25 
REMARK   15  A    between atoms: P_31  and  O_27 
REMARK   16  A    between atoms: P_32  and  O_28 
REMARK   17  A    between atoms: P_31  and  O_30 
REMARK   18  A    between atoms: P_32  and  O_30 
ROOT
HETATM    1  C   UNK N   1      34.971  15.108   9.119  0.00  0.00     0.180 C 
HETATM    2  C   UNK N   1      33.564  14.788   9.668  0.00  0.00     0.182 C 
HETATM    3  C   UNK N   1      32.672  15.502   8.690  0.00  0.00     0.198 C 
HETATM    4  C   UNK N   1      33.505  15.239   7.437  0.00  0.00     0.262 C 
HETATM    5  O   UNK N   1      34.811  15.621   7.811  0.00  0.00    -0.353 OA
ENDROOT
BRANCH   1   6
HETATM    6  C   UNK N   1      35.743  13.802   9.009  0.00  0.00     0.215 C 
BRANCH   6   7
HETATM    7  O   UNK N   1      37.018  13.854   9.565  0.00  0.00    -0.294 OA
BRANCH   7   8
HETATM    8  P   UNK N   1      37.145  12.373  10.499  0.00  0.00     0.401 P 
HETATM    9  O   UNK N   1      38.243  11.475   9.862  0.00  0.00    -0.631 OA
BRANCH   8  10
HETATM   10  O   UNK N   1      37.800  12.769  12.061  0.00  0.00    -0.307 OA
HETATM   11  H   UNK N   1      38.753  12.702  12.228  0.00  0.00     0.222 HD
ENDBRANCH   8  10
BRANCH   8  12
HETATM   12  O   UNK N   1      35.713  11.346  10.639  0.00  0.00    -0.195 OA
BRANCH  12  13
HETATM   13  P   UNK N   1      35.077  11.367  12.285  0.00  0.00     0.401 P 
HETATM   14  O   UNK N   1      33.763  10.573  12.496  0.00  0.00    -0.631 OA
BRANCH  13  15
HETATM   15  O   UNK N   1      34.594  12.998  12.500  0.00  0.00    -0.307 OA
HETATM   16  H   UNK N   1      34.184  13.834  12.226  0.00  0.00     0.222 HD
ENDBRANCH  13  15
BRANCH  13  17
HETATM   17  O   UNK N   1      36.101  11.104  13.684  0.00  0.00    -0.294 OA
BRANCH  17  18
HETATM   18  C   UNK N   1      35.657  11.908  14.727  0.00  0.00     0.214 C 
BRANCH  18  19
HETATM   19  C   UNK N   1      36.854  12.611  15.348  0.00  0.00     0.166 C 
BRANCH  19  20
HETATM   20  C   UNK N   1      36.624  14.102  15.223  0.00  0.00     0.198 C 
BRANCH  20  21
HETATM   21  O   UNK N   1      36.860  14.517  13.913  0.00  0.00    -0.398 OA
HETATM   22  H   UNK N   1      37.731  14.859  13.660  0.00  0.00     0.209 HD
ENDBRANCH  20  21
ENDBRANCH  19  20
BRANCH  19  23
HETATM   23  O   UNK N   1      38.041  12.249  14.702  0.00  0.00    -0.391 OA
HETATM   24  H   UNK N   1      38.596  11.500  14.969  0.00  0.00     0.210 HD
ENDBRANCH  19  23
ENDBRANCH  18  19
ENDBRANCH  17  18
ENDBRANCH  13  17
ENDBRANCH  12  13
ENDBRANCH   8  12
ENDBRANCH   7   8
ENDBRANCH   6   7
ENDBRANCH   1   6
BRANCH   2  25
HETATM   25  O   UNK N   1      33.376  15.196  10.992  0.00  0.00    -0.390 OA
HETATM   26  H   UNK N   1      33.985  15.453  11.702  0.00  0.00     0.210 HD
ENDBRANCH   2  25
BRANCH   3  27
HETATM   27  O   UNK N   1      32.653  16.873   8.978  0.00  0.00    -0.388 OA
HETATM   28  H   UNK N   1      32.669  17.693   9.494  0.00  0.00     0.210 HD
ENDBRANCH   3  27
BRANCH   4  29
HETATM   29  N   UNK N   1      33.119  15.873   6.158  0.00  0.00    -0.293 N 
HETATM   30  C   UNK N   1      32.284  15.137   5.370  0.00  0.00     0.101 A 
HETATM   31  C   UNK N   1      31.804  15.635   4.166  0.00  0.00     0.065 A 
HETATM   32  C   UNK N   1      32.183  16.911   3.785  0.00  0.00     0.102 A 
HETATM   33  N   UNK N   1      33.005  17.637   4.578  0.00  0.00    -0.308 N 
HETATM   34  C   UNK N   1      33.479  17.142   5.757  0.00  0.00     0.227 A 
ATOM     35  HN  UNK N   1      33.277  18.575   4.288  1.00  0.00     0.171 HD
BRANCH  32  36
HETATM   36  N   UNK N   1      31.745  17.406   2.691  0.00  0.00    -0.385 N 
HETATM   37  H   UNK N   1      32.219  17.243   1.844  0.00  0.00     0.157 HD
ATOM     38  HN  UNK N   1      30.898  17.974   2.696  1.00  0.00     0.157 HD
ENDBRANCH  32  36
BRANCH  34  39
HETATM   39  O   UNK N   1      34.258  17.927   6.513  0.00  0.00    -0.332 OA
HETATM   40  H   UNK N   1      34.615  18.727   6.181  0.00  0.00     0.221 HD
ENDBRANCH  34  39
ENDBRANCH   4  29
TORSDOF 18
ENDMDL
MODEL 8
REMARK VINA RESULT:      -6.3      2.676      4.164
REMARK  18 active torsions:
REMARK  status: ('A' for Active; 'I' for Inactive)
REMARK    1  A    between atoms: C_6  and  C_3 
REMARK    2  A    between atoms: O_18  and  C_3 
REMARK    3  A    between atoms: C_6  and  C_4 
REMARK    4  A    between atoms: O_27  and  C_4 
REMARK    5  A    between atoms: C_7  and  C_5 
REMARK    6  A    between atoms: O_28  and  C_5 
REMARK    7  A    between atoms: C_6  and  O_19 
REMARK    8  A    between atoms: N_13  and  C_8 
REMARK    9  A    between atoms: C_9  and  O_20 
REMARK   10  A    between atoms: C_10  and  O_21 
REMARK   11  A    between atoms: C_11  and  N_17 
REMARK   12  A    between atoms: O_22  and  C_12 
REMARK   13  A    between atoms: P_31  and  O_23 
REMARK   14  A    between atoms: P_32  and  O_25 
REMARK   15  A    between atoms: P_31  and  O_27 
REMARK   16  A    between atoms: P_32  and  O_28 
REMARK   17  A    between atoms: P_31  and  O_30 
REMARK   18  A    between atoms: P_32  and  O_30 
ROOT
HETATM    1  C   UNK N   1      33.390  15.782   7.365  0.00  0.00     0.180 C 
HETATM    2  C   UNK N   1      34.361  16.981   7.402  0.00  0.00     0.182 C 
HETATM    3  C   UNK N   1      34.979  16.847   8.766  0.00  0.00     0.198 C 
HETATM    4  C   UNK N   1      35.034  15.321   8.808  0.00  0.00     0.262 C 
HETATM    5  O   UNK N   1      33.732  14.925   8.437  0.00  0.00    -0.353 OA
ENDROOT
BRANCH   1   6
HETATM    6  C   UNK N   1      33.631  15.018   6.072  0.00  0.00     0.215 C 
BRANCH   6   7
HETATM    7  O   UNK N   1      33.933  15.833   4.985  0.00  0.00    -0.294 OA
BRANCH   7   8
HETATM    8  P   UNK N   1      32.367  16.308   4.351  0.00  0.00     0.401 P 
HETATM    9  O   UNK N   1      32.564  16.884   2.919  0.00  0.00    -0.631 OA
BRANCH   8  10
HETATM   10  O   UNK N   1      31.428  14.869   4.084  0.00  0.00    -0.307 OA
HETATM   11  H   UNK N   1      31.826  13.991   4.194  0.00  0.00     0.222 HD
ENDBRANCH   8  10
BRANCH   8  12
HETATM   12  O   UNK N   1      31.443  17.532   5.231  0.00  0.00    -0.195 OA
BRANCH  12  13
HETATM   13  P   UNK N   1      29.709  17.225   5.105  0.00  0.00     0.401 P 
HETATM   14  O   UNK N   1      29.244  15.839   5.619  0.00  0.00    -0.631 OA
BRANCH  13  15
HETATM   15  O   UNK N   1      29.447  17.129   3.414  0.00  0.00    -0.307 OA
HETATM   16  H   UNK N   1      29.483  16.701   2.544  0.00  0.00     0.222 HD
ENDBRANCH  13  15
BRANCH  13  17
HETATM   17  O   UNK N   1      28.514  18.412   5.591  0.00  0.00    -0.294 OA
BRANCH  17  18
HETATM   18  C   UNK N   1      27.871  17.963   6.738  0.00  0.00     0.214 C 
BRANCH  18  19
HETATM   19  C   UNK N   1      28.161  18.931   7.874  0.00  0.00     0.166 C 
BRANCH  19  20
HETATM   20  C   UNK N   1      28.332  18.116   9.138  0.00  0.00     0.198 C 
BRANCH  20  21
HETATM   21  O   UNK N   1      27.410  17.071   9.165  0.00  0.00    -0.398 OA
HETATM   22  H   UNK N   1      27.601  16.241   8.702  0.00  0.00     0.209 HD
ENDBRANCH  20  21
ENDBRANCH  19  20
BRANCH  19  23
HETATM   23  O   UNK N   1      27.118  19.851   8.029  0.00  0.00    -0.391 OA
HETATM   24  H   UNK N   1      26.368  19.723   8.630  0.00  0.00     0.210 HD
ENDBRANCH  19  23
ENDBRANCH  18  19
ENDBRANCH  17  18
ENDBRANCH  13  17
ENDBRANCH  12  13
ENDBRANCH   8  12
ENDBRANCH   7   8
ENDBRANCH   6   7
ENDBRANCH   1   6
BRANCH   2  25
HETATM   25  O   UNK N   1      33.732  18.213   7.195  0.00  0.00    -0.390 OA
HETATM   26  H   UNK N   1      33.479  18.705   6.399  0.00  0.00     0.210 HD
ENDBRANCH   2  25
BRANCH   3  27
HETATM   27  O   UNK N   1      34.091  17.324   9.739  0.00  0.00    -0.388 OA
HETATM   28  H   UNK N   1      33.393  17.858  10.149  0.00  0.00     0.210 HD
ENDBRANCH   3  27
BRANCH   4  29
HETATM   29  N   UNK N   1      35.457  14.641  10.050  0.00  0.00    -0.293 N 
HETATM   30  C   UNK N   1      36.755  14.224  10.076  0.00  0.00     0.101 A 
HETATM   31  C   UNK N   1      37.296  13.616  11.201  0.00  0.00     0.065 A 
HETATM   32  C   UNK N   1      36.486  13.451  12.311  0.00  0.00     0.102 A 
HETATM   33  N   UNK N   1      35.201  13.875  12.279  0.00  0.00    -0.308 N 
HETATM   34  C   UNK N   1      34.672  14.467  11.171  0.00  0.00     0.227 A 
ATOM     35  HN  UNK N   1      34.614  13.750  13.103  1.00  0.00     0.171 HD
BRANCH  32  36
HETATM   36  N   UNK N   1      36.957  12.911  13.369  0.00  0.00    -0.385 N 
HETATM   37  H   UNK N   1      36.626  13.182  14.257  0.00  0.00     0.157 HD
ATOM     38  HN  UNK N   1      37.679  12.195  13.295  1.00  0.00     0.157 HD
ENDBRANCH  32  36
BRANCH  34  39
HETATM   39  O   UNK N   1      33.405  14.900  11.219  0.00  0.00    -0.332 OA
HETATM   40  H   UNK N   1      32.990  15.105  12.033  0.00  0.00     0.221 HD
ENDBRANCH  34  39
ENDBRANCH   4  29
TORSDOF 18
ENDMDL
MODEL 9
REMARK VINA RESULT:      -6.3      4.560      9.154
REMARK  18 active torsions:
REMARK  status: ('A' for Active; 'I' for Inactive)
REMARK    1  A    between atoms: C_6  and  C_3 
REMARK    2  A    between atoms: O_18  and  C_3 
REMARK    3  A    between atoms: C_6  and  C_4 
REMARK    4  A    between atoms: O_27  and  C_4 
REMARK    5  A    between atoms: C_7  and  C_5 
REMARK    6  A    between atoms: O_28  and  C_5 
REMARK    7  A    between atoms: C_6  and  O_19 
REMARK    8  A    between atoms: N_13  and  C_8 
REMARK    9  A    between atoms: C_9  and  O_20 
REMARK   10  A    between atoms: C_10  and  O_21 
REMARK   11  A    between atoms: C_11  and  N_17 
REMARK   12  A    between atoms: O_22  and  C_12 
REMARK   13  A    between atoms: P_31  and  O_23 
REMARK   14  A    between atoms: P_32  and  O_25 
REMARK   15  A    between atoms: P_31  and  O_27 
REMARK   16  A    between atoms: P_32  and  O_28 
REMARK   17  A    between atoms: P_31  and  O_30 
REMARK   18  A    between atoms: P_32  and  O_30 
ROOT
HETATM    1  C   UNK N   1      34.574  15.746   8.716  0.00  0.00     0.180 C 
HETATM    2  C   UNK N   1      34.444  17.128   9.392  0.00  0.00     0.182 C 
HETATM    3  C   UNK N   1      33.675  17.912   8.365  0.00  0.00     0.198 C 
HETATM    4  C   UNK N   1      32.773  16.776   7.887  0.00  0.00     0.262 C 
HETATM    5  O   UNK N   1      33.668  15.717   7.631  0.00  0.00    -0.353 OA
ENDROOT
BRANCH   1   6
HETATM    6  C   UNK N   1      34.131  14.688   9.714  0.00  0.00     0.215 C 
BRANCH   6   7
HETATM    7  O   UNK N   1      34.061  15.147  11.026  0.00  0.00    -0.294 OA
BRANCH   7   8
HETATM    8  P   UNK N   1      35.284  14.218  11.877  0.00  0.00     0.401 P 
HETATM    9  O   UNK N   1      35.475  12.859  11.145  0.00  0.00    -0.631 OA
BRANCH   8  10
HETATM   10  O   UNK N   1      36.817  15.013  11.664  0.00  0.00    -0.307 OA
HETATM   11  H   UNK N   1      36.884  15.979  11.716  0.00  0.00     0.222 HD
ENDBRANCH   8  10
BRANCH   8  12
HETATM   12  O   UNK N   1      34.996  13.809  13.572  0.00  0.00    -0.195 OA
BRANCH  12  13
HETATM   13  P   UNK N   1      36.116  12.558  14.119  0.00  0.00     0.401 P 
HETATM   14  O   UNK N   1      36.786  12.826  15.490  0.00  0.00    -0.631 OA
BRANCH  13  15
HETATM   15  O   UNK N   1      37.417  12.681  13.010  0.00  0.00    -0.307 OA
HETATM   16  H   UNK N   1      37.882  12.493  12.179  0.00  0.00     0.222 HD
ENDBRANCH  13  15
BRANCH  13  17
HETATM   17  O   UNK N   1      35.723  10.852  14.031  0.00  0.00    -0.294 OA
BRANCH  17  18
HETATM   18  C   UNK N   1      34.364  10.713  13.777  0.00  0.00     0.214 C 
BRANCH  18  19
HETATM   19  C   UNK N   1      34.183   9.886  12.514  0.00  0.00     0.166 C 
BRANCH  19  20
HETATM   20  C   UNK N   1      35.542   9.350  12.119  0.00  0.00     0.198 C 
BRANCH  20  21
HETATM   21  O   UNK N   1      36.188  10.251  11.274  0.00  0.00    -0.398 OA
HETATM   22  H   UNK N   1      35.775  11.104  11.065  0.00  0.00     0.209 HD
ENDBRANCH  20  21
ENDBRANCH  19  20
BRANCH  19  23
HETATM   23  O   UNK N   1      33.649  10.660  11.478  0.00  0.00    -0.391 OA
HETATM   24  H   UNK N   1      33.544  10.348  10.566  0.00  0.00     0.210 HD
ENDBRANCH  19  23
ENDBRANCH  18  19
ENDBRANCH  17  18
ENDBRANCH  13  17
ENDBRANCH  12  13
ENDBRANCH   8  12
ENDBRANCH   7   8
ENDBRANCH   6   7
ENDBRANCH   1   6
BRANCH   2  25
HETATM   25  O   UNK N   1      35.675  17.704   9.723  0.00  0.00    -0.390 OA
HETATM   26  H   UNK N   1      36.562  17.340   9.869  0.00  0.00     0.210 HD
ENDBRANCH   2  25
BRANCH   3  27
HETATM   27  O   UNK N   1      34.533  18.314   7.333  0.00  0.00    -0.388 OA
HETATM   28  H   UNK N   1      35.303  18.703   6.891  0.00  0.00     0.210 HD
ENDBRANCH   3  27
BRANCH   4  29
HETATM   29  N   UNK N   1      31.875  16.996   6.733  0.00  0.00    -0.293 N 
HETATM   30  C   UNK N   1      30.561  17.189   7.043  0.00  0.00     0.101 A 
HETATM   31  C   UNK N   1      29.618  17.455   6.059  0.00  0.00     0.065 A 
HETATM   32  C   UNK N   1      30.047  17.534   4.744  0.00  0.00     0.102 A 
HETATM   33  N   UNK N   1      31.354  17.350   4.447  0.00  0.00    -0.308 N 
HETATM   34  C   UNK N   1      32.275  17.082   5.416  0.00  0.00     0.227 A 
ATOM     35  HN  UNK N   1      31.658  17.411   3.476  1.00  0.00     0.171 HD
BRANCH  32  36
HETATM   36  N   UNK N   1      29.209  17.796   3.816  0.00  0.00    -0.385 N 
HETATM   37  H   UNK N   1      28.267  17.986   4.033  0.00  0.00     0.157 HD
ATOM     38  HN  UNK N   1      29.517  17.809   2.844  1.00  0.00     0.157 HD
ENDBRANCH  32  36
BRANCH  34  39
HETATM   39  O   UNK N   1      33.559  16.949   5.059  0.00  0.00    -0.332 OA
HETATM   40  H   UNK N   1      33.989  17.594   4.533  0.00  0.00     0.221 HD
ENDBRANCH  34  39
ENDBRANCH   4  29
TORSDOF 18
ENDMDL
