REMARK  3 active torsions:
REMARK  status: ('A' for Active; 'I' for Inactive)
REMARK       I    between atoms: N_1  and  C_2 
REMARK       I    between atoms: C_2  and  N_5 
REMARK    1  A    between atoms: N_5  and  C_6 
REMARK    2  A    between atoms: C_6  and  C_7 
REMARK    3  A    between atoms: C_7  and  O_8 
ROOT
HETATM    1  N   UNK N   1      -1.427   0.527   0.000  0.00  0.00    -0.235 N 
HETATM    2  C   UNK N   1      -0.242   1.292  -0.000  0.00  0.00     0.665 C 
HETATM    3  N   UNK N   1      -0.313   2.574   0.000  0.00  0.00    -0.235 N 
ATOM      4  HN  UNK N   1      -1.223   3.034   0.000  1.00  0.00     0.174 HD
HETATM    5  N   UNK N   1       1.018   0.642  -0.000  0.00  0.00    -0.217 N 
HETATM    6  H   UNK N   1      -2.302   0.976   0.000  0.00  0.00     0.174 HD
HETATM    7  H   UNK N   1      -1.378  -0.456   0.000  0.00  0.00     0.174 HD
HETATM    8  H   UNK N   1       0.511   3.112   0.000  0.00  0.00     0.174 HD
HETATM    9  H   UNK N   1       1.058  -0.342  -0.000  0.00  0.00     0.178 HD
ENDROOT
BRANCH   5  10
HETATM   10  C   UNK N   1       2.243   1.404  -0.000  0.00  0.00     0.247 C 
BRANCH  10  11
HETATM   11  C   UNK N   1       3.454   0.526  -0.000  0.00  0.00     0.158 C 
HETATM   12  O   UNK N   1       3.350  -0.691   0.000  0.00  0.00    -0.649 OA
BRANCH  11  13
HETATM   13  O   UNK N   1       4.674   1.093   0.000  0.00  0.00    -0.775 OA
HETATM   14  H   UNK N   1       5.440   0.554   0.000  0.00  0.00     0.167 HD
ENDBRANCH  11  13
ENDBRANCH  10  11
ENDBRANCH   5  10
TORSDOF 3
