MODEL 1
REMARK VINA RESULT:      -4.4      0.000      0.000
REMARK  3 active torsions:
REMARK  status: ('A' for Active; 'I' for Inactive)
REMARK       I    between atoms: N_1  and  C_2 
REMARK       I    between atoms: C_2  and  N_5 
REMARK    1  A    between atoms: N_5  and  C_6 
REMARK    2  A    between atoms: C_6  and  C_7 
REMARK    3  A    between atoms: C_7  and  O_8 
ROOT
HETATM    1  N   UNK N   1      36.476  15.676  11.423  0.00  0.00    -0.235 N 
HETATM    2  C   UNK N   1      35.668  15.894  10.288  0.00  0.00     0.665 C 
HETATM    3  N   UNK N   1      35.680  15.043   9.326  0.00  0.00    -0.235 N 
ATOM      4  HN  UNK N   1      36.272  14.215   9.385  1.00  0.00     0.174 HD
HETATM    5  N   UNK N   1      34.848  17.048  10.216  0.00  0.00    -0.217 N 
HETATM    6  H   UNK N   1      37.046  14.876  11.474  0.00  0.00     0.174 HD
HETATM    7  H   UNK N   1      36.470  16.325  12.163  0.00  0.00     0.174 HD
HETATM    8  H   UNK N   1      35.118  15.191   8.532  0.00  0.00     0.174 HD
HETATM    9  H   UNK N   1      34.848  17.692  10.961  0.00  0.00     0.178 HD
ENDROOT
BRANCH   5  10
HETATM   10  C   UNK N   1      34.013  17.291   9.065  0.00  0.00     0.247 C 
BRANCH  10  11
HETATM   11  C   UNK N   1      34.630  18.269   8.116  0.00  0.00     0.158 C 
HETATM   12  O   UNK N   1      35.277  19.221   8.524  0.00  0.00    -0.649 OA
BRANCH  11  13
HETATM   13  O   UNK N   1      34.467  18.090   6.792  0.00  0.00    -0.775 OA
HETATM   14  H   UNK N   1      33.648  17.778   6.461  0.00  0.00     0.167 HD
ENDBRANCH  11  13
ENDBRANCH  10  11
ENDBRANCH   5  10
TORSDOF 3
ENDMDL
MODEL 2
REMARK VINA RESULT:      -4.1      1.970      2.632
REMARK  3 active torsions:
REMARK  status: ('A' for Active; 'I' for Inactive)
REMARK       I    between atoms: N_1  and  C_2 
REMARK       I    between atoms: C_2  and  N_5 
REMARK    1  A    between atoms: N_5  and  C_6 
REMARK    2  A    between atoms: C_6  and  C_7 
REMARK    3  A    between atoms: C_7  and  O_8 
ROOT
HETATM    1  N   UNK N   1      32.178  14.070   9.180  0.00  0.00    -0.235 N 
HETATM    2  C   UNK N   1      33.092  15.038   9.646  0.00  0.00     0.665 C 
HETATM    3  N   UNK N   1      33.577  14.935  10.830  0.00  0.00    -0.235 N 
ATOM      4  HN  UNK N   1      33.301  14.157  11.429  1.00  0.00     0.174 HD
HETATM    5  N   UNK N   1      33.470  16.115   8.806  0.00  0.00    -0.217 N 
HETATM    6  H   UNK N   1      31.915  13.322   9.761  0.00  0.00     0.174 HD
HETATM    7  H   UNK N   1      31.803  14.144   8.273  0.00  0.00     0.174 HD
HETATM    8  H   UNK N   1      34.216  15.608  11.160  0.00  0.00     0.174 HD
HETATM    9  H   UNK N   1      33.091  16.182   7.899  0.00  0.00     0.178 HD
ENDROOT
BRANCH   5  10
HETATM   10  C   UNK N   1      34.404  17.116   9.261  0.00  0.00     0.247 C 
BRANCH  10  11
HETATM   11  C   UNK N   1      34.710  18.127   8.202  0.00  0.00     0.158 C 
HETATM   12  O   UNK N   1      34.413  17.925   7.034  0.00  0.00    -0.649 OA
BRANCH  11  13
HETATM   13  O   UNK N   1      35.321  19.274   8.548  0.00  0.00    -0.775 OA
HETATM   14  H   UNK N   1      36.243  19.281   8.712  0.00  0.00     0.167 HD
ENDBRANCH  11  13
ENDBRANCH  10  11
ENDBRANCH   5  10
TORSDOF 3
ENDMDL
MODEL 3
REMARK VINA RESULT:      -4.1     16.072     16.589
REMARK  3 active torsions:
REMARK  status: ('A' for Active; 'I' for Inactive)
REMARK       I    between atoms: N_1  and  C_2 
REMARK       I    between atoms: C_2  and  N_5 
REMARK    1  A    between atoms: N_5  and  C_6 
REMARK    2  A    between atoms: C_6  and  C_7 
REMARK    3  A    between atoms: C_7  and  O_8 
ROOT
HETATM    1  N   UNK N   1      19.676  16.035   2.015  0.00  0.00    -0.235 N 
HETATM    2  C   UNK N   1      19.996  17.295   1.465  0.00  0.00     0.665 C 
HETATM    3  N   UNK N   1      19.923  17.471   0.196  0.00  0.00    -0.235 N 
ATOM      4  HN  UNK N   1      19.635  16.703  -0.410  1.00  0.00     0.174 HD
HETATM    5  N   UNK N   1      20.395  18.355   2.317  0.00  0.00    -0.217 N 
HETATM    6  H   UNK N   1      19.399  15.298   1.425  0.00  0.00     0.174 HD
HETATM    7  H   UNK N   1      19.731  15.895   2.987  0.00  0.00     0.174 HD
HETATM    8  H   UNK N   1      20.145  18.348  -0.192  0.00  0.00     0.174 HD
HETATM    9  H   UNK N   1      20.447  18.206   3.289  0.00  0.00     0.178 HD
ENDROOT
BRANCH   5  10
HETATM   10  C   UNK N   1      20.726  19.652   1.778  0.00  0.00     0.247 C 
BRANCH  10  11
HETATM   11  C   UNK N   1      20.922  20.676   2.850  0.00  0.00     0.158 C 
HETATM   12  O   UNK N   1      20.300  20.617   3.899  0.00  0.00    -0.649 OA
BRANCH  11  13
HETATM   13  O   UNK N   1      21.800  21.676   2.648  0.00  0.00    -0.775 OA
HETATM   14  H   UNK N   1      21.671  22.503   3.067  0.00  0.00     0.167 HD
ENDBRANCH  11  13
ENDBRANCH  10  11
ENDBRANCH   5  10
TORSDOF 3
ENDMDL
MODEL 4
REMARK VINA RESULT:      -4.0      2.308      2.624
REMARK  3 active torsions:
REMARK  status: ('A' for Active; 'I' for Inactive)
REMARK       I    between atoms: N_1  and  C_2 
REMARK       I    between atoms: C_2  and  N_5 
REMARK    1  A    between atoms: N_5  and  C_6 
REMARK    2  A    between atoms: C_6  and  C_7 
REMARK    3  A    between atoms: C_7  and  O_8 
ROOT
HETATM    1  N   UNK N   1      32.789  14.863  10.482  0.00  0.00    -0.235 N 
HETATM    2  C   UNK N   1      32.676  15.625   9.301  0.00  0.00     0.665 C 
HETATM    3  N   UNK N   1      32.323  15.053   8.207  0.00  0.00    -0.235 N 
ATOM      4  HN  UNK N   1      32.126  14.052   8.195  1.00  0.00     0.174 HD
HETATM    5  N   UNK N   1      32.951  17.015   9.328  0.00  0.00    -0.217 N 
HETATM    6  H   UNK N   1      32.598  13.898  10.465  0.00  0.00     0.174 HD
HETATM    7  H   UNK N   1      33.059  15.296  11.323  0.00  0.00     0.174 HD
HETATM    8  H   UNK N   1      32.242  15.580   7.380  0.00  0.00     0.174 HD
HETATM    9  H   UNK N   1      33.221  17.441  10.174  0.00  0.00     0.178 HD
ENDROOT
BRANCH   5  10
HETATM   10  C   UNK N   1      32.842  17.814   8.132  0.00  0.00     0.247 C 
BRANCH  10  11
HETATM   11  C   UNK N   1      34.180  18.207   7.591  0.00  0.00     0.158 C 
HETATM   12  O   UNK N   1      34.557  17.816   6.498  0.00  0.00    -0.649 OA
BRANCH  11  13
HETATM   13  O   UNK N   1      34.975  19.005   8.327  0.00  0.00    -0.775 OA
HETATM   14  H   UNK N   1      35.906  18.942   8.244  0.00  0.00     0.167 HD
ENDBRANCH  11  13
ENDBRANCH  10  11
ENDBRANCH   5  10
TORSDOF 3
ENDMDL
MODEL 5
REMARK VINA RESULT:      -3.9      4.560      5.522
REMARK  3 active torsions:
REMARK  status: ('A' for Active; 'I' for Inactive)
REMARK       I    between atoms: N_1  and  C_2 
REMARK       I    between atoms: C_2  and  N_5 
REMARK    1  A    between atoms: N_5  and  C_6 
REMARK    2  A    between atoms: C_6  and  C_7 
REMARK    3  A    between atoms: C_7  and  O_8 
ROOT
HETATM    1  N   UNK N   1      34.983  17.049  10.669  0.00  0.00    -0.235 N 
HETATM    2  C   UNK N   1      35.074  15.734  11.171  0.00  0.00     0.665 C 
HETATM    3  N   UNK N   1      34.035  14.979  11.170  0.00  0.00    -0.235 N 
ATOM      4  HN  UNK N   1      33.150  15.331  10.808  1.00  0.00     0.174 HD
HETATM    5  N   UNK N   1      36.310  15.254  11.674  0.00  0.00    -0.217 N 
HETATM    6  H   UNK N   1      34.126  17.383  10.321  0.00  0.00     0.174 HD
HETATM    7  H   UNK N   1      35.776  17.631  10.668  0.00  0.00     0.174 HD
HETATM    8  H   UNK N   1      34.094  14.061  11.520  0.00  0.00     0.174 HD
HETATM    9  H   UNK N   1      37.099  15.843  11.669  0.00  0.00     0.178 HD
ENDROOT
BRANCH   5  10
HETATM   10  C   UNK N   1      36.427  13.913  12.192  0.00  0.00     0.247 C 
BRANCH  10  11
HETATM   11  C   UNK N   1      36.075  13.836  13.644  0.00  0.00     0.158 C 
HETATM   12  O   UNK N   1      34.939  13.567  14.003  0.00  0.00    -0.649 OA
BRANCH  11  13
HETATM   13  O   UNK N   1      37.029  14.069  14.563  0.00  0.00    -0.775 OA
HETATM   14  H   UNK N   1      36.929  14.771  15.174  0.00  0.00     0.167 HD
ENDBRANCH  11  13
ENDBRANCH  10  11
ENDBRANCH   5  10
TORSDOF 3
ENDMDL
MODEL 6
REMARK VINA RESULT:      -3.8     12.856     13.479
REMARK  3 active torsions:
REMARK  status: ('A' for Active; 'I' for Inactive)
REMARK       I    between atoms: N_1  and  C_2 
REMARK       I    between atoms: C_2  and  N_5 
REMARK    1  A    between atoms: N_5  and  C_6 
REMARK    2  A    between atoms: C_6  and  C_7 
REMARK    3  A    between atoms: C_7  and  O_8 
ROOT
HETATM    1  N   UNK N   1      21.268  14.580   9.422  0.00  0.00    -0.235 N 
HETATM    2  C   UNK N   1      22.175  13.542   9.723  0.00  0.00     0.665 C 
HETATM    3  N   UNK N   1      23.246  13.412   9.027  0.00  0.00    -0.235 N 
ATOM      4  HN  UNK N   1      23.437  14.057   8.261  1.00  0.00     0.174 HD
HETATM    5  N   UNK N   1      21.898  12.651  10.790  0.00  0.00    -0.217 N 
HETATM    6  H   UNK N   1      21.458  15.199   8.682  0.00  0.00     0.174 HD
HETATM    7  H   UNK N   1      20.446  14.684   9.953  0.00  0.00     0.174 HD
HETATM    8  H   UNK N   1      23.881  12.689   9.233  0.00  0.00     0.174 HD
HETATM    9  H   UNK N   1      21.073  12.762  11.316  0.00  0.00     0.178 HD
ENDROOT
BRANCH   5  10
HETATM   10  C   UNK N   1      22.811  11.582  11.116  0.00  0.00     0.247 C 
BRANCH  10  11
HETATM   11  C   UNK N   1      23.881  12.023  12.064  0.00  0.00     0.158 C 
HETATM   12  O   UNK N   1      23.697  12.011  13.272  0.00  0.00    -0.649 OA
BRANCH  11  13
HETATM   13  O   UNK N   1      25.062  12.437  11.571  0.00  0.00    -0.775 OA
HETATM   14  H   UNK N   1      25.753  11.820  11.432  0.00  0.00     0.167 HD
ENDBRANCH  11  13
ENDBRANCH  10  11
ENDBRANCH   5  10
TORSDOF 3
ENDMDL
MODEL 7
REMARK VINA RESULT:      -3.6     11.045     11.455
REMARK  3 active torsions:
REMARK  status: ('A' for Active; 'I' for Inactive)
REMARK       I    between atoms: N_1  and  C_2 
REMARK       I    between atoms: C_2  and  N_5 
REMARK    1  A    between atoms: N_5  and  C_6 
REMARK    2  A    between atoms: C_6  and  C_7 
REMARK    3  A    between atoms: C_7  and  O_8 
ROOT
HETATM    1  N   UNK N   1      45.816  22.074   4.169  0.00  0.00    -0.235 N 
HETATM    2  C   UNK N   1      44.406  22.053   4.130  0.00  0.00     0.665 C 
HETATM    3  N   UNK N   1      43.736  22.671   5.034  0.00  0.00    -0.235 N 
ATOM      4  HN  UNK N   1      44.223  23.174   5.776  1.00  0.00     0.174 HD
HETATM    5  N   UNK N   1      43.739  21.352   3.094  0.00  0.00    -0.217 N 
HETATM    6  H   UNK N   1      46.280  22.560   4.887  0.00  0.00     0.174 HD
HETATM    7  H   UNK N   1      46.334  21.602   3.479  0.00  0.00     0.174 HD
HETATM    8  H   UNK N   1      42.752  22.660   5.011  0.00  0.00     0.174 HD
HETATM    9  H   UNK N   1      44.265  20.882   2.407  0.00  0.00     0.178 HD
ENDROOT
BRANCH   5  10
HETATM   10  C   UNK N   1      42.298  21.317   3.034  0.00  0.00     0.247 C 
BRANCH  10  11
HETATM   11  C   UNK N   1      41.743  22.402   2.167  0.00  0.00     0.158 C 
HETATM   12  O   UNK N   1      40.976  22.147   1.251  0.00  0.00    -0.649 OA
BRANCH  11  13
HETATM   13  O   UNK N   1      42.097  23.678   2.407  0.00  0.00    -0.775 OA
HETATM   14  H   UNK N   1      42.313  24.245   1.693  0.00  0.00     0.167 HD
ENDBRANCH  11  13
ENDBRANCH  10  11
ENDBRANCH   5  10
TORSDOF 3
ENDMDL
MODEL 8
REMARK VINA RESULT:      -3.5     12.213     12.675
REMARK  3 active torsions:
REMARK  status: ('A' for Active; 'I' for Inactive)
REMARK       I    between atoms: N_1  and  C_2 
REMARK       I    between atoms: C_2  and  N_5 
REMARK    1  A    between atoms: N_5  and  C_6 
REMARK    2  A    between atoms: C_6  and  C_7 
REMARK    3  A    between atoms: C_7  and  O_8 
ROOT
HETATM    1  N   UNK N   1      45.441  25.102   2.736  0.00  0.00    -0.235 N 
HETATM    2  C   UNK N   1      44.678  23.958   2.423  0.00  0.00     0.665 C 
HETATM    3  N   UNK N   1      45.100  23.135   1.532  0.00  0.00    -0.235 N 
ATOM      4  HN  UNK N   1      45.984  23.311   1.055  1.00  0.00     0.174 HD
HETATM    5  N   UNK N   1      43.450  23.724   3.093  0.00  0.00    -0.217 N 
HETATM    6  H   UNK N   1      46.293  25.266   2.272  0.00  0.00     0.174 HD
HETATM    7  H   UNK N   1      45.122  25.735   3.418  0.00  0.00     0.174 HD
HETATM    8  H   UNK N   1      44.570  22.336   1.311  0.00  0.00     0.174 HD
HETATM    9  H   UNK N   1      43.138  24.363   3.775  0.00  0.00     0.178 HD
ENDROOT
BRANCH   5  10
HETATM   10  C   UNK N   1      42.652  22.561   2.790  0.00  0.00     0.247 C 
BRANCH  10  11
HETATM   11  C   UNK N   1      41.511  22.881   1.878  0.00  0.00     0.158 C 
HETATM   12  O   UNK N   1      41.059  22.042   1.114  0.00  0.00    -0.649 OA
BRANCH  11  13
HETATM   13  O   UNK N   1      40.979  24.117   1.904  0.00  0.00    -0.775 OA
HETATM   14  H   UNK N   1      40.701  24.523   1.108  0.00  0.00     0.167 HD
ENDBRANCH  11  13
ENDBRANCH  10  11
ENDBRANCH   5  10
TORSDOF 3
ENDMDL
MODEL 9
REMARK VINA RESULT:      -3.4      2.889      3.730
REMARK  3 active torsions:
REMARK  status: ('A' for Active; 'I' for Inactive)
REMARK       I    between atoms: N_1  and  C_2 
REMARK       I    between atoms: C_2  and  N_5 
REMARK    1  A    between atoms: N_5  and  C_6 
REMARK    2  A    between atoms: C_6  and  C_7 
REMARK    3  A    between atoms: C_7  and  O_8 
ROOT
HETATM    1  N   UNK N   1      31.975  14.954   7.485  0.00  0.00    -0.235 N 
HETATM    2  C   UNK N   1      32.743  14.703   8.641  0.00  0.00     0.665 C 
HETATM    3  N   UNK N   1      32.598  13.594   9.273  0.00  0.00    -0.235 N 
ATOM      4  HN  UNK N   1      31.930  12.901   8.937  1.00  0.00     0.174 HD
HETATM    5  N   UNK N   1      33.668  15.675   9.099  0.00  0.00    -0.217 N 
HETATM    6  H   UNK N   1      31.332  14.281   7.166  0.00  0.00     0.174 HD
HETATM    7  H   UNK N   1      32.082  15.802   6.998  0.00  0.00     0.174 HD
HETATM    8  H   UNK N   1      33.132  13.415  10.080  0.00  0.00     0.174 HD
HETATM    9  H   UNK N   1      33.770  16.521   8.605  0.00  0.00     0.178 HD
ENDROOT
BRANCH   5  10
HETATM   10  C   UNK N   1      34.464  15.440  10.279  0.00  0.00     0.247 C 
BRANCH  10  11
HETATM   11  C   UNK N   1      35.560  16.447  10.431  0.00  0.00     0.158 C 
HETATM   12  O   UNK N   1      35.391  17.615  10.114  0.00  0.00    -0.649 OA
BRANCH  11  13
HETATM   13  O   UNK N   1      36.747  16.054  10.926  0.00  0.00    -0.775 OA
HETATM   14  H   UNK N   1      37.139  16.528  11.633  0.00  0.00     0.167 HD
ENDBRANCH  11  13
ENDBRANCH  10  11
ENDBRANCH   5  10
TORSDOF 3
ENDMDL
