REMARK  9 active torsions:
REMARK  status: ('A' for Active; 'I' for Inactive)
REMARK    1  A    between atoms: C_2  and  C_1 
REMARK    2  A    between atoms: O_19  and  C_1 
REMARK    3  A    between atoms: C_3  and  O_12 
REMARK    4  A    between atoms: C_4  and  O_13 
REMARK    5  A    between atoms: O_14  and  C_5 
REMARK    6  A    between atoms: O_15  and  C_6 
REMARK    7  A    between atoms: P_21  and  O_16 
REMARK    8  A    between atoms: P_21  and  O_17 
REMARK    9  A    between atoms: P_21  and  O_19 
ROOT
HETATM    1  C   UNK N   1      -0.597   0.705   0.044  0.00  0.00     0.181 C 
HETATM    2  C   UNK N   1      -0.653  -0.808  -0.029  0.00  0.00     0.183 C 
HETATM    3  C   UNK N   1       0.736  -1.144   0.436  0.00  0.00     0.213 C 
HETATM    4  C   UNK N   1       2.533   0.603   0.843  0.00  0.00     0.179 A 
HETATM    5  C   UNK N   1       3.644  -0.044  -0.866  0.00  0.00     0.221 A 
HETATM    6  C   UNK N   1       1.533   0.043  -0.140  0.00  0.00     0.233 A 
HETATM    7  N   UNK N   1       3.725   0.537   0.401  0.00  0.00    -0.302 N 
ATOM      8  HN  UNK N   1       4.572   0.847   0.878  1.00  0.00     0.171 HD
HETATM    9  N   UNK N   1       2.443  -0.331  -1.213  0.00  0.00    -0.315 N 
ATOM     10  HN  UNK N   1       2.169  -0.754  -2.100  1.00  0.00     0.166 HD
HETATM   11  O   UNK N   1       0.629   1.050  -0.558  0.00  0.00    -0.341 OA
ENDROOT
BRANCH   3  12
HETATM   12  O   UNK N   1       1.157  -2.396  -0.026  0.00  0.00    -0.387 OA
HETATM   13  H   UNK N   1       0.551  -3.083  -0.346  0.00  0.00     0.210 HD
ENDBRANCH   3  12
BRANCH   4  14
HETATM   14  O   UNK N   1       2.224   1.132   2.042  0.00  0.00    -0.345 OA
HETATM   15  H   UNK N   1       2.435   1.503   2.877  0.00  0.00     0.219 HD
ENDBRANCH   4  14
BRANCH   2  16
HETATM   16  O   UNK N   1      -1.641  -1.359   0.793  0.00  0.00    -0.390 OA
HETATM   17  H   UNK N   1      -2.315  -0.956   1.362  0.00  0.00     0.210 HD
ENDBRANCH   2  16
BRANCH   5  18
HETATM   18  O   UNK N   1       4.715  -0.276  -1.645  0.00  0.00    -0.332 OA
HETATM   19  H   UNK N   1       4.949  -1.002  -2.189  0.00  0.00     0.220 HD
ENDBRANCH   5  18
BRANCH   1  20
HETATM   20  C   UNK N   1      -1.774   1.332  -0.696  0.00  0.00     0.215 C 
BRANCH  20  21
HETATM   21  O   UNK N   1      -1.571   2.706  -0.895  0.00  0.00    -0.294 OA
BRANCH  21  22
HETATM   22  P   UNK N   1      -2.539   3.524   0.299  0.00  0.00     0.390 P 
HETATM   23  O   UNK N   1      -3.427   3.668  -0.967  0.00  0.00    -0.632 OA
BRANCH  22  24
HETATM   24  O   UNK N   1      -2.788   5.239   0.198  0.00  0.00    -0.307 OA
HETATM   25  H   UNK N   1      -2.028   5.839   0.141  0.00  0.00     0.222 HD
ENDBRANCH  22  24
BRANCH  22  26
HETATM   26  O   UNK N   1      -1.037   4.361   0.053  0.00  0.00    -0.307 OA
HETATM   27  H   UNK N   1      -0.212   3.868  -0.084  0.00  0.00     0.222 HD
ENDBRANCH  22  26
ENDBRANCH  21  22
ENDBRANCH  20  21
ENDBRANCH   1  20
TORSDOF 9
