MODEL 1
REMARK VINA RESULT:      -6.1      0.000      0.000
REMARK  17 active torsions:
REMARK  status: ('A' for Active; 'I' for Inactive)
REMARK    1  A    between atoms: C_4  and  C_3 
REMARK    2  A    between atoms: C_5  and  C_3 
REMARK    3  A    between atoms: C_8  and  C_4 
REMARK    4  A    between atoms: C_10  and  C_5 
REMARK    5  A    between atoms: C_9  and  C_6 
REMARK    6  A    between atoms: S_26  and  C_6 
REMARK    7  A    between atoms: C_11  and  C_7 
REMARK    8  A    between atoms: C_13  and  C_8 
REMARK    9  A    between atoms: N_15  and  C_8 
REMARK   10  A    between atoms: C_12  and  C_9 
REMARK   11  A    between atoms: N_16  and  C_9 
REMARK   12  A    between atoms: O_20  and  C_10 
REMARK   13  A    between atoms: C_14  and  C_11 
REMARK   14  A    between atoms: C_11  and  N_18 
REMARK   15  A    between atoms: C_12  and  O_21 
REMARK   16  A    between atoms: O_23  and  C_13 
REMARK   17  A    between atoms: O_25  and  C_14 
ROOT
HETATM    1  C   UNK N   1      27.903  17.108   5.921  0.00  0.00     0.166 C 
ENDROOT
BRANCH   1   2
HETATM    2  C   UNK N   1      28.848  15.908   5.899  0.00  0.00     0.104 C 
BRANCH   2   3
HETATM    3  S   UNK N   1      28.330  14.678   4.657  0.00  0.00    -0.180 SA
HETATM    4  H   UNK N   1      27.406  14.625   3.661  0.00  0.00     0.101 HD
ENDBRANCH   2   3
ENDBRANCH   1   2
BRANCH   1   5
HETATM    5  C   UNK N   1      28.489  18.303   5.186  0.00  0.00     0.136 C 
HETATM    6  N   UNK N   1      27.822  19.394   4.976  0.00  0.00    -0.355 N 
ATOM      7  HN  UNK N   1      28.300  20.128   4.453  1.00  0.00     0.162 HD
BRANCH   6   8
HETATM    8  C   UNK N   1      26.464  19.681   5.409  0.00  0.00     0.210 C 
BRANCH   8   9
HETATM    9  C   UNK N   1      25.628  20.029   4.192  0.00  0.00    -0.060 C 
HETATM   10  C   UNK N   1      24.324  19.753   4.113  0.00  0.00     0.016 C 
HETATM   11  C   UNK N   1      26.290  20.668   3.016  0.00  0.00     0.045 C 
ENDBRANCH   8   9
BRANCH   8  12
HETATM   12  C   UNK N   1      26.525  20.781   6.441  0.00  0.00     0.168 C 
HETATM   13  O   UNK N   1      26.755  21.931   6.100  0.00  0.00    -0.648 OA
BRANCH  12  14
HETATM   14  O   UNK N   1      26.314  20.502   7.743  0.00  0.00    -0.775 OA
HETATM   15  H   UNK N   1      26.148  21.023   8.503  0.00  0.00     0.167 HD
ENDBRANCH  12  14
ENDBRANCH   8  12
ENDBRANCH   6   8
BRANCH   5  16
HETATM   16  O   UNK N   1      29.738  18.213   4.688  0.00  0.00    -0.348 OA
HETATM   17  H   UNK N   1      30.574  17.825   4.515  0.00  0.00     0.219 HD
ENDBRANCH   5  16
ENDBRANCH   1   5
BRANCH   1  18
HETATM   18  N   UNK N   1      27.485  17.426   7.282  0.00  0.00    -0.362 N 
HETATM   19  C   UNK N   1      28.205  17.895   8.254  0.00  0.00     0.111 C 
ATOM     20  HN  UNK N   1      26.502  17.260   7.497  1.00  0.00     0.162 HD
BRANCH  19  21
HETATM   21  C   UNK N   1      29.665  18.270   8.122  0.00  0.00     0.083 C 
BRANCH  21  22
HETATM   22  C   UNK N   1      30.710  17.239   8.564  0.00  0.00     0.010 C 
BRANCH  22  23
HETATM   23  C   UNK N   1      32.065  17.343   7.866  0.00  0.00     0.036 C 
BRANCH  23  24
HETATM   24  C   UNK N   1      33.227  17.755   8.755  0.00  0.00     0.173 C 
BRANCH  24  25
HETATM   25  C   UNK N   1      34.362  18.299   7.939  0.00  0.00     0.163 C 
HETATM   26  O   UNK N   1      35.182  19.050   8.446  0.00  0.00    -0.648 OA
BRANCH  25  27
HETATM   27  O   UNK N   1      34.473  17.973   6.638  0.00  0.00    -0.775 OA
HETATM   28  H   UNK N   1      34.760  18.604   6.007  0.00  0.00     0.167 HD
ENDBRANCH  25  27
ENDBRANCH  24  25
BRANCH  24  29
HETATM   29  N   UNK N   1      33.681  16.580   9.478  0.00  0.00    -0.418 N 
HETATM   30  H   UNK N   1      33.549  16.300  10.451  0.00  0.00     0.150 HD
HETATM   31  H   UNK N   1      34.224  15.923   8.919  0.00  0.00     0.150 HD
ENDBRANCH  24  29
ENDBRANCH  23  24
ENDBRANCH  22  23
ENDBRANCH  21  22
ENDBRANCH  19  21
BRANCH  19  32
HETATM   32  O   UNK N   1      27.611  18.124   9.440  0.00  0.00    -0.350 OA
HETATM   33  H   UNK N   1      27.344  18.691  10.136  0.00  0.00     0.219 HD
ENDBRANCH  19  32
ENDBRANCH   1  18
TORSDOF 17
ENDMDL
MODEL 2
REMARK VINA RESULT:      -6.1     11.103     12.585
REMARK  17 active torsions:
REMARK  status: ('A' for Active; 'I' for Inactive)
REMARK    1  A    between atoms: C_4  and  C_3 
REMARK    2  A    between atoms: C_5  and  C_3 
REMARK    3  A    between atoms: C_8  and  C_4 
REMARK    4  A    between atoms: C_10  and  C_5 
REMARK    5  A    between atoms: C_9  and  C_6 
REMARK    6  A    between atoms: S_26  and  C_6 
REMARK    7  A    between atoms: C_11  and  C_7 
REMARK    8  A    between atoms: C_13  and  C_8 
REMARK    9  A    between atoms: N_15  and  C_8 
REMARK   10  A    between atoms: C_12  and  C_9 
REMARK   11  A    between atoms: N_16  and  C_9 
REMARK   12  A    between atoms: O_20  and  C_10 
REMARK   13  A    between atoms: C_14  and  C_11 
REMARK   14  A    between atoms: C_11  and  N_18 
REMARK   15  A    between atoms: C_12  and  O_21 
REMARK   16  A    between atoms: O_23  and  C_13 
REMARK   17  A    between atoms: O_25  and  C_14 
ROOT
HETATM    1  C   UNK N   1      28.695  24.682  -4.015  0.00  0.00     0.166 C 
ENDROOT
BRANCH   1   2
HETATM    2  C   UNK N   1      28.890  26.178  -4.256  0.00  0.00     0.104 C 
BRANCH   2   3
HETATM    3  S   UNK N   1      30.531  26.733  -3.689  0.00  0.00    -0.180 SA
HETATM    4  H   UNK N   1      31.102  27.924  -3.367  0.00  0.00     0.101 HD
ENDBRANCH   2   3
ENDBRANCH   1   2
BRANCH   1   5
HETATM    5  C   UNK N   1      27.239  24.336  -3.747  0.00  0.00     0.136 C 
HETATM    6  N   UNK N   1      26.363  24.203  -4.692  0.00  0.00    -0.355 N 
ATOM      7  HN  UNK N   1      25.408  23.992  -4.404  1.00  0.00     0.162 HD
BRANCH   6   8
HETATM    8  C   UNK N   1      26.601  24.321  -6.122  0.00  0.00     0.210 C 
BRANCH   8   9
HETATM    9  C   UNK N   1      25.849  25.532  -6.642  0.00  0.00    -0.060 C 
HETATM   10  C   UNK N   1      25.881  25.902  -7.925  0.00  0.00     0.016 C 
HETATM   11  C   UNK N   1      25.072  26.371  -5.681  0.00  0.00     0.045 C 
ENDBRANCH   8   9
BRANCH   8  12
HETATM   12  C   UNK N   1      26.191  23.023  -6.773  0.00  0.00     0.168 C 
HETATM   13  O   UNK N   1      26.986  22.401  -7.460  0.00  0.00    -0.648 OA
BRANCH  12  14
HETATM   14  O   UNK N   1      24.947  22.536  -6.589  0.00  0.00    -0.775 OA
HETATM   15  H   UNK N   1      24.091  22.821  -6.840  0.00  0.00     0.167 HD
ENDBRANCH  12  14
ENDBRANCH   8  12
ENDBRANCH   6   8
BRANCH   5  16
HETATM   16  O   UNK N   1      26.825  24.208  -2.471  0.00  0.00    -0.348 OA
HETATM   17  H   UNK N   1      26.218  24.082  -1.767  0.00  0.00     0.219 HD
ENDBRANCH   5  16
ENDBRANCH   1   5
BRANCH   1  18
HETATM   18  N   UNK N   1      29.596  24.192  -2.977  0.00  0.00    -0.362 N 
HETATM   19  C   UNK N   1      30.207  23.049  -2.919  0.00  0.00     0.111 C 
ATOM     20  HN  UNK N   1      29.766  24.828  -2.198  1.00  0.00     0.162 HD
BRANCH  19  21
HETATM   21  C   UNK N   1      30.139  21.996  -4.004  0.00  0.00     0.083 C 
BRANCH  21  22
HETATM   22  C   UNK N   1      30.910  20.689  -3.779  0.00  0.00     0.010 C 
BRANCH  22  23
HETATM   23  C   UNK N   1      32.150  20.506  -4.653  0.00  0.00     0.036 C 
BRANCH  23  24
HETATM   24  C   UNK N   1      33.479  20.553  -3.916  0.00  0.00     0.173 C 
BRANCH  24  25
HETATM   25  C   UNK N   1      34.197  19.240  -4.016  0.00  0.00     0.163 C 
HETATM   26  O   UNK N   1      35.351  19.197  -4.415  0.00  0.00    -0.648 OA
BRANCH  25  27
HETATM   27  O   UNK N   1      33.565  18.100  -3.681  0.00  0.00    -0.775 OA
HETATM   28  H   UNK N   1      32.679  17.946  -3.945  0.00  0.00     0.167 HD
ENDBRANCH  25  27
ENDBRANCH  24  25
BRANCH  24  29
HETATM   29  N   UNK N   1      33.210  20.843  -2.518  0.00  0.00    -0.418 N 
HETATM   30  H   UNK N   1      32.555  21.493  -2.083  0.00  0.00     0.150 HD
HETATM   31  H   UNK N   1      33.774  20.307  -1.858  0.00  0.00     0.150 HD
ENDBRANCH  24  29
ENDBRANCH  23  24
ENDBRANCH  22  23
ENDBRANCH  21  22
ENDBRANCH  19  21
BRANCH  19  32
HETATM   32  O   UNK N   1      31.003  22.800  -1.863  0.00  0.00    -0.350 OA
HETATM   33  H   UNK N   1      31.645  22.287  -1.412  0.00  0.00     0.219 HD
ENDBRANCH  19  32
ENDBRANCH   1  18
TORSDOF 17
ENDMDL
MODEL 3
REMARK VINA RESULT:      -5.9      4.590      6.898
REMARK  17 active torsions:
REMARK  status: ('A' for Active; 'I' for Inactive)
REMARK    1  A    between atoms: C_4  and  C_3 
REMARK    2  A    between atoms: C_5  and  C_3 
REMARK    3  A    between atoms: C_8  and  C_4 
REMARK    4  A    between atoms: C_10  and  C_5 
REMARK    5  A    between atoms: C_9  and  C_6 
REMARK    6  A    between atoms: S_26  and  C_6 
REMARK    7  A    between atoms: C_11  and  C_7 
REMARK    8  A    between atoms: C_13  and  C_8 
REMARK    9  A    between atoms: N_15  and  C_8 
REMARK   10  A    between atoms: C_12  and  C_9 
REMARK   11  A    between atoms: N_16  and  C_9 
REMARK   12  A    between atoms: O_20  and  C_10 
REMARK   13  A    between atoms: C_14  and  C_11 
REMARK   14  A    between atoms: C_11  and  N_18 
REMARK   15  A    between atoms: C_12  and  O_21 
REMARK   16  A    between atoms: O_23  and  C_13 
REMARK   17  A    between atoms: O_25  and  C_14 
ROOT
HETATM    1  C   UNK N   1      33.854  16.398   8.875  0.00  0.00     0.166 C 
ENDROOT
BRANCH   1   2
HETATM    2  C   UNK N   1      33.770  15.232   7.892  0.00  0.00     0.104 C 
BRANCH   2   3
HETATM    3  S   UNK N   1      35.235  15.170   6.809  0.00  0.00    -0.180 SA
HETATM    4  H   UNK N   1      36.416  15.837   6.725  0.00  0.00     0.101 HD
ENDBRANCH   2   3
ENDBRANCH   1   2
BRANCH   1   5
HETATM    5  C   UNK N   1      33.463  17.716   8.225  0.00  0.00     0.136 C 
HETATM    6  N   UNK N   1      32.236  18.029   7.954  0.00  0.00    -0.355 N 
ATOM      7  HN  UNK N   1      32.083  18.928   7.496  1.00  0.00     0.162 HD
BRANCH   6   8
HETATM    8  C   UNK N   1      31.052  17.232   8.235  0.00  0.00     0.210 C 
BRANCH   8   9
HETATM    9  C   UNK N   1      30.268  17.055   6.949  0.00  0.00    -0.060 C 
HETATM   10  C   UNK N   1      28.933  17.099   6.910  0.00  0.00     0.016 C 
HETATM   11  C   UNK N   1      31.006  16.781   5.681  0.00  0.00     0.045 C 
ENDBRANCH   8   9
BRANCH   8  12
HETATM   12  C   UNK N   1      30.276  17.921   9.332  0.00  0.00     0.168 C 
HETATM   13  O   UNK N   1      30.189  19.138   9.352  0.00  0.00    -0.648 OA
BRANCH  12  14
HETATM   14  O   UNK N   1      29.664  17.193  10.288  0.00  0.00    -0.775 OA
HETATM   15  H   UNK N   1      29.063  17.396  10.977  0.00  0.00     0.167 HD
ENDBRANCH  12  14
ENDBRANCH   8  12
ENDBRANCH   6   8
BRANCH   5  16
HETATM   16  O   UNK N   1      34.435  18.580   7.868  0.00  0.00    -0.348 OA
HETATM   17  H   UNK N   1      34.807  19.376   7.542  0.00  0.00     0.219 HD
ENDBRANCH   5  16
ENDBRANCH   1   5
BRANCH   1  18
HETATM   18  N   UNK N   1      35.160  16.450   9.523  0.00  0.00    -0.362 N 
HETATM   19  C   UNK N   1      35.536  15.866  10.619  0.00  0.00     0.111 C 
ATOM     20  HN  UNK N   1      35.867  17.018   9.057  1.00  0.00     0.162 HD
BRANCH  19  21
HETATM   21  C   UNK N   1      34.660  14.930  11.423  0.00  0.00     0.083 C 
BRANCH  21  22
HETATM   22  C   UNK N   1      35.055  13.448  11.472  0.00  0.00     0.010 C 
BRANCH  22  23
HETATM   23  C   UNK N   1      35.077  12.826  12.867  0.00  0.00     0.036 C 
BRANCH  23  24
HETATM   24  C   UNK N   1      36.440  12.778  13.538  0.00  0.00     0.173 C 
BRANCH  24  25
HETATM   25  C   UNK N   1      36.607  13.917  14.500  0.00  0.00     0.163 C 
HETATM   26  O   UNK N   1      36.468  13.736  15.700  0.00  0.00    -0.648 OA
BRANCH  25  27
HETATM   27  O   UNK N   1      36.894  15.150  14.041  0.00  0.00    -0.775 OA
HETATM   28  H   UNK N   1      36.218  15.785  13.912  0.00  0.00     0.167 HD
ENDBRANCH  25  27
ENDBRANCH  24  25
BRANCH  24  29
HETATM   29  N   UNK N   1      37.456  12.876  12.504  0.00  0.00    -0.418 N 
HETATM   30  H   UNK N   1      37.395  13.184  11.533  0.00  0.00     0.150 HD
HETATM   31  H   UNK N   1      38.388  12.586  12.798  0.00  0.00     0.150 HD
ENDBRANCH  24  29
ENDBRANCH  23  24
ENDBRANCH  22  23
ENDBRANCH  21  22
ENDBRANCH  19  21
BRANCH  19  32
HETATM   32  O   UNK N   1      36.801  16.046  11.041  0.00  0.00    -0.350 OA
HETATM   33  H   UNK N   1      37.622  16.497  11.026  0.00  0.00     0.219 HD
ENDBRANCH  19  32
ENDBRANCH   1  18
TORSDOF 17
ENDMDL
MODEL 4
REMARK VINA RESULT:      -5.8      5.807      8.409
REMARK  17 active torsions:
REMARK  status: ('A' for Active; 'I' for Inactive)
REMARK    1  A    between atoms: C_4  and  C_3 
REMARK    2  A    between atoms: C_5  and  C_3 
REMARK    3  A    between atoms: C_8  and  C_4 
REMARK    4  A    between atoms: C_10  and  C_5 
REMARK    5  A    between atoms: C_9  and  C_6 
REMARK    6  A    between atoms: S_26  and  C_6 
REMARK    7  A    between atoms: C_11  and  C_7 
REMARK    8  A    between atoms: C_13  and  C_8 
REMARK    9  A    between atoms: N_15  and  C_8 
REMARK   10  A    between atoms: C_12  and  C_9 
REMARK   11  A    between atoms: N_16  and  C_9 
REMARK   12  A    between atoms: O_20  and  C_10 
REMARK   13  A    between atoms: C_14  and  C_11 
REMARK   14  A    between atoms: C_11  and  N_18 
REMARK   15  A    between atoms: C_12  and  O_21 
REMARK   16  A    between atoms: O_23  and  C_13 
REMARK   17  A    between atoms: O_25  and  C_14 
ROOT
HETATM    1  C   UNK N   1      35.331  14.192   7.942  0.00  0.00     0.166 C 
ENDROOT
BRANCH   1   2
HETATM    2  C   UNK N   1      35.410  12.777   7.375  0.00  0.00     0.104 C 
BRANCH   2   3
HETATM    3  S   UNK N   1      37.107  12.117   7.471  0.00  0.00    -0.180 SA
HETATM    4  H   UNK N   1      38.176  12.047   6.634  0.00  0.00     0.101 HD
ENDBRANCH   2   3
ENDBRANCH   1   2
BRANCH   1   5
HETATM    5  C   UNK N   1      35.333  15.245   6.845  0.00  0.00     0.136 C 
HETATM    6  N   UNK N   1      34.700  16.370   6.948  0.00  0.00    -0.355 N 
ATOM      7  HN  UNK N   1      34.747  16.996   6.145  1.00  0.00     0.162 HD
BRANCH   6   8
HETATM    8  C   UNK N   1      33.930  16.832   8.092  0.00  0.00     0.210 C 
BRANCH   8   9
HETATM    9  C   UNK N   1      32.616  17.403   7.595  0.00  0.00    -0.060 C 
HETATM   10  C   UNK N   1      31.690  17.898   8.420  0.00  0.00     0.016 C 
HETATM   11  C   UNK N   1      32.321  17.378   6.132  0.00  0.00     0.045 C 
ENDBRANCH   8   9
BRANCH   8  12
HETATM   12  C   UNK N   1      34.776  17.824   8.854  0.00  0.00     0.168 C 
HETATM   13  O   UNK N   1      35.297  17.504   9.910  0.00  0.00    -0.648 OA
BRANCH  12  14
HETATM   14  O   UNK N   1      34.971  19.065   8.364  0.00  0.00    -0.775 OA
HETATM   15  H   UNK N   1      34.787  19.479   7.544  0.00  0.00     0.167 HD
ENDBRANCH  12  14
ENDBRANCH   8  12
ENDBRANCH   6   8
BRANCH   5  16
HETATM   16  O   UNK N   1      35.981  14.981   5.692  0.00  0.00    -0.348 OA
HETATM   17  H   UNK N   1      36.095  14.659   4.819  0.00  0.00     0.219 HD
ENDBRANCH   5  16
ENDBRANCH   1   5
BRANCH   1  18
HETATM   18  N   UNK N   1      36.366  14.418   8.946  0.00  0.00    -0.362 N 
HETATM   19  C   UNK N   1      36.282  14.267  10.233  0.00  0.00     0.111 C 
ATOM     20  HN  UNK N   1      37.269  14.733   8.593  1.00  0.00     0.162 HD
BRANCH  19  21
HETATM   21  C   UNK N   1      35.054  13.745  10.946  0.00  0.00     0.083 C 
BRANCH  21  22
HETATM   22  C   UNK N   1      35.211  12.486  11.809  0.00  0.00     0.010 C 
BRANCH  22  23
HETATM   23  C   UNK N   1      35.085  12.709  13.315  0.00  0.00     0.036 C 
BRANCH  23  24
HETATM   24  C   UNK N   1      36.397  12.726  14.084  0.00  0.00     0.173 C 
BRANCH  24  25
HETATM   25  C   UNK N   1      36.713  14.106  14.579  0.00  0.00     0.163 C 
HETATM   26  O   UNK N   1      36.930  14.301  15.765  0.00  0.00    -0.648 OA
BRANCH  25  27
HETATM   27  O   UNK N   1      36.742  15.140  13.717  0.00  0.00    -0.775 OA
HETATM   28  H   UNK N   1      37.426  15.780  13.758  0.00  0.00     0.167 HD
ENDBRANCH  25  27
ENDBRANCH  24  25
BRANCH  24  29
HETATM   29  N   UNK N   1      37.452  12.289  13.185  0.00  0.00    -0.418 N 
HETATM   30  H   UNK N   1      37.689  11.362  12.832  0.00  0.00     0.150 HD
HETATM   31  H   UNK N   1      38.060  13.037  12.851  0.00  0.00     0.150 HD
ENDBRANCH  24  29
ENDBRANCH  23  24
ENDBRANCH  22  23
ENDBRANCH  21  22
ENDBRANCH  19  21
BRANCH  19  32
HETATM   32  O   UNK N   1      37.370  14.528  10.981  0.00  0.00    -0.350 OA
HETATM   33  H   UNK N   1      38.201  14.939  11.118  0.00  0.00     0.219 HD
ENDBRANCH  19  32
ENDBRANCH   1  18
TORSDOF 17
ENDMDL
MODEL 5
REMARK VINA RESULT:      -5.8      6.570     10.501
REMARK  17 active torsions:
REMARK  status: ('A' for Active; 'I' for Inactive)
REMARK    1  A    between atoms: C_4  and  C_3 
REMARK    2  A    between atoms: C_5  and  C_3 
REMARK    3  A    between atoms: C_8  and  C_4 
REMARK    4  A    between atoms: C_10  and  C_5 
REMARK    5  A    between atoms: C_9  and  C_6 
REMARK    6  A    between atoms: S_26  and  C_6 
REMARK    7  A    between atoms: C_11  and  C_7 
REMARK    8  A    between atoms: C_13  and  C_8 
REMARK    9  A    between atoms: N_15  and  C_8 
REMARK   10  A    between atoms: C_12  and  C_9 
REMARK   11  A    between atoms: N_16  and  C_9 
REMARK   12  A    between atoms: O_20  and  C_10 
REMARK   13  A    between atoms: C_14  and  C_11 
REMARK   14  A    between atoms: C_11  and  N_18 
REMARK   15  A    between atoms: C_12  and  O_21 
REMARK   16  A    between atoms: O_23  and  C_13 
REMARK   17  A    between atoms: O_25  and  C_14 
ROOT
HETATM    1  C   UNK N   1      36.085  14.218  12.603  0.00  0.00     0.166 C 
ENDROOT
BRANCH   1   2
HETATM    2  C   UNK N   1      36.486  14.255  14.076  0.00  0.00     0.104 C 
BRANCH   2   3
HETATM    3  S   UNK N   1      36.816  12.581  14.717  0.00  0.00    -0.180 SA
HETATM    4  H   UNK N   1      36.922  11.335  14.184  0.00  0.00     0.101 HD
ENDBRANCH   2   3
ENDBRANCH   1   2
BRANCH   1   5
HETATM    5  C   UNK N   1      36.810  13.115  11.846  0.00  0.00     0.136 C 
HETATM    6  N   UNK N   1      36.210  12.058  11.400  0.00  0.00    -0.355 N 
ATOM      7  HN  UNK N   1      36.792  11.368  10.926  1.00  0.00     0.162 HD
BRANCH   6   8
HETATM    8  C   UNK N   1      34.792  11.753  11.503  0.00  0.00     0.210 C 
BRANCH   8   9
HETATM    9  C   UNK N   1      34.617  10.554  12.416  0.00  0.00    -0.060 C 
HETATM   10  C   UNK N   1      33.872  10.596  13.523  0.00  0.00     0.016 C 
HETATM   11  C   UNK N   1      35.336   9.286  12.092  0.00  0.00     0.045 C 
ENDBRANCH   8   9
BRANCH   8  12
HETATM   12  C   UNK N   1      34.257  11.540  10.108  0.00  0.00     0.168 C 
HETATM   13  O   UNK N   1      35.024  11.457   9.162  0.00  0.00    -0.648 OA
BRANCH  12  14
HETATM   14  O   UNK N   1      32.929  11.427   9.901  0.00  0.00    -0.775 OA
HETATM   15  H   UNK N   1      32.304  11.911   9.400  0.00  0.00     0.167 HD
ENDBRANCH  12  14
ENDBRANCH   8  12
ENDBRANCH   6   8
BRANCH   5  16
HETATM   16  O   UNK N   1      38.143  13.214  11.672  0.00  0.00    -0.348 OA
HETATM   17  H   UNK N   1      38.946  13.523  11.298  0.00  0.00     0.219 HD
ENDBRANCH   5  16
ENDBRANCH   1   5
BRANCH   1  18
HETATM   18  N   UNK N   1      36.237  15.528  11.980  0.00  0.00    -0.362 N 
HETATM   19  C   UNK N   1      35.598  16.011  10.959  0.00  0.00     0.111 C 
ATOM     20  HN  UNK N   1      36.934  16.143  12.400  1.00  0.00     0.162 HD
BRANCH  19  21
HETATM   21  C   UNK N   1      34.483  15.285  10.238  0.00  0.00     0.083 C 
BRANCH  21  22
HETATM   22  C   UNK N   1      34.672  14.989   8.745  0.00  0.00     0.010 C 
BRANCH  22  23
HETATM   23  C   UNK N   1      33.754  15.768   7.805  0.00  0.00     0.036 C 
BRANCH  23  24
HETATM   24  C   UNK N   1      34.370  17.002   7.166  0.00  0.00     0.173 C 
BRANCH  24  25
HETATM   25  C   UNK N   1      34.061  18.233   7.965  0.00  0.00     0.163 C 
HETATM   26  O   UNK N   1      32.909  18.488   8.283  0.00  0.00    -0.648 OA
BRANCH  25  27
HETATM   27  O   UNK N   1      35.052  19.071   8.323  0.00  0.00    -0.775 OA
HETATM   28  H   UNK N   1      34.865  19.950   8.588  0.00  0.00     0.167 HD
ENDBRANCH  25  27
ENDBRANCH  24  25
BRANCH  24  29
HETATM   29  N   UNK N   1      33.812  17.147   5.833  0.00  0.00    -0.418 N 
HETATM   30  H   UNK N   1      33.666  16.463   5.090  0.00  0.00     0.150 HD
HETATM   31  H   UNK N   1      33.515  18.095   5.599  0.00  0.00     0.150 HD
ENDBRANCH  24  29
ENDBRANCH  23  24
ENDBRANCH  22  23
ENDBRANCH  21  22
ENDBRANCH  19  21
BRANCH  19  32
HETATM   32  O   UNK N   1      35.894  17.257  10.547  0.00  0.00    -0.350 OA
HETATM   33  H   UNK N   1      36.216  18.124  10.698  0.00  0.00     0.219 HD
ENDBRANCH  19  32
ENDBRANCH   1  18
TORSDOF 17
ENDMDL
MODEL 6
REMARK VINA RESULT:      -5.8     11.075     14.601
REMARK  17 active torsions:
REMARK  status: ('A' for Active; 'I' for Inactive)
REMARK    1  A    between atoms: C_4  and  C_3 
REMARK    2  A    between atoms: C_5  and  C_3 
REMARK    3  A    between atoms: C_8  and  C_4 
REMARK    4  A    between atoms: C_10  and  C_5 
REMARK    5  A    between atoms: C_9  and  C_6 
REMARK    6  A    between atoms: S_26  and  C_6 
REMARK    7  A    between atoms: C_11  and  C_7 
REMARK    8  A    between atoms: C_13  and  C_8 
REMARK    9  A    between atoms: N_15  and  C_8 
REMARK   10  A    between atoms: C_12  and  C_9 
REMARK   11  A    between atoms: N_16  and  C_9 
REMARK   12  A    between atoms: O_20  and  C_10 
REMARK   13  A    between atoms: C_14  and  C_11 
REMARK   14  A    between atoms: C_11  and  N_18 
REMARK   15  A    between atoms: C_12  and  O_21 
REMARK   16  A    between atoms: O_23  and  C_13 
REMARK   17  A    between atoms: O_25  and  C_14 
ROOT
HETATM    1  C   UNK N   1      28.397  23.240  -6.330  0.00  0.00     0.166 C 
ENDROOT
BRANCH   1   2
HETATM    2  C   UNK N   1      29.060  23.851  -7.563  0.00  0.00     0.104 C 
BRANCH   2   3
HETATM    3  S   UNK N   1      28.484  23.047  -9.094  0.00  0.00    -0.180 SA
HETATM    4  H   UNK N   1      27.287  22.872  -9.714  0.00  0.00     0.101 HD
ENDBRANCH   2   3
ENDBRANCH   1   2
BRANCH   1   5
HETATM    5  C   UNK N   1      29.303  22.233  -5.640  0.00  0.00     0.136 C 
HETATM    6  N   UNK N   1      29.852  22.455  -4.488  0.00  0.00    -0.355 N 
ATOM      7  HN  UNK N   1      30.462  21.724  -4.123  1.00  0.00     0.162 HD
BRANCH   6   8
HETATM    8  C   UNK N   1      29.690  23.641  -3.661  0.00  0.00     0.210 C 
BRANCH   8   9
HETATM    9  C   UNK N   1      30.886  24.550  -3.873  0.00  0.00    -0.060 C 
HETATM   10  C   UNK N   1      32.039  24.112  -4.386  0.00  0.00     0.016 C 
HETATM   11  C   UNK N   1      30.793  25.981  -3.458  0.00  0.00     0.045 C 
ENDBRANCH   8   9
BRANCH   8  12
HETATM   12  C   UNK N   1      29.512  23.192  -2.232  0.00  0.00     0.168 C 
HETATM   13  O   UNK N   1      30.487  22.994  -1.524  0.00  0.00    -0.648 OA
BRANCH  12  14
HETATM   14  O   UNK N   1      28.275  23.021  -1.724  0.00  0.00    -0.775 OA
HETATM   15  H   UNK N   1      27.535  23.582  -1.606  0.00  0.00     0.167 HD
ENDBRANCH  12  14
ENDBRANCH   8  12
ENDBRANCH   6   8
BRANCH   5  16
HETATM   16  O   UNK N   1      29.589  21.076  -6.270  0.00  0.00    -0.348 OA
HETATM   17  H   UNK N   1      29.481  20.378  -6.887  0.00  0.00     0.219 HD
ENDBRANCH   5  16
ENDBRANCH   1   5
BRANCH   1  18
HETATM   18  N   UNK N   1      27.083  22.695  -6.653  0.00  0.00    -0.362 N 
HETATM   19  C   UNK N   1      25.917  23.176  -6.348  0.00  0.00     0.111 C 
ATOM     20  HN  UNK N   1      27.080  21.825  -7.185  1.00  0.00     0.162 HD
BRANCH  19  21
HETATM   21  C   UNK N   1      25.705  24.486  -5.622  0.00  0.00     0.083 C 
BRANCH  21  22
HETATM   22  C   UNK N   1      25.614  25.763  -6.467  0.00  0.00     0.010 C 
BRANCH  22  23
HETATM   23  C   UNK N   1      25.254  27.032  -5.695  0.00  0.00     0.036 C 
BRANCH  23  24
HETATM   24  C   UNK N   1      26.408  27.699  -4.964  0.00  0.00     0.173 C 
BRANCH  24  25
HETATM   25  C   UNK N   1      25.924  28.430  -3.747  0.00  0.00     0.163 C 
HETATM   26  O   UNK N   1      25.483  27.810  -2.791  0.00  0.00    -0.648 OA
BRANCH  25  27
HETATM   27  O   UNK N   1      25.960  29.775  -3.711  0.00  0.00    -0.775 OA
HETATM   28  H   UNK N   1      25.373  30.286  -4.233  0.00  0.00     0.167 HD
ENDBRANCH  25  27
ENDBRANCH  24  25
BRANCH  24  29
HETATM   29  N   UNK N   1      27.029  28.647  -5.874  0.00  0.00    -0.418 N 
HETATM   30  H   UNK N   1      27.552  29.504  -5.694  0.00  0.00     0.150 HD
HETATM   31  H   UNK N   1      26.922  28.417  -6.862  0.00  0.00     0.150 HD
ENDBRANCH  24  29
ENDBRANCH  23  24
ENDBRANCH  22  23
ENDBRANCH  21  22
ENDBRANCH  19  21
BRANCH  19  32
HETATM   32  O   UNK N   1      24.821  22.507  -6.753  0.00  0.00    -0.350 OA
HETATM   33  H   UNK N   1      24.005  22.079  -6.588  0.00  0.00     0.219 HD
ENDBRANCH  19  32
ENDBRANCH   1  18
TORSDOF 17
ENDMDL
MODEL 7
REMARK VINA RESULT:      -5.7      2.181      7.537
REMARK  17 active torsions:
REMARK  status: ('A' for Active; 'I' for Inactive)
REMARK    1  A    between atoms: C_4  and  C_3 
REMARK    2  A    between atoms: C_5  and  C_3 
REMARK    3  A    between atoms: C_8  and  C_4 
REMARK    4  A    between atoms: C_10  and  C_5 
REMARK    5  A    between atoms: C_9  and  C_6 
REMARK    6  A    between atoms: S_26  and  C_6 
REMARK    7  A    between atoms: C_11  and  C_7 
REMARK    8  A    between atoms: C_13  and  C_8 
REMARK    9  A    between atoms: N_15  and  C_8 
REMARK   10  A    between atoms: C_12  and  C_9 
REMARK   11  A    between atoms: N_16  and  C_9 
REMARK   12  A    between atoms: O_20  and  C_10 
REMARK   13  A    between atoms: C_14  and  C_11 
REMARK   14  A    between atoms: C_11  and  N_18 
REMARK   15  A    between atoms: C_12  and  O_21 
REMARK   16  A    between atoms: O_23  and  C_13 
REMARK   17  A    between atoms: O_25  and  C_14 
ROOT
HETATM    1  C   UNK N   1      29.486  18.209   7.641  0.00  0.00     0.166 C 
ENDROOT
BRANCH   1   2
HETATM    2  C   UNK N   1      29.172  16.809   7.119  0.00  0.00     0.104 C 
BRANCH   2   3
HETATM    3  S   UNK N   1      27.374  16.537   6.990  0.00  0.00    -0.180 SA
HETATM    4  H   UNK N   1      26.432  16.679   6.021  0.00  0.00     0.101 HD
ENDBRANCH   2   3
ENDBRANCH   1   2
BRANCH   1   5
HETATM    5  C   UNK N   1      30.408  18.171   8.850  0.00  0.00     0.136 C 
HETATM    6  N   UNK N   1      31.616  17.706   8.797  0.00  0.00    -0.355 N 
ATOM      7  HN  UNK N   1      32.144  17.704   9.670  1.00  0.00     0.162 HD
BRANCH   6   8
HETATM    8  C   UNK N   1      32.299  17.188   7.622  0.00  0.00     0.210 C 
BRANCH   8   9
HETATM    9  C   UNK N   1      32.515  15.698   7.803  0.00  0.00    -0.060 C 
HETATM   10  C   UNK N   1      32.987  15.172   8.936  0.00  0.00     0.016 C 
HETATM   11  C   UNK N   1      32.231  14.779   6.660  0.00  0.00     0.045 C 
ENDBRANCH   8   9
BRANCH   8  12
HETATM   12  C   UNK N   1      33.577  17.971   7.442  0.00  0.00     0.168 C 
HETATM   13  O   UNK N   1      34.168  17.946   6.373  0.00  0.00    -0.648 OA
BRANCH  12  14
HETATM   14  O   UNK N   1      34.065  18.714   8.456  0.00  0.00    -0.775 OA
HETATM   15  H   UNK N   1      33.748  18.948   9.305  0.00  0.00     0.167 HD
ENDBRANCH  12  14
ENDBRANCH   8  12
ENDBRANCH   6   8
BRANCH   5  16
HETATM   16  O   UNK N   1      29.938  18.592  10.041  0.00  0.00    -0.348 OA
HETATM   17  H   UNK N   1      29.662  18.524  10.934  0.00  0.00     0.219 HD
ENDBRANCH   5  16
ENDBRANCH   1   5
BRANCH   1  18
HETATM   18  N   UNK N   1      28.265  18.970   7.882  0.00  0.00    -0.362 N 
HETATM   19  C   UNK N   1      27.662  19.795   7.083  0.00  0.00     0.111 C 
ATOM     20  HN  UNK N   1      27.830  18.837   8.795  1.00  0.00     0.162 HD
BRANCH  19  21
HETATM   21  C   UNK N   1      28.107  20.078   5.665  0.00  0.00     0.083 C 
BRANCH  21  22
HETATM   22  C   UNK N   1      27.048  20.563   4.667  0.00  0.00     0.010 C 
BRANCH  22  23
HETATM   23  C   UNK N   1      26.567  19.513   3.667  0.00  0.00     0.036 C 
BRANCH  23  24
HETATM   24  C   UNK N   1      25.101  19.124   3.784  0.00  0.00     0.173 C 
BRANCH  24  25
HETATM   25  C   UNK N   1      24.221  20.139   3.117  0.00  0.00     0.163 C 
HETATM   26  O   UNK N   1      23.049  20.248   3.445  0.00  0.00    -0.648 OA
BRANCH  25  27
HETATM   27  O   UNK N   1      24.716  20.923   2.142  0.00  0.00    -0.775 OA
HETATM   28  H   UNK N   1      24.881  20.580   1.286  0.00  0.00     0.167 HD
ENDBRANCH  25  27
ENDBRANCH  24  25
BRANCH  24  29
HETATM   29  N   UNK N   1      24.765  19.055   5.196  0.00  0.00    -0.418 N 
HETATM   30  H   UNK N   1      25.281  18.677   5.990  0.00  0.00     0.150 HD
HETATM   31  H   UNK N   1      23.856  19.452   5.434  0.00  0.00     0.150 HD
ENDBRANCH  24  29
ENDBRANCH  23  24
ENDBRANCH  22  23
ENDBRANCH  21  22
ENDBRANCH  19  21
BRANCH  19  32
HETATM   32  O   UNK N   1      26.533  20.391   7.509  0.00  0.00    -0.350 OA
HETATM   33  H   UNK N   1      25.659  20.701   7.376  0.00  0.00     0.219 HD
ENDBRANCH  19  32
ENDBRANCH   1  18
TORSDOF 17
ENDMDL
MODEL 8
REMARK VINA RESULT:      -5.7      7.090      9.594
REMARK  17 active torsions:
REMARK  status: ('A' for Active; 'I' for Inactive)
REMARK    1  A    between atoms: C_4  and  C_3 
REMARK    2  A    between atoms: C_5  and  C_3 
REMARK    3  A    between atoms: C_8  and  C_4 
REMARK    4  A    between atoms: C_10  and  C_5 
REMARK    5  A    between atoms: C_9  and  C_6 
REMARK    6  A    between atoms: S_26  and  C_6 
REMARK    7  A    between atoms: C_11  and  C_7 
REMARK    8  A    between atoms: C_13  and  C_8 
REMARK    9  A    between atoms: N_15  and  C_8 
REMARK   10  A    between atoms: C_12  and  C_9 
REMARK   11  A    between atoms: N_16  and  C_9 
REMARK   12  A    between atoms: O_20  and  C_10 
REMARK   13  A    between atoms: C_14  and  C_11 
REMARK   14  A    between atoms: C_11  and  N_18 
REMARK   15  A    between atoms: C_12  and  O_21 
REMARK   16  A    between atoms: O_23  and  C_13 
REMARK   17  A    between atoms: O_25  and  C_14 
ROOT
HETATM    1  C   UNK N   1      19.854  15.829   4.251  0.00  0.00     0.166 C 
ENDROOT
BRANCH   1   2
HETATM    2  C   UNK N   1      20.248  14.488   3.634  0.00  0.00     0.104 C 
BRANCH   2   3
HETATM    3  S   UNK N   1      19.556  14.299   1.958  0.00  0.00    -0.180 SA
HETATM    4  H   UNK N   1      19.998  14.507   0.690  0.00  0.00     0.101 HD
ENDBRANCH   2   3
ENDBRANCH   1   2
BRANCH   1   5
HETATM    5  C   UNK N   1      18.914  15.654   5.433  0.00  0.00     0.136 C 
HETATM    6  N   UNK N   1      19.192  16.088   6.622  0.00  0.00    -0.355 N 
ATOM      7  HN  UNK N   1      18.504  15.899   7.350  1.00  0.00     0.162 HD
BRANCH   6   8
HETATM    8  C   UNK N   1      20.385  16.817   7.025  0.00  0.00     0.210 C 
BRANCH   8   9
HETATM    9  C   UNK N   1      21.428  15.821   7.494  0.00  0.00    -0.060 C 
HETATM   10  C   UNK N   1      21.283  15.100   8.609  0.00  0.00     0.016 C 
HETATM   11  C   UNK N   1      22.688  15.664   6.708  0.00  0.00     0.045 C 
ENDBRANCH   8   9
BRANCH   8  12
HETATM   12  C   UNK N   1      19.984  17.821   8.077  0.00  0.00     0.168 C 
HETATM   13  O   UNK N   1      20.498  18.929   8.097  0.00  0.00    -0.648 OA
BRANCH  12  14
HETATM   14  O   UNK N   1      19.047  17.505   8.994  0.00  0.00    -0.775 OA
HETATM   15  H   UNK N   1      18.644  17.968   9.701  0.00  0.00     0.167 HD
ENDBRANCH  12  14
ENDBRANCH   8  12
ENDBRANCH   6   8
BRANCH   5  16
HETATM   16  O   UNK N   1      17.762  14.978   5.255  0.00  0.00    -0.348 OA
HETATM   17  H   UNK N   1      16.956  14.563   5.496  0.00  0.00     0.219 HD
ENDBRANCH   5  16
ENDBRANCH   1   5
BRANCH   1  18
HETATM   18  N   UNK N   1      19.332  16.742   3.240  0.00  0.00    -0.362 N 
HETATM   19  C   UNK N   1      19.652  17.983   3.038  0.00  0.00     0.111 C 
ATOM     20  HN  UNK N   1      18.626  16.357   2.613  1.00  0.00     0.162 HD
BRANCH  19  21
HETATM   21  C   UNK N   1      20.722  18.719   3.814  0.00  0.00     0.083 C 
BRANCH  21  22
HETATM   22  C   UNK N   1      22.181  18.519   3.383  0.00  0.00     0.010 C 
BRANCH  22  23
HETATM   23  C   UNK N   1      23.226  18.861   4.444  0.00  0.00     0.036 C 
BRANCH  23  24
HETATM   24  C   UNK N   1      24.449  19.609   3.936  0.00  0.00     0.173 C 
BRANCH  24  25
HETATM   25  C   UNK N   1      24.075  20.583   2.859  0.00  0.00     0.163 C 
HETATM   26  O   UNK N   1      24.687  20.598   1.802  0.00  0.00    -0.648 OA
BRANCH  25  27
HETATM   27  O   UNK N   1      23.070  21.457   3.060  0.00  0.00    -0.775 OA
HETATM   28  H   UNK N   1      23.086  22.048   3.787  0.00  0.00     0.167 HD
ENDBRANCH  25  27
ENDBRANCH  24  25
BRANCH  24  29
HETATM   29  N   UNK N   1      25.381  18.635   3.395  0.00  0.00    -0.418 N 
HETATM   30  H   UNK N   1      25.245  17.878   2.725  0.00  0.00     0.150 HD
HETATM   31  H   UNK N   1      26.335  18.723   3.746  0.00  0.00     0.150 HD
ENDBRANCH  24  29
ENDBRANCH  23  24
ENDBRANCH  22  23
ENDBRANCH  21  22
ENDBRANCH  19  21
BRANCH  19  32
HETATM   32  O   UNK N   1      19.045  18.647   2.037  0.00  0.00    -0.350 OA
HETATM   33  H   UNK N   1      19.016  18.978   1.161  0.00  0.00     0.219 HD
ENDBRANCH  19  32
ENDBRANCH   1  18
TORSDOF 17
ENDMDL
MODEL 9
REMARK VINA RESULT:      -5.6     11.380     12.808
REMARK  17 active torsions:
REMARK  status: ('A' for Active; 'I' for Inactive)
REMARK    1  A    between atoms: C_4  and  C_3 
REMARK    2  A    between atoms: C_5  and  C_3 
REMARK    3  A    between atoms: C_8  and  C_4 
REMARK    4  A    between atoms: C_10  and  C_5 
REMARK    5  A    between atoms: C_9  and  C_6 
REMARK    6  A    between atoms: S_26  and  C_6 
REMARK    7  A    between atoms: C_11  and  C_7 
REMARK    8  A    between atoms: C_13  and  C_8 
REMARK    9  A    between atoms: N_15  and  C_8 
REMARK   10  A    between atoms: C_12  and  C_9 
REMARK   11  A    between atoms: N_16  and  C_9 
REMARK   12  A    between atoms: O_20  and  C_10 
REMARK   13  A    between atoms: C_14  and  C_11 
REMARK   14  A    between atoms: C_11  and  N_18 
REMARK   15  A    between atoms: C_12  and  O_21 
REMARK   16  A    between atoms: O_23  and  C_13 
REMARK   17  A    between atoms: O_25  and  C_14 
ROOT
HETATM    1  C   UNK N   1      29.869  25.556  -4.418  0.00  0.00     0.166 C 
ENDROOT
BRANCH   1   2
HETATM    2  C   UNK N   1      31.035  25.965  -5.317  0.00  0.00     0.104 C 
BRANCH   2   3
HETATM    3  S   UNK N   1      30.469  26.342  -7.008  0.00  0.00    -0.180 SA
HETATM    4  H   UNK N   1      30.761  27.278  -7.949  0.00  0.00     0.101 HD
ENDBRANCH   2   3
ENDBRANCH   1   2
BRANCH   1   5
HETATM    5  C   UNK N   1      28.963  26.733  -4.095  0.00  0.00     0.136 C 
HETATM    6  N   UNK N   1      27.729  26.797  -4.483  0.00  0.00    -0.355 N 
ATOM      7  HN  UNK N   1      27.214  27.641  -4.234  1.00  0.00     0.162 HD
BRANCH   6   8
HETATM    8  C   UNK N   1      27.001  25.788  -5.238  0.00  0.00     0.210 C 
BRANCH   8   9
HETATM    9  C   UNK N   1      25.971  26.482  -6.110  0.00  0.00    -0.060 C 
HETATM   10  C   UNK N   1      24.918  27.127  -5.602  0.00  0.00     0.016 C 
HETATM   11  C   UNK N   1      26.111  26.413  -7.594  0.00  0.00     0.045 C 
ENDBRANCH   8   9
BRANCH   8  12
HETATM   12  C   UNK N   1      26.407  24.809  -4.256  0.00  0.00     0.168 C 
HETATM   13  O   UNK N   1      25.867  23.789  -4.656  0.00  0.00    -0.648 OA
BRANCH  12  14
HETATM   14  O   UNK N   1      26.481  25.047  -2.931  0.00  0.00    -0.775 OA
HETATM   15  H   UNK N   1      27.178  25.044  -2.306  0.00  0.00     0.167 HD
ENDBRANCH  12  14
ENDBRANCH   8  12
ENDBRANCH   6   8
BRANCH   5  16
HETATM   16  O   UNK N   1      29.473  27.780  -3.417  0.00  0.00    -0.348 OA
HETATM   17  H   UNK N   1      29.471  28.603  -2.968  0.00  0.00     0.219 HD
ENDBRANCH   5  16
ENDBRANCH   1   5
BRANCH   1  18
HETATM   18  N   UNK N   1      30.340  24.858  -3.227  0.00  0.00    -0.362 N 
HETATM   19  C   UNK N   1      30.106  23.632  -2.869  0.00  0.00     0.111 C 
ATOM     20  HN  UNK N   1      30.927  25.401  -2.594  1.00  0.00     0.162 HD
BRANCH  19  21
HETATM   21  C   UNK N   1      29.316  22.644  -3.699  0.00  0.00     0.083 C 
BRANCH  21  22
HETATM   22  C   UNK N   1      30.073  21.839  -4.763  0.00  0.00     0.010 C 
BRANCH  22  23
HETATM   23  C   UNK N   1      31.045  20.794  -4.220  0.00  0.00     0.036 C 
BRANCH  23  24
HETATM   24  C   UNK N   1      32.514  21.059  -4.505  0.00  0.00     0.173 C 
BRANCH  24  25
HETATM   25  C   UNK N   1      33.323  21.016  -3.243  0.00  0.00     0.163 C 
HETATM   26  O   UNK N   1      34.529  20.824  -3.289  0.00  0.00    -0.648 OA
BRANCH  25  27
HETATM   27  O   UNK N   1      32.719  21.174  -2.050  0.00  0.00    -0.775 OA
HETATM   28  H   UNK N   1      32.341  21.996  -1.808  0.00  0.00     0.167 HD
ENDBRANCH  25  27
ENDBRANCH  24  25
BRANCH  24  29
HETATM   29  N   UNK N   1      32.627  22.380  -5.098  0.00  0.00    -0.418 N 
HETATM   30  H   UNK N   1      31.916  23.010  -5.470  0.00  0.00     0.150 HD
HETATM   31  H   UNK N   1      33.580  22.739  -5.155  0.00  0.00     0.150 HD
ENDBRANCH  24  29
ENDBRANCH  23  24
ENDBRANCH  22  23
ENDBRANCH  21  22
ENDBRANCH  19  21
BRANCH  19  32
HETATM   32  O   UNK N   1      30.648  23.184  -1.722  0.00  0.00    -0.350 OA
HETATM   33  H   UNK N   1      31.372  23.067  -1.139  0.00  0.00     0.219 HD
ENDBRANCH  19  32
ENDBRANCH   1  18
TORSDOF 17
ENDMDL
