REMARK  14 active torsions:
REMARK  status: ('A' for Active; 'I' for Inactive)
REMARK    1  A    between atoms: C_11  and  C_5 
REMARK    2  A    between atoms: O_33  and  C_5 
REMARK    3  A    between atoms: C_12  and  C_6 
REMARK    4  A    between atoms: O_38  and  C_6 
REMARK    5  A    between atoms: C_9  and  O_34 
REMARK    6  A    between atoms: C_10  and  O_41 
REMARK    7  A    between atoms: N_20  and  C_13 
REMARK    8  A    between atoms: C_14  and  N_32 
REMARK    9  A    between atoms: C_15  and  N_31 
REMARK   10  A    between atoms: N_22  and  C_17 
REMARK   11  A    between atoms: O_35  and  C_19 
REMARK   12  A    between atoms: P_42  and  O_36 
REMARK   13  A    between atoms: P_42  and  O_38 
REMARK   14  A    between atoms: P_42  and  O_41 
ROOT
HETATM    1  O   UNK N   1       2.213  -2.124   1.333  0.00  0.00    -0.631 OA
HETATM    2  P   UNK N   1       2.545  -2.885   0.018  0.00  0.00     0.393 P 
ENDROOT
BRANCH   2   3
HETATM    3  O   UNK N   1       4.241  -2.639  -0.259  0.00  0.00    -0.307 OA
HETATM    4  H   UNK N   1       4.834  -3.391  -0.414  0.00  0.00     0.222 HD
ENDBRANCH   2   3
BRANCH   2   5
HETATM    5  O   UNK N   1       1.591  -2.294  -1.336  0.00  0.00    -0.294 OA
BRANCH   5   6
HETATM    6  C   UNK N   1       1.149  -0.993  -1.055  0.00  0.00     0.215 C 
BRANCH   6   7
HETATM    7  C   UNK N   1      -0.026  -0.983  -0.061  0.00  0.00     0.177 C 
HETATM    8  C   UNK N   1      -1.345  -0.496  -0.618  0.00  0.00     0.153 C 
HETATM    9  C   UNK N   1      -1.178   0.978  -0.539  0.00  0.00     0.088 C 
HETATM   10  C   UNK N   1      -0.293   1.133   0.696  0.00  0.00     0.233 C 
HETATM   11  O   UNK N   1       0.315  -0.111   0.985  0.00  0.00    -0.356 OA
BRANCH   8  12
HETATM   12  O   UNK N   1      -1.590  -0.938  -1.919  0.00  0.00    -0.393 OA
HETATM   13  H   UNK N   1      -1.941  -0.944  -2.824  0.00  0.00     0.210 HD
ENDBRANCH   8  12
BRANCH  10  14
HETATM   14  N   UNK N   1       0.701   2.167   0.401  0.00  0.00    -0.300 N 
HETATM   15  C   UNK N   1       0.414   3.478   0.185  0.00  0.00     0.188 A 
HETATM   16  N   UNK N   1       1.527   4.184  -0.152  0.00  0.00    -0.346 N 
HETATM   17  C   UNK N   1       2.515   3.271  -0.149  0.00  0.00     0.122 A 
ATOM     18  HN  UNK N   1       1.597   5.180  -0.360  1.00  0.00     0.167 HD
HETATM   19  C   UNK N   1       3.853   3.415  -0.470  0.00  0.00     0.131 A 
HETATM   20  C   UNK N   1       2.024   2.066   0.199  0.00  0.00     0.142 A 
HETATM   21  N   UNK N   1       4.647   2.305  -0.420  0.00  0.00    -0.337 N 
HETATM   22  C   UNK N   1       4.131   1.085  -0.056  0.00  0.00     0.183 A 
ATOM     23  HN  UNK N   1       5.637   2.383  -0.657  1.00  0.00     0.168 HD
HETATM   24  N   UNK N   1       2.804   0.958   0.256  0.00  0.00    -0.336 N 
ATOM     25  HN  UNK N   1       2.413   0.055   0.525  1.00  0.00     0.168 HD
BRANCH  19  26
HETATM   26  N   UNK N   1       4.380   4.661  -0.864  0.00  0.00    -0.383 N 
HETATM   27  H   UNK N   1       5.318   4.777  -1.140  0.00  0.00     0.157 HD
HETATM   28  H   UNK N   1       3.787   5.447  -0.864  0.00  0.00     0.157 HD
ENDBRANCH  19  26
ENDBRANCH  10  14
ENDBRANCH   6   7
ENDBRANCH   5   6
ENDBRANCH   2   5
BRANCH   2  29
HETATM   29  O   UNK N   1       2.243  -4.589   0.297  0.00  0.00    -0.289 OA
BRANCH  29  30
HETATM   30  C   UNK N   1       0.951  -4.804   0.843  0.00  0.00     0.169 C 
HETATM   31  C   UNK N   1       0.860  -6.263   1.175  0.00  0.00     0.089 C 
HETATM   32  C   UNK N   1       0.707  -6.848  -0.231  0.00  0.00     0.234 C 
HETATM   33  O   UNK N   1       0.015  -5.901  -1.022  0.00  0.00    -0.356 OA
HETATM   34  C   UNK N   1      -0.154  -4.761  -0.219  0.00  0.00     0.177 C 
BRANCH  32  35
HETATM   35  N   UNK N   1       0.054  -8.172  -0.210  0.00  0.00    -0.296 N 
HETATM   36  C   UNK N   1       0.719  -9.182   0.424  0.00  0.00     0.101 A 
HETATM   37  C   UNK N   1       0.205 -10.474   0.445  0.00  0.00     0.065 A 
HETATM   38  C   UNK N   1      -1.004 -10.717  -0.192  0.00  0.00     0.102 A 
HETATM   39  N   UNK N   1      -1.659  -9.703  -0.806  0.00  0.00    -0.308 N 
HETATM   40  C   UNK N   1      -1.151  -8.442  -0.825  0.00  0.00     0.227 A 
ATOM     41  HN  UNK N   1      -2.551  -9.889  -1.263  1.00  0.00     0.171 HD
BRANCH  38  42
HETATM   42  N   UNK N   1      -1.496 -11.896  -0.204  0.00  0.00    -0.385 N 
HETATM   43  H   UNK N   1      -2.472 -12.022  -0.213  0.00  0.00     0.157 HD
ATOM     44  HN  UNK N   1      -0.877 -12.707  -0.204  1.00  0.00     0.157 HD
ENDBRANCH  38  42
BRANCH  40  45
HETATM   45  O   UNK N   1      -1.848  -7.480  -1.456  0.00  0.00    -0.332 OA
HETATM   46  H   UNK N   1      -1.510  -6.725  -1.896  0.00  0.00     0.221 HD
ENDBRANCH  40  45
ENDBRANCH  32  35
BRANCH  34  47
HETATM   47  C   UNK N   1      -1.562  -4.807   0.396  0.00  0.00     0.198 C 
BRANCH  47  48
HETATM   48  O   UNK N   1      -1.807  -3.682   1.185  0.00  0.00    -0.398 OA
HETATM   49  H   UNK N   1      -1.216  -3.143   1.733  0.00  0.00     0.209 HD
ENDBRANCH  47  48
ENDBRANCH  34  47
ENDBRANCH  29  30
ENDBRANCH   2  29
TORSDOF 14
