REMARK  6 active torsions:
REMARK  status: ('A' for Active; 'I' for Inactive)
REMARK    1  A    between atoms: C_16  and  C_15 
REMARK    2  A    between atoms: C_23  and  C_17 
REMARK    3  A    between atoms: N_25  and  C_17 
REMARK    4  A    between atoms: C_20  and  C_18 
REMARK    5  A    between atoms: C_20  and  C_19 
REMARK    6  A    between atoms: N_26  and  C_24 
ROOT
HETATM    1  C   UNK N   1       2.885   1.125   0.019  0.00  0.00     0.089 C 
HETATM    2  N   UNK N   1       1.969   0.362  -0.462  0.00  0.00    -0.363 N 
ATOM      3  HN  UNK N   1       1.210   0.806  -0.978  1.00  0.00     0.165 HD
ENDROOT
BRANCH   2   4
HETATM    4  C   UNK N   1       1.933  -1.059  -0.329  0.00  0.00     0.070 A 
HETATM    5  C   UNK N   1       0.700  -1.706  -0.516  0.00  0.00     0.021 A 
HETATM    6  C   UNK N   1      -0.449  -0.987  -0.879  0.00  0.00     0.016 A 
HETATM    7  C   UNK N   1       0.609  -3.094  -0.312  0.00  0.00     0.060 A 
HETATM    8  C   UNK N   1      -1.674  -1.641  -1.028  0.00  0.00     0.001 A 
HETATM    9  C   UNK N   1      -1.760  -3.018  -0.814  0.00  0.00     0.002 A 
HETATM   10  C   UNK N   1      -0.620  -3.746  -0.459  0.00  0.00     0.032 A 
HETATM   11  N   UNK N   1       1.711  -3.794   0.044  0.00  0.00    -0.300 N 
HETATM   12  N   UNK N   1       2.894  -3.194   0.203  0.00  0.00    -0.300 N 
ATOM     13  HN  UNK N   1       1.637  -4.800   0.193  1.00  0.00     0.187 HD
HETATM   14  C   UNK N   1       3.054  -1.854   0.033  0.00  0.00     0.070 A 
ATOM     15  HN  UNK N   1       3.703  -3.759   0.460  1.00  0.00     0.186 HD
BRANCH  14  16
HETATM   16  C   UNK N   1       4.425  -1.290   0.229  0.00  0.00     0.172 C 
BRANCH  16  17
HETATM   17  N   UNK N   1       4.971  -0.857  -1.047  0.00  0.00    -0.425 N 
HETATM   18  H   UNK N   1       5.426  -1.038  -1.942  0.00  0.00     0.150 HD
HETATM   19  H   UNK N   1       4.823   0.152  -1.047  0.00  0.00     0.150 HD
ENDBRANCH  16  17
ENDBRANCH  14  16
ENDBRANCH   2   4
BRANCH   1  20
HETATM   20  C   UNK N   1       2.749   2.601  -0.021  0.00  0.00     0.030 C 
HETATM   21  C   UNK N   1       1.600   3.328   0.040  0.00  0.00    -0.014 C 
BRANCH  21  22
HETATM   22  C   UNK N   1       1.713   4.821  -0.082  0.00  0.00    -0.025 A 
HETATM   23  C   UNK N   1       0.592   5.649   0.112  0.00  0.00     0.012 A 
HETATM   24  C   UNK N   1       0.708   7.039   0.062  0.00  0.00     0.001 A 
HETATM   25  C   UNK N   1       1.951   7.627  -0.173  0.00  0.00     0.000 A 
HETATM   26  C   UNK N   1       3.077   6.822  -0.363  0.00  0.00     0.001 A 
HETATM   27  C   UNK N   1       2.961   5.430  -0.314  0.00  0.00     0.012 A 
ENDBRANCH  21  22
BRANCH  21  28
HETATM   28  C   UNK N   1       0.256   2.698   0.299  0.00  0.00    -0.025 A 
HETATM   29  C   UNK N   1       0.126   1.593   1.158  0.00  0.00     0.012 A 
HETATM   30  C   UNK N   1      -1.127   1.034   1.424  0.00  0.00     0.001 A 
HETATM   31  C   UNK N   1      -2.270   1.569   0.828  0.00  0.00     0.000 A 
HETATM   32  C   UNK N   1      -2.161   2.673  -0.019  0.00  0.00     0.001 A 
HETATM   33  C   UNK N   1      -0.909   3.241  -0.270  0.00  0.00     0.012 A 
ENDBRANCH  21  28
ENDBRANCH   1  20
TORSDOF 6
