REMARK  12 active torsions:
REMARK  status: ('A' for Active; 'I' for Inactive)
REMARK    1  A    between atoms: C_3  and  C_1 
REMARK    2  A    between atoms: O_27  and  C_1 
REMARK    3  A    between atoms: C_5  and  O_20 
REMARK    4  A    between atoms: C_6  and  O_21 
REMARK    5  A    between atoms: O_22  and  C_8 
REMARK    6  A    between atoms: C_9  and  N_19 
REMARK       I    between atoms: N_11  and  C_10 
REMARK    7  A    between atoms: P_30  and  N_13 
REMARK    8  A    between atoms: P_30  and  O_23 
REMARK    9  A    between atoms: P_31  and  O_25 
REMARK   10  A    between atoms: P_31  and  O_27 
REMARK   11  A    between atoms: P_30  and  O_29 
REMARK   12  A    between atoms: P_31  and  O_29 
ROOT
HETATM    1  C   UNK N   1      -1.634  -3.495  -0.240  0.00  0.00     0.180 C 
HETATM    2  C   UNK N   1      -0.262  -4.158  -0.381  0.00  0.00     0.182 C 
HETATM    3  C   UNK N   1       0.683  -3.016  -0.022  0.00  0.00     0.198 C 
HETATM    4  C   UNK N   1      -0.280  -1.907   0.402  0.00  0.00     0.262 C 
HETATM    5  O   UNK N   1      -1.416  -2.115  -0.409  0.00  0.00    -0.353 OA
ENDROOT
BRANCH   4   6
HETATM    6  N   UNK N   1       0.231  -0.541   0.242  0.00  0.00    -0.297 N 
HETATM    7  C   UNK N   1      -0.544   0.575   0.285  0.00  0.00     0.188 A 
HETATM    8  N   UNK N   1       0.198   1.706   0.128  0.00  0.00    -0.346 N 
HETATM    9  C   UNK N   1       1.459   1.262   0.006  0.00  0.00     0.130 A 
ATOM     10  HN  UNK N   1      -0.130   2.672   0.107  1.00  0.00     0.167 HD
HETATM   11  C   UNK N   1       1.484  -0.084   0.072  0.00  0.00     0.157 A 
HETATM   12  C   UNK N   1       2.637   1.974  -0.146  0.00  0.00     0.186 A 
HETATM   13  N   UNK N   1       2.638  -0.790   0.013  0.00  0.00    -0.174 N 
HETATM   14  C   UNK N   1       3.813  -0.101  -0.128  0.00  0.00     0.679 A 
HETATM   15  H   UNK N   1       2.632  -1.773   0.070  0.00  0.00     0.186 HD
HETATM   16  N   UNK N   1       4.920  -0.735  -0.173  0.00  0.00    -0.234 N 
HETATM   17  N   UNK N   1       3.806   1.272  -0.210  0.00  0.00    -0.168 N 
HETATM   18  H   UNK N   1       4.924  -1.719  -0.208  0.00  0.00     0.174 HD
ATOM     19  HN  UNK N   1       5.802  -0.221  -0.173  1.00  0.00     0.174 HD
ATOM     20  HN  UNK N   1       4.687   1.773  -0.320  1.00  0.00     0.186 HD
BRANCH  12  21
HETATM   21  O   UNK N   1       2.636   3.316  -0.216  0.00  0.00    -0.344 OA
HETATM   22  H   UNK N   1       3.446   3.784  -0.265  0.00  0.00     0.219 HD
ENDBRANCH  12  21
ENDBRANCH   4   6
BRANCH   3  23
HETATM   23  O   UNK N   1       1.614  -3.338   0.969  0.00  0.00    -0.388 OA
HETATM   24  H   UNK N   1       1.743  -4.010   1.657  0.00  0.00     0.210 HD
ENDBRANCH   3  23
BRANCH   2  25
HETATM   25  O   UNK N   1      -0.154  -5.264   0.467  0.00  0.00    -0.390 OA
HETATM   26  H   UNK N   1      -0.781  -5.713   1.056  0.00  0.00     0.210 HD
ENDBRANCH   2  25
BRANCH   1  27
HETATM   27  C   UNK N   1      -2.677  -4.029  -1.212  0.00  0.00     0.215 C 
BRANCH  27  28
HETATM   28  O   UNK N   1      -2.822  -5.410  -1.055  0.00  0.00    -0.294 OA
BRANCH  28  29
HETATM   29  P   UNK N   1      -4.125  -5.666   0.076  0.00  0.00     0.401 P 
HETATM   30  O   UNK N   1      -3.549  -5.594   1.519  0.00  0.00    -0.631 OA
BRANCH  29  31
HETATM   31  O   UNK N   1      -5.356  -4.446  -0.047  0.00  0.00    -0.307 OA
HETATM   32  H   UNK N   1      -5.110  -3.511  -0.116  0.00  0.00     0.222 HD
ENDBRANCH  29  31
BRANCH  29  33
HETATM   33  O   UNK N   1      -4.807  -7.256  -0.185  0.00  0.00    -0.201 OA
BRANCH  33  34
HETATM   34  P   UNK N   1      -3.770  -8.413   0.617  0.00  0.00     0.351 P 
HETATM   35  O   UNK N   1      -3.001  -8.259  -0.724  0.00  0.00    -0.637 OA
BRANCH  34  36
HETATM   36  N   UNK N   1      -3.661 -10.113   0.055  0.00  0.00    -0.342 N 
HETATM   37  H   UNK N   1      -4.468 -10.650  -0.264  0.00  0.00     0.161 HD
HETATM   38  H   UNK N   1      -2.747 -10.566   0.055  0.00  0.00     0.161 HD
ENDBRANCH  34  36
BRANCH  34  39
HETATM   39  O   UNK N   1      -5.343  -9.061   0.275  0.00  0.00    -0.312 OA
HETATM   40  H   UNK N   1      -6.096  -8.481   0.084  0.00  0.00     0.221 HD
ENDBRANCH  34  39
ENDBRANCH  33  34
ENDBRANCH  29  33
ENDBRANCH  28  29
ENDBRANCH  27  28
ENDBRANCH   1  27
TORSDOF 12
