MODEL 1
REMARK VINA RESULT:      -4.9      0.000      0.000
REMARK  0 active torsions:
REMARK  status: ('A' for Active; 'I' for Inactive)
ROOT
HETATM    1  C   UNK N   1      22.779  13.159   8.807  0.00  0.00     0.060 A 
HETATM    2  C   UNK N   1      23.993  12.958   9.371  0.00  0.00     0.060 A 
HETATM    3  C   UNK N   1      21.594  12.913   9.488  0.00  0.00     0.039 A 
HETATM    4  C   UNK N   1      24.137  12.490  10.673  0.00  0.00     0.039 A 
HETATM    5  C   UNK N   1      21.685  12.438  10.810  0.00  0.00    -0.054 A 
HETATM    6  C   UNK N   1      22.963  12.224  11.406  0.00  0.00    -0.054 A 
HETATM    7  N   UNK N   1      24.954  13.275   8.494  0.00  0.00    -0.350 N 
ATOM      8  HN  UNK N   1      25.965  13.228   8.628  1.00  0.00     0.166 HD
HETATM    9  C   UNK N   1      24.278  13.674   7.384  0.00  0.00     0.181 A 
HETATM   10  N   UNK N   1      22.931  13.610   7.556  0.00  0.00    -0.350 N 
HETATM   11  C   UNK N   1      23.083  11.721  12.805  0.00  0.00     0.049 C 
HETATM   12  C   UNK N   1      20.426  12.166  11.559  0.00  0.00     0.049 C 
HETATM   13  H   UNK N   1      22.228  13.843   6.907  0.00  0.00     0.166 HD
ENDROOT
TORSDOF 0
ENDMDL
MODEL 2
REMARK VINA RESULT:      -4.9      2.054      3.778
REMARK  0 active torsions:
REMARK  status: ('A' for Active; 'I' for Inactive)
ROOT
HETATM    1  C   UNK N   1      22.467  12.202  10.617  0.00  0.00     0.060 A 
HETATM    2  C   UNK N   1      23.783  12.408  10.863  0.00  0.00     0.060 A 
HETATM    3  C   UNK N   1      21.912  12.375   9.356  0.00  0.00     0.039 A 
HETATM    4  C   UNK N   1      24.670  12.807   9.868  0.00  0.00     0.039 A 
HETATM    5  C   UNK N   1      22.768  12.778   8.314  0.00  0.00    -0.054 A 
HETATM    6  C   UNK N   1      24.154  12.996   8.570  0.00  0.00    -0.054 A 
HETATM    7  N   UNK N   1      24.041  12.169  12.156  0.00  0.00    -0.350 N 
ATOM      8  HN  UNK N   1      24.937  12.239  12.639  1.00  0.00     0.166 HD
HETATM    9  C   UNK N   1      22.837  11.814  12.679  0.00  0.00     0.181 A 
HETATM   10  N   UNK N   1      21.850  11.827  11.744  0.00  0.00    -0.350 N 
HETATM   11  C   UNK N   1      25.080  13.423   7.481  0.00  0.00     0.049 C 
HETATM   12  C   UNK N   1      22.193  12.970   6.952  0.00  0.00     0.049 C 
HETATM   13  H   UNK N   1      20.898  11.611  11.869  0.00  0.00     0.166 HD
ENDROOT
TORSDOF 0
ENDMDL
MODEL 3
REMARK VINA RESULT:      -4.9      2.052      4.317
REMARK  0 active torsions:
REMARK  status: ('A' for Active; 'I' for Inactive)
ROOT
HETATM    1  C   UNK N   1      23.775  12.382  10.838  0.00  0.00     0.060 A 
HETATM    2  C   UNK N   1      22.455  12.199  10.597  0.00  0.00     0.060 A 
HETATM    3  C   UNK N   1      24.666  12.759   9.842  0.00  0.00     0.039 A 
HETATM    4  C   UNK N   1      21.901  12.377   9.333  0.00  0.00     0.039 A 
HETATM    5  C   UNK N   1      24.155  12.952   8.545  0.00  0.00    -0.054 A 
HETATM    6  C   UNK N   1      22.765  12.760   8.288  0.00  0.00    -0.054 A 
HETATM    7  N   UNK N   1      21.837  11.841  11.730  0.00  0.00    -0.350 N 
ATOM      8  HN  UNK N   1      20.846  11.634  11.864  1.00  0.00     0.166 HD
HETATM    9  C   UNK N   1      22.829  11.814  12.660  0.00  0.00     0.181 A 
HETATM   10  N   UNK N   1      24.035  12.146  12.129  0.00  0.00    -0.350 N 
HETATM   11  C   UNK N   1      22.201  12.959   6.922  0.00  0.00     0.049 C 
HETATM   12  C   UNK N   1      25.094  13.357   7.461  0.00  0.00     0.049 C 
HETATM   13  H   UNK N   1      24.903  12.200  12.591  0.00  0.00     0.166 HD
ENDROOT
TORSDOF 0
ENDMDL
MODEL 4
REMARK VINA RESULT:      -4.8     12.287     13.667
REMARK  0 active torsions:
REMARK  status: ('A' for Active; 'I' for Inactive)
ROOT
HETATM    1  C   UNK N   1      34.568  11.969  15.152  0.00  0.00     0.060 A 
HETATM    2  C   UNK N   1      34.736  10.706  15.611  0.00  0.00     0.060 A 
HETATM    3  C   UNK N   1      34.724  13.082  15.967  0.00  0.00     0.039 A 
HETATM    4  C   UNK N   1      35.076  10.437  16.933  0.00  0.00     0.039 A 
HETATM    5  C   UNK N   1      35.068  12.863  17.314  0.00  0.00    -0.054 A 
HETATM    6  C   UNK N   1      35.245  11.535  17.801  0.00  0.00    -0.054 A 
HETATM    7  N   UNK N   1      34.525   9.834  14.616  0.00  0.00    -0.350 N 
ATOM      8  HN  UNK N   1      34.578   8.816  14.654  1.00  0.00     0.166 HD
HETATM    9  C   UNK N   1      34.226  10.615  13.543  0.00  0.00     0.181 A 
HETATM   10  N   UNK N   1      34.247  11.938  13.853  0.00  0.00    -0.350 N 
HETATM   11  C   UNK N   1      35.610  11.279  19.224  0.00  0.00     0.049 C 
HETATM   12  C   UNK N   1      35.240  14.044  18.207  0.00  0.00     0.049 C 
HETATM   13  H   UNK N   1      34.066  12.700  13.256  0.00  0.00     0.166 HD
ENDROOT
TORSDOF 0
ENDMDL
MODEL 5
REMARK VINA RESULT:      -4.8      8.104     10.253
REMARK  0 active torsions:
REMARK  status: ('A' for Active; 'I' for Inactive)
ROOT
HETATM    1  C   UNK N   1      29.847  17.574   7.708  0.00  0.00     0.060 A 
HETATM    2  C   UNK N   1      30.734  17.941   8.664  0.00  0.00     0.060 A 
HETATM    3  C   UNK N   1      30.247  17.148   6.449  0.00  0.00     0.039 A 
HETATM    4  C   UNK N   1      32.108  17.916   8.449  0.00  0.00     0.039 A 
HETATM    5  C   UNK N   1      31.628  17.104   6.181  0.00  0.00    -0.054 A 
HETATM    6  C   UNK N   1      32.564  17.490   7.185  0.00  0.00    -0.054 A 
HETATM    7  N   UNK N   1      30.075  18.305   9.772  0.00  0.00    -0.350 N 
ATOM      8  HN  UNK N   1      30.468  18.629  10.656  1.00  0.00     0.166 HD
HETATM    9  C   UNK N   1      28.763  18.145   9.451  0.00  0.00     0.181 A 
HETATM   10  N   UNK N   1      28.600  17.694   8.180  0.00  0.00    -0.350 N 
HETATM   11  C   UNK N   1      34.032  17.452   6.924  0.00  0.00     0.049 C 
HETATM   12  C   UNK N   1      32.080  16.650   4.835  0.00  0.00     0.049 C 
HETATM   13  H   UNK N   1      27.756  17.499   7.712  0.00  0.00     0.166 HD
ENDROOT
TORSDOF 0
ENDMDL
MODEL 6
REMARK VINA RESULT:      -4.7      8.098     10.440
REMARK  0 active torsions:
REMARK  status: ('A' for Active; 'I' for Inactive)
ROOT
HETATM    1  C   UNK N   1      30.732  17.933   8.661  0.00  0.00     0.060 A 
HETATM    2  C   UNK N   1      29.843  17.561   7.710  0.00  0.00     0.060 A 
HETATM    3  C   UNK N   1      32.104  17.913   8.444  0.00  0.00     0.039 A 
HETATM    4  C   UNK N   1      30.243  17.133   6.448  0.00  0.00     0.039 A 
HETATM    5  C   UNK N   1      32.560  17.487   7.182  0.00  0.00    -0.054 A 
HETATM    6  C   UNK N   1      31.626  17.095   6.179  0.00  0.00    -0.054 A 
HETATM    7  N   UNK N   1      28.597  17.679   8.189  0.00  0.00    -0.350 N 
ATOM      8  HN  UNK N   1      27.720  17.474   7.709  1.00  0.00     0.166 HD
HETATM    9  C   UNK N   1      28.767  18.134   9.459  0.00  0.00     0.181 A 
HETATM   10  N   UNK N   1      30.080  18.297   9.772  0.00  0.00    -0.350 N 
HETATM   11  C   UNK N   1      32.087  16.641   4.835  0.00  0.00     0.049 C 
HETATM   12  C   UNK N   1      34.028  17.457   6.928  0.00  0.00     0.049 C 
HETATM   13  H   UNK N   1      30.462  18.613  10.622  0.00  0.00     0.166 HD
ENDROOT
TORSDOF 0
ENDMDL
MODEL 7
REMARK VINA RESULT:      -4.7      9.953     11.660
REMARK  0 active torsions:
REMARK  status: ('A' for Active; 'I' for Inactive)
ROOT
HETATM    1  C   UNK N   1      33.531  17.353   6.906  0.00  0.00     0.060 A 
HETATM    2  C   UNK N   1      32.381  17.251   7.612  0.00  0.00     0.060 A 
HETATM    3  C   UNK N   1      33.551  17.368   5.518  0.00  0.00     0.039 A 
HETATM    4  C   UNK N   1      31.138  17.153   6.996  0.00  0.00     0.039 A 
HETATM    5  C   UNK N   1      32.318  17.271   4.845  0.00  0.00    -0.054 A 
HETATM    6  C   UNK N   1      31.105  17.163   5.586  0.00  0.00    -0.054 A 
HETATM    7  N   UNK N   1      32.656  17.262   8.924  0.00  0.00    -0.350 N 
ATOM      8  HN  UNK N   1      31.999  17.201   9.702  1.00  0.00     0.166 HD
HETATM    9  C   UNK N   1      34.010  17.375   8.982  0.00  0.00     0.181 A 
HETATM   10  N   UNK N   1      34.571  17.432   7.745  0.00  0.00    -0.350 N 
HETATM   11  C   UNK N   1      29.788  17.060   4.895  0.00  0.00     0.049 C 
HETATM   12  C   UNK N   1      32.316  17.284   3.354  0.00  0.00     0.049 C 
HETATM   13  H   UNK N   1      35.526  17.514   7.519  0.00  0.00     0.166 HD
ENDROOT
TORSDOF 0
ENDMDL
MODEL 8
REMARK VINA RESULT:      -4.7     21.469     22.685
REMARK  0 active torsions:
REMARK  status: ('A' for Active; 'I' for Inactive)
ROOT
HETATM    1  C   UNK N   1      27.337  29.489  -5.118  0.00  0.00     0.060 A 
HETATM    2  C   UNK N   1      26.318  28.780  -4.577  0.00  0.00     0.060 A 
HETATM    3  C   UNK N   1      27.942  29.125  -6.314  0.00  0.00     0.039 A 
HETATM    4  C   UNK N   1      25.807  27.636  -5.182  0.00  0.00     0.039 A 
HETATM    5  C   UNK N   1      27.462  27.974  -6.966  0.00  0.00    -0.054 A 
HETATM    6  C   UNK N   1      26.389  27.225  -6.399  0.00  0.00    -0.054 A 
HETATM    7  N   UNK N   1      25.929  29.355  -3.431  0.00  0.00    -0.350 N 
ATOM      8  HN  UNK N   1      25.187  29.053  -2.799  1.00  0.00     0.166 HD
HETATM    9  C   UNK N   1      26.748  30.433  -3.301  0.00  0.00     0.181 A 
HETATM   10  N   UNK N   1      27.626  30.535  -4.334  0.00  0.00    -0.350 N 
HETATM   11  C   UNK N   1      25.864  26.002  -7.072  0.00  0.00     0.049 C 
HETATM   12  C   UNK N   1      28.097  27.564  -8.250  0.00  0.00     0.049 C 
HETATM   13  H   UNK N   1      28.318  31.222  -4.473  0.00  0.00     0.166 HD
ENDROOT
TORSDOF 0
ENDMDL
MODEL 9
REMARK VINA RESULT:      -4.7     12.128     13.511
REMARK  0 active torsions:
REMARK  status: ('A' for Active; 'I' for Inactive)
ROOT
HETATM    1  C   UNK N   1      35.635  12.615  13.276  0.00  0.00     0.060 A 
HETATM    2  C   UNK N   1      34.705  11.963  14.014  0.00  0.00     0.060 A 
HETATM    3  C   UNK N   1      36.469  13.583  13.820  0.00  0.00     0.039 A 
HETATM    4  C   UNK N   1      34.521  12.218  15.369  0.00  0.00     0.039 A 
HETATM    5  C   UNK N   1      36.323  13.878  15.189  0.00  0.00    -0.054 A 
HETATM    6  C   UNK N   1      35.345  13.193  15.968  0.00  0.00    -0.054 A 
HETATM    7  N   UNK N   1      34.047  11.090  13.239  0.00  0.00    -0.350 N 
ATOM      8  HN  UNK N   1      33.294  10.457  13.508  1.00  0.00     0.166 HD
HETATM    9  C   UNK N   1      34.613  11.239  12.011  0.00  0.00     0.181 A 
HETATM   10  N   UNK N   1      35.596  12.177  12.012  0.00  0.00    -0.350 N 
HETATM   11  C   UNK N   1      35.173  13.490  17.419  0.00  0.00     0.049 C 
HETATM   12  C   UNK N   1      37.208  14.914  15.793  0.00  0.00     0.049 C 
HETATM   13  H   UNK N   1      36.154  12.468  11.254  0.00  0.00     0.166 HD
ENDROOT
TORSDOF 0
ENDMDL
