MODEL 1
REMARK VINA RESULT:      -6.5      0.000      0.000
REMARK  11 active torsions:
REMARK  status: ('A' for Active; 'I' for Inactive)
REMARK    1  A    between atoms: C_5  and  C_1 
REMARK    2  A    between atoms: O_27  and  C_1 
REMARK    3  A    between atoms: C_6  and  C_2 
REMARK    4  A    between atoms: P_29  and  C_2 
REMARK    5  A    between atoms: O_27  and  C_6 
REMARK    6  A    between atoms: C_8  and  O_22 
REMARK    7  A    between atoms: C_9  and  O_23 
REMARK    8  A    between atoms: N_13  and  C_10 
REMARK    9  A    between atoms: C_12  and  N_20 
REMARK   10  A    between atoms: P_29  and  O_24 
REMARK   11  A    between atoms: P_29  and  O_25 
ROOT
HETATM    1  C   UNK N   1      30.251  17.010   7.641  0.00  0.00     0.180 C 
HETATM    2  C   UNK N   1      29.535  17.691   8.828  0.00  0.00     0.182 C 
HETATM    3  C   UNK N   1      28.528  18.571   8.138  0.00  0.00     0.198 C 
HETATM    4  C   UNK N   1      28.307  17.804   6.849  0.00  0.00     0.262 C 
HETATM    5  O   UNK N   1      29.590  17.386   6.451  0.00  0.00    -0.353 OA
ENDROOT
BRANCH   4   6
HETATM    6  N   UNK N   1      27.696  18.637   5.809  0.00  0.00    -0.297 N 
HETATM    7  C   UNK N   1      28.280  19.674   5.148  0.00  0.00     0.188 A 
HETATM    8  N   UNK N   1      27.448  20.197   4.205  0.00  0.00    -0.346 N 
HETATM    9  C   UNK N   1      26.334  19.447   4.294  0.00  0.00     0.122 A 
ATOM     10  HN  UNK N   1      27.628  20.979   3.576  1.00  0.00     0.167 HD
HETATM   11  C   UNK N   1      25.169  19.499   3.548  0.00  0.00     0.131 A 
HETATM   12  C   UNK N   1      26.481  18.521   5.262  0.00  0.00     0.142 A 
HETATM   13  N   UNK N   1      24.188  18.589   3.832  0.00  0.00    -0.337 N 
HETATM   14  C   UNK N   1      24.358  17.655   4.827  0.00  0.00     0.183 A 
ATOM     15  HN  UNK N   1      23.319  18.604   3.298  1.00  0.00     0.168 HD
HETATM   16  N   UNK N   1      25.519  17.612   5.551  0.00  0.00    -0.336 N 
ATOM     17  HN  UNK N   1      25.655  16.917   6.285  1.00  0.00     0.168 HD
BRANCH  11  18
HETATM   18  N   UNK N   1      25.000  20.438   2.513  0.00  0.00    -0.383 N 
HETATM   19  H   UNK N   1      25.358  21.353   2.576  0.00  0.00     0.157 HD
HETATM   20  H   UNK N   1      24.509  20.172   1.700  0.00  0.00     0.157 HD
ENDBRANCH  11  18
ENDBRANCH   4   6
BRANCH   3  21
HETATM   21  O   UNK N   1      27.363  18.736   8.892  0.00  0.00    -0.388 OA
HETATM   22  H   UNK N   1      27.388  19.242   9.719  0.00  0.00     0.210 HD
ENDBRANCH   3  21
BRANCH   2  23
HETATM   23  O   UNK N   1      30.373  18.451   9.654  0.00  0.00    -0.390 OA
HETATM   24  H   UNK N   1      30.423  18.928  10.498  0.00  0.00     0.210 HD
ENDBRANCH   2  23
BRANCH   1  25
HETATM   25  C   UNK N   1      31.723  17.355   7.496  0.00  0.00     0.213 C 
BRANCH  25  26
HETATM   26  O   UNK N   1      32.275  16.753   6.387  0.00  0.00    -0.318 OA
BRANCH  26  27
HETATM   27  C   UNK N   1      33.209  17.383   5.641  0.00  0.00     0.270 C 
HETATM   28  O   UNK N   1      34.199  17.850   6.182  0.00  0.00    -0.265 OA
BRANCH  27  29
HETATM   29  C   UNK N   1      33.036  17.523   4.159  0.00  0.00     0.236 C 
BRANCH  29  30
HETATM   30  P   UNK N   1      31.529  16.576   3.619  0.00  0.00     0.245 P 
HETATM   31  O   UNK N   1      31.902  16.912   2.152  0.00  0.00    -0.653 OA
BRANCH  30  32
HETATM   32  O   UNK N   1      29.869  16.967   3.299  0.00  0.00    -0.329 OA
HETATM   33  H   UNK N   1      29.284  17.281   4.006  0.00  0.00     0.220 HD
ENDBRANCH  30  32
BRANCH  30  34
HETATM   34  O   UNK N   1      31.279  18.208   4.155  0.00  0.00    -0.329 OA
HETATM   35  H   UNK N   1      31.086  18.714   4.959  0.00  0.00     0.220 HD
ENDBRANCH  30  34
ENDBRANCH  29  30
ENDBRANCH  27  29
ENDBRANCH  26  27
ENDBRANCH  25  26
ENDBRANCH   1  25
TORSDOF 11
ENDMDL
MODEL 2
REMARK VINA RESULT:      -6.4      7.564     10.471
REMARK  11 active torsions:
REMARK  status: ('A' for Active; 'I' for Inactive)
REMARK    1  A    between atoms: C_5  and  C_1 
REMARK    2  A    between atoms: O_27  and  C_1 
REMARK    3  A    between atoms: C_6  and  C_2 
REMARK    4  A    between atoms: P_29  and  C_2 
REMARK    5  A    between atoms: O_27  and  C_6 
REMARK    6  A    between atoms: C_8  and  O_22 
REMARK    7  A    between atoms: C_9  and  O_23 
REMARK    8  A    between atoms: N_13  and  C_10 
REMARK    9  A    between atoms: C_12  and  N_20 
REMARK   10  A    between atoms: P_29  and  O_24 
REMARK   11  A    between atoms: P_29  and  O_25 
ROOT
HETATM    1  C   UNK N   1      33.882  14.942   9.615  0.00  0.00     0.180 C 
HETATM    2  C   UNK N   1      34.948  16.055   9.719  0.00  0.00     0.182 C 
HETATM    3  C   UNK N   1      35.607  15.751  11.039  0.00  0.00     0.198 C 
HETATM    4  C   UNK N   1      35.381  14.256  11.138  0.00  0.00     0.262 C 
HETATM    5  O   UNK N   1      34.059  14.058  10.703  0.00  0.00    -0.353 OA
ENDROOT
BRANCH   4   6
HETATM    6  N   UNK N   1      35.546  13.763  12.509  0.00  0.00    -0.297 N 
HETATM    7  C   UNK N   1      36.164  14.407  13.538  0.00  0.00     0.188 A 
HETATM    8  N   UNK N   1      36.092  13.688  14.692  0.00  0.00    -0.346 N 
HETATM    9  C   UNK N   1      35.402  12.583  14.351  0.00  0.00     0.122 A 
ATOM     10  HN  UNK N   1      36.474  13.931  15.606  1.00  0.00     0.167 HD
HETATM   11  C   UNK N   1      34.994  11.517  15.134  0.00  0.00     0.131 A 
HETATM   12  C   UNK N   1      35.087  12.626  13.042  0.00  0.00     0.142 A 
HETATM   13  N   UNK N   1      34.272  10.523  14.533  0.00  0.00    -0.337 N 
HETATM   14  C   UNK N   1      33.964  10.585  13.194  0.00  0.00     0.183 A 
ATOM     15  HN  UNK N   1      33.958   9.726  15.085  1.00  0.00     0.168 HD
HETATM   16  N   UNK N   1      34.369  11.650  12.435  0.00  0.00    -0.336 N 
ATOM     17  HN  UNK N   1      34.138  11.707  11.443  1.00  0.00     0.168 HD
BRANCH  11  18
HETATM   18  N   UNK N   1      35.287  11.461  16.510  0.00  0.00    -0.383 N 
HETATM   19  H   UNK N   1      36.006  10.890  16.867  0.00  0.00     0.157 HD
HETATM   20  H   UNK N   1      34.758  12.009  17.135  0.00  0.00     0.157 HD
ENDBRANCH  11  18
ENDBRANCH   4   6
BRANCH   3  21
HETATM   21  O   UNK N   1      36.957  16.112  11.053  0.00  0.00    -0.388 OA
HETATM   22  H   UNK N   1      37.617  15.537  10.636  0.00  0.00     0.210 HD
ENDBRANCH   3  21
BRANCH   2  23
HETATM   23  O   UNK N   1      34.433  17.357   9.711  0.00  0.00    -0.390 OA
HETATM   24  H   UNK N   1      33.682  17.908   9.984  0.00  0.00     0.210 HD
ENDBRANCH   2  23
BRANCH   1  25
HETATM   25  C   UNK N   1      32.444  15.429   9.627  0.00  0.00     0.213 C 
BRANCH  25  26
HETATM   26  O   UNK N   1      32.038  15.832   8.374  0.00  0.00    -0.318 OA
BRANCH  26  27
HETATM   27  C   UNK N   1      31.443  17.030   8.184  0.00  0.00     0.270 C 
HETATM   28  O   UNK N   1      32.070  18.056   8.395  0.00  0.00    -0.265 OA
BRANCH  27  29
HETATM   29  C   UNK N   1      30.017  17.110   7.727  0.00  0.00     0.236 C 
BRANCH  29  30
HETATM   30  P   UNK N   1      29.041  18.156   8.915  0.00  0.00     0.245 P 
HETATM   31  O   UNK N   1      29.312  17.088  10.005  0.00  0.00    -0.653 OA
BRANCH  30  32
HETATM   32  O   UNK N   1      27.380  18.253   9.404  0.00  0.00    -0.329 OA
HETATM   33  H   UNK N   1      27.067  17.802  10.204  0.00  0.00     0.220 HD
ENDBRANCH  30  32
BRANCH  30  34
HETATM   34  O   UNK N   1      28.136  17.139   7.839  0.00  0.00    -0.329 OA
HETATM   35  H   UNK N   1      28.192  16.737   6.958  0.00  0.00     0.220 HD
ENDBRANCH  30  34
ENDBRANCH  29  30
ENDBRANCH  27  29
ENDBRANCH  26  27
ENDBRANCH  25  26
ENDBRANCH   1  25
TORSDOF 11
ENDMDL
MODEL 3
REMARK VINA RESULT:      -6.3      5.037      7.257
REMARK  11 active torsions:
REMARK  status: ('A' for Active; 'I' for Inactive)
REMARK    1  A    between atoms: C_5  and  C_1 
REMARK    2  A    between atoms: O_27  and  C_1 
REMARK    3  A    between atoms: C_6  and  C_2 
REMARK    4  A    between atoms: P_29  and  C_2 
REMARK    5  A    between atoms: O_27  and  C_6 
REMARK    6  A    between atoms: C_8  and  O_22 
REMARK    7  A    between atoms: C_9  and  O_23 
REMARK    8  A    between atoms: N_13  and  C_10 
REMARK    9  A    between atoms: C_12  and  N_20 
REMARK   10  A    between atoms: P_29  and  O_24 
REMARK   11  A    between atoms: P_29  and  O_25 
ROOT
HETATM    1  C   UNK N   1      34.150  15.539   9.255  0.00  0.00     0.180 C 
HETATM    2  C   UNK N   1      34.970  15.923   8.003  0.00  0.00     0.182 C 
HETATM    3  C   UNK N   1      33.921  16.508   7.095  0.00  0.00     0.198 C 
HETATM    4  C   UNK N   1      32.914  17.019   8.106  0.00  0.00     0.262 C 
HETATM    5  O   UNK N   1      32.828  16.006   9.078  0.00  0.00    -0.353 OA
ENDROOT
BRANCH   4   6
HETATM    6  N   UNK N   1      31.600  17.261   7.502  0.00  0.00    -0.297 N 
HETATM    7  C   UNK N   1      31.255  17.069   6.199  0.00  0.00     0.188 A 
HETATM    8  N   UNK N   1      29.937  17.340   5.987  0.00  0.00    -0.346 N 
HETATM    9  C   UNK N   1      29.473  17.696   7.199  0.00  0.00     0.122 A 
ATOM     10  HN  UNK N   1      29.421  17.286   5.109  1.00  0.00     0.167 HD
HETATM   11  C   UNK N   1      28.190  18.038   7.592  0.00  0.00     0.131 A 
HETATM   12  C   UNK N   1      30.473  17.657   8.102  0.00  0.00     0.142 A 
HETATM   13  N   UNK N   1      27.984  18.334   8.911  0.00  0.00    -0.337 N 
HETATM   14  C   UNK N   1      29.020  18.293   9.815  0.00  0.00     0.183 A 
ATOM     15  HN  UNK N   1      27.049  18.590   9.228  1.00  0.00     0.168 HD
HETATM   16  N   UNK N   1      30.281  17.945   9.412  0.00  0.00    -0.336 N 
ATOM     17  HN  UNK N   1      31.053  17.905  10.078  1.00  0.00     0.168 HD
BRANCH  11  18
HETATM   18  N   UNK N   1      27.122  18.059   6.674  0.00  0.00    -0.383 N 
HETATM   19  H   UNK N   1      27.151  17.556   5.829  0.00  0.00     0.157 HD
HETATM   20  H   UNK N   1      26.322  18.594   6.885  0.00  0.00     0.157 HD
ENDBRANCH  11  18
ENDBRANCH   4   6
BRANCH   3  21
HETATM   21  O   UNK N   1      34.436  17.510   6.267  0.00  0.00    -0.388 OA
HETATM   22  H   UNK N   1      34.989  18.212   6.642  0.00  0.00     0.210 HD
ENDBRANCH   3  21
BRANCH   2  23
HETATM   23  O   UNK N   1      35.620  14.850   7.382  0.00  0.00    -0.390 OA
HETATM   24  H   UNK N   1      36.142  14.588   6.607  0.00  0.00     0.210 HD
ENDBRANCH   2  23
BRANCH   1  25
HETATM   25  C   UNK N   1      34.091  14.051   9.552  0.00  0.00     0.213 C 
BRANCH  25  26
HETATM   26  O   UNK N   1      35.347  13.533   9.779  0.00  0.00    -0.318 OA
BRANCH  26  27
HETATM   27  C   UNK N   1      36.021  13.805  10.918  0.00  0.00     0.270 C 
HETATM   28  O   UNK N   1      37.241  13.840  10.903  0.00  0.00    -0.265 OA
BRANCH  27  29
HETATM   29  C   UNK N   1      35.285  14.053  12.199  0.00  0.00     0.236 C 
BRANCH  29  30
HETATM   30  P   UNK N   1      36.258  13.353  13.621  0.00  0.00     0.245 P 
HETATM   31  O   UNK N   1      34.974  13.445  14.485  0.00  0.00    -0.653 OA
BRANCH  30  32
HETATM   32  O   UNK N   1      37.196  14.010  14.924  0.00  0.00    -0.329 OA
HETATM   33  H   UNK N   1      37.923  14.630  14.754  0.00  0.00     0.220 HD
ENDBRANCH  30  32
BRANCH  30  34
HETATM   34  O   UNK N   1      36.432  15.052  13.313  0.00  0.00    -0.329 OA
HETATM   35  H   UNK N   1      35.913  15.824  13.041  0.00  0.00     0.220 HD
ENDBRANCH  30  34
ENDBRANCH  29  30
ENDBRANCH  27  29
ENDBRANCH  26  27
ENDBRANCH  25  26
ENDBRANCH   1  25
TORSDOF 11
ENDMDL
MODEL 4
REMARK VINA RESULT:      -6.3      3.626      5.705
REMARK  11 active torsions:
REMARK  status: ('A' for Active; 'I' for Inactive)
REMARK    1  A    between atoms: C_5  and  C_1 
REMARK    2  A    between atoms: O_27  and  C_1 
REMARK    3  A    between atoms: C_6  and  C_2 
REMARK    4  A    between atoms: P_29  and  C_2 
REMARK    5  A    between atoms: O_27  and  C_6 
REMARK    6  A    between atoms: C_8  and  O_22 
REMARK    7  A    between atoms: C_9  and  O_23 
REMARK    8  A    between atoms: N_13  and  C_10 
REMARK    9  A    between atoms: C_12  and  N_20 
REMARK   10  A    between atoms: P_29  and  O_24 
REMARK   11  A    between atoms: P_29  and  O_25 
ROOT
HETATM    1  C   UNK N   1      33.289  15.508   4.781  0.00  0.00     0.180 C 
HETATM    2  C   UNK N   1      32.791  14.069   5.043  0.00  0.00     0.182 C 
HETATM    3  C   UNK N   1      31.457  14.302   5.701  0.00  0.00     0.198 C 
HETATM    4  C   UNK N   1      31.073  15.644   5.112  0.00  0.00     0.262 C 
HETATM    5  O   UNK N   1      32.257  16.404   5.137  0.00  0.00    -0.353 OA
ENDROOT
BRANCH   4   6
HETATM    6  N   UNK N   1      30.024  16.309   5.891  0.00  0.00    -0.297 N 
HETATM    7  C   UNK N   1      28.681  16.237   5.676  0.00  0.00     0.188 A 
HETATM    8  N   UNK N   1      27.987  16.933   6.619  0.00  0.00    -0.346 N 
HETATM    9  C   UNK N   1      28.939  17.432   7.430  0.00  0.00     0.122 A 
ATOM     10  HN  UNK N   1      26.977  17.050   6.692  1.00  0.00     0.167 HD
HETATM   11  C   UNK N   1      28.814  18.187   8.582  0.00  0.00     0.131 A 
HETATM   12  C   UNK N   1      30.157  17.065   6.985  0.00  0.00     0.142 A 
HETATM   13  N   UNK N   1      29.959  18.544   9.239  0.00  0.00    -0.337 N 
HETATM   14  C   UNK N   1      31.193  18.163   8.766  0.00  0.00     0.183 A 
ATOM     15  HN  UNK N   1      29.897  19.101  10.091  1.00  0.00     0.168 HD
HETATM   16  N   UNK N   1      31.299  17.409   7.628  0.00  0.00    -0.336 N 
ATOM     17  HN  UNK N   1      32.210  17.116   7.275  1.00  0.00     0.168 HD
BRANCH  11  18
HETATM   18  N   UNK N   1      27.551  18.560   9.083  0.00  0.00    -0.383 N 
HETATM   19  H   UNK N   1      26.840  18.908   8.498  0.00  0.00     0.157 HD
HETATM   20  H   UNK N   1      27.375  18.471  10.049  0.00  0.00     0.157 HD
ENDBRANCH  11  18
ENDBRANCH   4   6
BRANCH   3  21
HETATM   21  O   UNK N   1      30.540  13.287   5.415  0.00  0.00    -0.388 OA
HETATM   22  H   UNK N   1      30.669  12.399   5.783  0.00  0.00     0.210 HD
ENDBRANCH   3  21
BRANCH   2  23
HETATM   23  O   UNK N   1      33.625  13.306   5.869  0.00  0.00    -0.390 OA
HETATM   24  H   UNK N   1      33.793  13.040   6.787  0.00  0.00     0.210 HD
ENDBRANCH   2  23
BRANCH   1  25
HETATM   25  C   UNK N   1      34.543  15.901   5.542  0.00  0.00     0.213 C 
BRANCH  25  26
HETATM   26  O   UNK N   1      34.294  16.924   6.429  0.00  0.00    -0.318 OA
BRANCH  26  27
HETATM   27  C   UNK N   1      34.580  16.796   7.744  0.00  0.00     0.270 C 
HETATM   28  O   UNK N   1      34.543  17.778   8.468  0.00  0.00    -0.265 OA
BRANCH  27  29
HETATM   29  C   UNK N   1      34.952  15.462   8.316  0.00  0.00     0.236 C 
BRANCH  29  30
HETATM   30  P   UNK N   1      34.386  15.365  10.085  0.00  0.00     0.245 P 
HETATM   31  O   UNK N   1      34.765  13.862  10.076  0.00  0.00    -0.653 OA
BRANCH  30  32
HETATM   32  O   UNK N   1      32.894  14.996  10.890  0.00  0.00    -0.329 OA
HETATM   33  H   UNK N   1      32.403  15.680  11.373  0.00  0.00     0.220 HD
ENDBRANCH  30  32
BRANCH  30  34
HETATM   34  O   UNK N   1      33.157  15.284   8.863  0.00  0.00    -0.329 OA
HETATM   35  H   UNK N   1      32.797  15.796   8.122  0.00  0.00     0.220 HD
ENDBRANCH  30  34
ENDBRANCH  29  30
ENDBRANCH  27  29
ENDBRANCH  26  27
ENDBRANCH  25  26
ENDBRANCH   1  25
TORSDOF 11
ENDMDL
MODEL 5
REMARK VINA RESULT:      -6.2      6.149      8.338
REMARK  11 active torsions:
REMARK  status: ('A' for Active; 'I' for Inactive)
REMARK    1  A    between atoms: C_5  and  C_1 
REMARK    2  A    between atoms: O_27  and  C_1 
REMARK    3  A    between atoms: C_6  and  C_2 
REMARK    4  A    between atoms: P_29  and  C_2 
REMARK    5  A    between atoms: O_27  and  C_6 
REMARK    6  A    between atoms: C_8  and  O_22 
REMARK    7  A    between atoms: C_9  and  O_23 
REMARK    8  A    between atoms: N_13  and  C_10 
REMARK    9  A    between atoms: C_12  and  N_20 
REMARK   10  A    between atoms: P_29  and  O_24 
REMARK   11  A    between atoms: P_29  and  O_25 
ROOT
HETATM    1  C   UNK N   1      34.217  15.648  10.668  0.00  0.00     0.180 C 
HETATM    2  C   UNK N   1      35.269  16.777  10.581  0.00  0.00     0.182 C 
HETATM    3  C   UNK N   1      35.069  17.300   9.184  0.00  0.00     0.198 C 
HETATM    4  C   UNK N   1      33.609  16.964   8.953  0.00  0.00     0.262 C 
HETATM    5  O   UNK N   1      33.446  15.671   9.484  0.00  0.00    -0.353 OA
ENDROOT
BRANCH   4   6
HETATM    6  N   UNK N   1      33.257  16.979   7.530  0.00  0.00    -0.297 N 
HETATM    7  C   UNK N   1      34.097  16.762   6.481  0.00  0.00     0.188 A 
HETATM    8  N   UNK N   1      33.431  16.796   5.293  0.00  0.00    -0.346 N 
HETATM    9  C   UNK N   1      32.151  17.031   5.638  0.00  0.00     0.122 A 
ATOM     10  HN  UNK N   1      33.815  16.673   4.357  1.00  0.00     0.167 HD
HETATM   11  C   UNK N   1      31.023  17.126   4.842  0.00  0.00     0.131 A 
HETATM   12  C   UNK N   1      32.052  17.150   6.976  0.00  0.00     0.142 A 
HETATM   13  N   UNK N   1      29.823  17.346   5.461  0.00  0.00    -0.337 N 
HETATM   14  C   UNK N   1      29.744  17.469   6.828  0.00  0.00     0.183 A 
ATOM     15  HN  UNK N   1      28.974  17.420   4.899  1.00  0.00     0.168 HD
HETATM   16  N   UNK N   1      30.869  17.365   7.601  0.00  0.00    -0.336 N 
ATOM     17  HN  UNK N   1      30.818  17.447   8.617  1.00  0.00     0.168 HD
BRANCH  11  18
HETATM   18  N   UNK N   1      31.095  16.977   3.444  0.00  0.00    -0.383 N 
HETATM   19  H   UNK N   1      31.911  17.194   2.938  0.00  0.00     0.157 HD
HETATM   20  H   UNK N   1      30.304  16.647   2.957  0.00  0.00     0.157 HD
ENDBRANCH  11  18
ENDBRANCH   4   6
BRANCH   3  21
HETATM   21  O   UNK N   1      35.346  18.666   9.084  0.00  0.00    -0.388 OA
HETATM   22  H   UNK N   1      35.769  19.130   9.823  0.00  0.00     0.210 HD
ENDBRANCH   3  21
BRANCH   2  23
HETATM   23  O   UNK N   1      36.591  16.356  10.768  0.00  0.00    -0.390 OA
HETATM   24  H   UNK N   1      37.483  16.650  11.011  0.00  0.00     0.210 HD
ENDBRANCH   2  23
BRANCH   1  25
HETATM   25  C   UNK N   1      34.788  14.251  10.835  0.00  0.00     0.213 C 
BRANCH  25  26
HETATM   26  O   UNK N   1      34.573  13.768  12.107  0.00  0.00    -0.318 OA
BRANCH  26  27
HETATM   27  C   UNK N   1      35.566  13.741  13.023  0.00  0.00     0.270 C 
HETATM   28  O   UNK N   1      36.248  14.738  13.203  0.00  0.00    -0.265 OA
BRANCH  27  29
HETATM   29  C   UNK N   1      35.844  12.497  13.811  0.00  0.00     0.236 C 
BRANCH  29  30
HETATM   30  P   UNK N   1      35.983  12.923  15.616  0.00  0.00     0.245 P 
HETATM   31  O   UNK N   1      35.964  11.405  15.928  0.00  0.00    -0.653 OA
BRANCH  30  32
HETATM   32  O   UNK N   1      34.865  13.216  16.909  0.00  0.00    -0.329 OA
HETATM   33  H   UNK N   1      33.949  13.480  16.729  0.00  0.00     0.220 HD
ENDBRANCH  30  32
BRANCH  30  34
HETATM   34  O   UNK N   1      34.402  13.017  14.908  0.00  0.00    -0.329 OA
HETATM   35  H   UNK N   1      33.847  13.614  14.381  0.00  0.00     0.220 HD
ENDBRANCH  30  34
ENDBRANCH  29  30
ENDBRANCH  27  29
ENDBRANCH  26  27
ENDBRANCH  25  26
ENDBRANCH   1  25
TORSDOF 11
ENDMDL
MODEL 6
REMARK VINA RESULT:      -6.2     10.176     12.795
REMARK  11 active torsions:
REMARK  status: ('A' for Active; 'I' for Inactive)
REMARK    1  A    between atoms: C_5  and  C_1 
REMARK    2  A    between atoms: O_27  and  C_1 
REMARK    3  A    between atoms: C_6  and  C_2 
REMARK    4  A    between atoms: P_29  and  C_2 
REMARK    5  A    between atoms: O_27  and  C_6 
REMARK    6  A    between atoms: C_8  and  O_22 
REMARK    7  A    between atoms: C_9  and  O_23 
REMARK    8  A    between atoms: N_13  and  C_10 
REMARK    9  A    between atoms: C_12  and  N_20 
REMARK   10  A    between atoms: P_29  and  O_24 
REMARK   11  A    between atoms: P_29  and  O_25 
ROOT
HETATM    1  C   UNK N   1      35.379  13.781  12.421  0.00  0.00     0.180 C 
HETATM    2  C   UNK N   1      36.576  12.812  12.299  0.00  0.00     0.182 C 
HETATM    3  C   UNK N   1      36.779  12.367  13.722  0.00  0.00     0.198 C 
HETATM    4  C   UNK N   1      35.378  12.522  14.279  0.00  0.00     0.262 C 
HETATM    5  O   UNK N   1      34.911  13.740  13.753  0.00  0.00    -0.353 OA
ENDROOT
BRANCH   4   6
HETATM    6  N   UNK N   1      35.367  12.561  15.744  0.00  0.00    -0.297 N 
HETATM    7  C   UNK N   1      35.296  13.672  16.529  0.00  0.00     0.188 A 
HETATM    8  N   UNK N   1      35.253  13.347  17.851  0.00  0.00    -0.346 N 
HETATM    9  C   UNK N   1      35.288  12.002  17.862  0.00  0.00     0.122 A 
ATOM     10  HN  UNK N   1      35.204  13.980  18.649  1.00  0.00     0.167 HD
HETATM   11  C   UNK N   1      35.229  11.123  18.930  0.00  0.00     0.131 A 
HETATM   12  C   UNK N   1      35.368  11.535  16.601  0.00  0.00     0.142 A 
HETATM   13  N   UNK N   1      35.258   9.784  18.657  0.00  0.00    -0.337 N 
HETATM   14  C   UNK N   1      35.343   9.328  17.362  0.00  0.00     0.183 A 
ATOM     15  HN  UNK N   1      35.216   9.113  19.424  1.00  0.00     0.168 HD
HETATM   16  N   UNK N   1      35.393  10.210  16.316  0.00  0.00    -0.336 N 
ATOM     17  HN  UNK N   1      35.449   9.880  15.353  1.00  0.00     0.168 HD
BRANCH  11  18
HETATM   18  N   UNK N   1      35.119  11.584  20.256  0.00  0.00    -0.383 N 
HETATM   19  H   UNK N   1      34.388  12.178  20.542  0.00  0.00     0.157 HD
HETATM   20  H   UNK N   1      35.793  11.304  20.918  0.00  0.00     0.157 HD
ENDBRANCH  11  18
ENDBRANCH   4   6
BRANCH   3  21
HETATM   21  O   UNK N   1      37.269  11.060  13.805  0.00  0.00    -0.388 OA
HETATM   22  H   UNK N   1      38.198  10.876  13.599  0.00  0.00     0.210 HD
ENDBRANCH   3  21
BRANCH   2  23
HETATM   23  O   UNK N   1      37.744  13.390  11.788  0.00  0.00    -0.390 OA
HETATM   24  H   UNK N   1      38.110  14.185  11.369  0.00  0.00     0.210 HD
ENDBRANCH   2  23
BRANCH   1  25
HETATM   25  C   UNK N   1      35.686  15.226  12.069  0.00  0.00     0.213 C 
BRANCH  25  26
HETATM   26  O   UNK N   1      35.719  15.418  10.706  0.00  0.00    -0.318 OA
BRANCH  26  27
HETATM   27  C   UNK N   1      35.133  16.494  10.136  0.00  0.00     0.270 C 
HETATM   28  O   UNK N   1      35.642  17.596  10.262  0.00  0.00    -0.265 OA
BRANCH  27  29
HETATM   29  C   UNK N   1      33.859  16.347   9.361  0.00  0.00     0.236 C 
BRANCH  29  30
HETATM   30  P   UNK N   1      33.752  17.691   8.080  0.00  0.00     0.245 P 
HETATM   31  O   UNK N   1      32.487  16.992   7.520  0.00  0.00    -0.653 OA
BRANCH  30  32
HETATM   32  O   UNK N   1      34.355  17.918   6.469  0.00  0.00    -0.329 OA
HETATM   33  H   UNK N   1      34.715  17.175   5.961  0.00  0.00     0.220 HD
ENDBRANCH  30  32
BRANCH  30  34
HETATM   34  O   UNK N   1      34.867  16.398   7.769  0.00  0.00    -0.329 OA
HETATM   35  H   UNK N   1      35.453  16.061   7.073  0.00  0.00     0.220 HD
ENDBRANCH  30  34
ENDBRANCH  29  30
ENDBRANCH  27  29
ENDBRANCH  26  27
ENDBRANCH  25  26
ENDBRANCH   1  25
TORSDOF 11
ENDMDL
MODEL 7
REMARK VINA RESULT:      -6.2     10.349     12.992
REMARK  11 active torsions:
REMARK  status: ('A' for Active; 'I' for Inactive)
REMARK    1  A    between atoms: C_5  and  C_1 
REMARK    2  A    between atoms: O_27  and  C_1 
REMARK    3  A    between atoms: C_6  and  C_2 
REMARK    4  A    between atoms: P_29  and  C_2 
REMARK    5  A    between atoms: O_27  and  C_6 
REMARK    6  A    between atoms: C_8  and  O_22 
REMARK    7  A    between atoms: C_9  and  O_23 
REMARK    8  A    between atoms: N_13  and  C_10 
REMARK    9  A    between atoms: C_12  and  N_20 
REMARK   10  A    between atoms: P_29  and  O_24 
REMARK   11  A    between atoms: P_29  and  O_25 
ROOT
HETATM    1  C   UNK N   1      35.337  13.117  12.744  0.00  0.00     0.180 C 
HETATM    2  C   UNK N   1      36.637  12.304  12.551  0.00  0.00     0.182 C 
HETATM    3  C   UNK N   1      36.790  11.617  13.882  0.00  0.00     0.198 C 
HETATM    4  C   UNK N   1      35.347  11.532  14.334  0.00  0.00     0.262 C 
HETATM    5  O   UNK N   1      34.788  12.779  14.001  0.00  0.00    -0.353 OA
ENDROOT
BRANCH   4   6
HETATM    6  N   UNK N   1      35.233  11.290  15.775  0.00  0.00    -0.297 N 
HETATM    7  C   UNK N   1      35.129  10.081  16.393  0.00  0.00     0.188 A 
HETATM    8  N   UNK N   1      35.095  10.214  17.748  0.00  0.00    -0.346 N 
HETATM    9  C   UNK N   1      35.190  11.541  17.953  0.00  0.00     0.122 A 
ATOM     10  HN  UNK N   1      35.015   9.476  18.447  1.00  0.00     0.167 HD
HETATM   11  C   UNK N   1      35.246  12.252  19.139  0.00  0.00     0.131 A 
HETATM   12  C   UNK N   1      35.261  12.183  16.771  0.00  0.00     0.142 A 
HETATM   13  N   UNK N   1      35.371  13.612  19.062  0.00  0.00    -0.337 N 
HETATM   14  C   UNK N   1      35.438  14.248  17.845  0.00  0.00     0.183 A 
ATOM     15  HN  UNK N   1      35.415  14.162  19.920  1.00  0.00     0.168 HD
HETATM   16  N   UNK N   1      35.389  13.529  16.681  0.00  0.00    -0.336 N 
ATOM     17  HN  UNK N   1      35.446  13.993  15.774  1.00  0.00     0.168 HD
BRANCH  11  18
HETATM   18  N   UNK N   1      35.201  11.603  20.388  0.00  0.00    -0.383 N 
HETATM   19  H   UNK N   1      34.535  10.908  20.590  0.00  0.00     0.157 HD
HETATM   20  H   UNK N   1      35.856  11.853  21.081  0.00  0.00     0.157 HD
ENDBRANCH  11  18
ENDBRANCH   4   6
BRANCH   3  21
HETATM   21  O   UNK N   1      37.411  10.370  13.767  0.00  0.00    -0.388 OA
HETATM   22  H   UNK N   1      37.940  10.162  12.981  0.00  0.00     0.210 HD
ENDBRANCH   3  21
BRANCH   2  23
HETATM   23  O   UNK N   1      37.767  13.075  12.257  0.00  0.00    -0.390 OA
HETATM   24  H   UNK N   1      38.649  13.055  11.853  0.00  0.00     0.210 HD
ENDBRANCH   2  23
BRANCH   1  25
HETATM   25  C   UNK N   1      35.510  14.624  12.690  0.00  0.00     0.213 C 
BRANCH  25  26
HETATM   26  O   UNK N   1      34.857  15.169  11.607  0.00  0.00    -0.318 OA
BRANCH  26  27
HETATM   27  C   UNK N   1      35.543  15.710  10.576  0.00  0.00     0.270 C 
HETATM   28  O   UNK N   1      36.539  16.380  10.799  0.00  0.00    -0.265 OA
BRANCH  27  29
HETATM   29  C   UNK N   1      35.086  15.504   9.164  0.00  0.00     0.236 C 
BRANCH  29  30
HETATM   30  P   UNK N   1      33.234  15.335   9.129  0.00  0.00     0.245 P 
HETATM   31  O   UNK N   1      33.286  15.588   7.600  0.00  0.00    -0.653 OA
BRANCH  30  32
HETATM   32  O   UNK N   1      31.888  16.419   9.275  0.00  0.00    -0.329 OA
HETATM   33  H   UNK N   1      31.867  17.259   8.791  0.00  0.00     0.220 HD
ENDBRANCH  30  32
BRANCH  30  34
HETATM   34  O   UNK N   1      33.871  16.871   9.623  0.00  0.00    -0.329 OA
HETATM   35  H   UNK N   1      33.725  17.571  10.279  0.00  0.00     0.220 HD
ENDBRANCH  30  34
ENDBRANCH  29  30
ENDBRANCH  27  29
ENDBRANCH  26  27
ENDBRANCH  25  26
ENDBRANCH   1  25
TORSDOF 11
ENDMDL
MODEL 8
REMARK VINA RESULT:      -6.1     11.434     13.861
REMARK  11 active torsions:
REMARK  status: ('A' for Active; 'I' for Inactive)
REMARK    1  A    between atoms: C_5  and  C_1 
REMARK    2  A    between atoms: O_27  and  C_1 
REMARK    3  A    between atoms: C_6  and  C_2 
REMARK    4  A    between atoms: P_29  and  C_2 
REMARK    5  A    between atoms: O_27  and  C_6 
REMARK    6  A    between atoms: C_8  and  O_22 
REMARK    7  A    between atoms: C_9  and  O_23 
REMARK    8  A    between atoms: N_13  and  C_10 
REMARK    9  A    between atoms: C_12  and  N_20 
REMARK   10  A    between atoms: P_29  and  O_24 
REMARK   11  A    between atoms: P_29  and  O_25 
ROOT
HETATM    1  C   UNK N   1      27.335  25.961  -5.781  0.00  0.00     0.180 C 
HETATM    2  C   UNK N   1      26.187  25.353  -4.946  0.00  0.00     0.182 C 
HETATM    3  C   UNK N   1      26.866  24.206  -4.246  0.00  0.00     0.198 C 
HETATM    4  C   UNK N   1      28.294  24.708  -4.185  0.00  0.00     0.262 C 
HETATM    5  O   UNK N   1      28.530  25.287  -5.445  0.00  0.00    -0.353 OA
ENDROOT
BRANCH   4   6
HETATM    6  N   UNK N   1      29.250  23.624  -3.934  0.00  0.00    -0.297 N 
HETATM    7  C   UNK N   1      29.900  23.366  -2.766  0.00  0.00     0.188 A 
HETATM    8  N   UNK N   1      30.676  22.250  -2.863  0.00  0.00    -0.346 N 
HETATM    9  C   UNK N   1      30.479  21.819  -4.123  0.00  0.00     0.122 A 
ATOM     10  HN  UNK N   1      31.270  21.837  -2.145  1.00  0.00     0.167 HD
HETATM   11  C   UNK N   1      30.983  20.701  -4.765  0.00  0.00     0.131 A 
HETATM   12  C   UNK N   1      29.634  22.649  -4.765  0.00  0.00     0.142 A 
HETATM   13  N   UNK N   1      30.596  20.479  -6.058  0.00  0.00    -0.337 N 
HETATM   14  C   UNK N   1      29.736  21.342  -6.696  0.00  0.00     0.183 A 
ATOM     15  HN  UNK N   1      30.951  19.663  -6.556  1.00  0.00     0.168 HD
HETATM   16  N   UNK N   1      29.240  22.439  -6.044  0.00  0.00    -0.336 N 
ATOM     17  HN  UNK N   1      28.595  23.080  -6.508  1.00  0.00     0.168 HD
BRANCH  11  18
HETATM   18  N   UNK N   1      31.846  19.803  -4.109  0.00  0.00    -0.383 N 
HETATM   19  H   UNK N   1      31.561  19.289  -3.319  0.00  0.00     0.157 HD
HETATM   20  H   UNK N   1      32.763  19.684  -4.451  0.00  0.00     0.157 HD
ENDBRANCH  11  18
ENDBRANCH   4   6
BRANCH   3  21
HETATM   21  O   UNK N   1      26.313  23.949  -2.988  0.00  0.00    -0.388 OA
HETATM   22  H   UNK N   1      26.595  24.467  -2.219  0.00  0.00     0.210 HD
ENDBRANCH   3  21
BRANCH   2  23
HETATM   23  O   UNK N   1      25.096  24.900  -5.698  0.00  0.00    -0.390 OA
HETATM   24  H   UNK N   1      24.680  24.113  -6.083  0.00  0.00     0.210 HD
ENDBRANCH   2  23
BRANCH   1  25
HETATM   25  C   UNK N   1      27.149  25.874  -7.285  0.00  0.00     0.213 C 
BRANCH  25  26
HETATM   26  O   UNK N   1      27.248  24.576  -7.732  0.00  0.00    -0.318 OA
BRANCH  26  27
HETATM   27  C   UNK N   1      26.799  24.221  -8.957  0.00  0.00     0.270 C 
HETATM   28  O   UNK N   1      26.737  25.059  -9.843  0.00  0.00    -0.265 OA
BRANCH  27  29
HETATM   29  C   UNK N   1      26.367  22.813  -9.232  0.00  0.00     0.236 C 
BRANCH  29  30
HETATM   30  P   UNK N   1      25.786  22.021  -7.653  0.00  0.00     0.245 P 
HETATM   31  O   UNK N   1      25.301  20.811  -8.493  0.00  0.00    -0.653 OA
BRANCH  30  32
HETATM   32  O   UNK N   1      24.307  22.001  -6.747  0.00  0.00    -0.329 OA
HETATM   33  H   UNK N   1      23.591  21.385  -6.971  0.00  0.00     0.220 HD
ENDBRANCH  30  32
BRANCH  30  34
HETATM   34  O   UNK N   1      24.740  23.209  -8.365  0.00  0.00    -0.329 OA
HETATM   35  H   UNK N   1      23.993  23.282  -8.978  0.00  0.00     0.220 HD
ENDBRANCH  30  34
ENDBRANCH  29  30
ENDBRANCH  27  29
ENDBRANCH  26  27
ENDBRANCH  25  26
ENDBRANCH   1  25
TORSDOF 11
ENDMDL
MODEL 9
REMARK VINA RESULT:      -6.1      4.118      6.765
REMARK  11 active torsions:
REMARK  status: ('A' for Active; 'I' for Inactive)
REMARK    1  A    between atoms: C_5  and  C_1 
REMARK    2  A    between atoms: O_27  and  C_1 
REMARK    3  A    between atoms: C_6  and  C_2 
REMARK    4  A    between atoms: P_29  and  C_2 
REMARK    5  A    between atoms: O_27  and  C_6 
REMARK    6  A    between atoms: C_8  and  O_22 
REMARK    7  A    between atoms: C_9  and  O_23 
REMARK    8  A    between atoms: N_13  and  C_10 
REMARK    9  A    between atoms: C_12  and  N_20 
REMARK   10  A    between atoms: P_29  and  O_24 
REMARK   11  A    between atoms: P_29  and  O_25 
ROOT
HETATM    1  C   UNK N   1      24.823  19.328   4.182  0.00  0.00     0.180 C 
HETATM    2  C   UNK N   1      24.339  20.535   3.347  0.00  0.00     0.182 C 
HETATM    3  C   UNK N   1      22.998  20.067   2.849  0.00  0.00     0.198 C 
HETATM    4  C   UNK N   1      22.604  19.096   3.943  0.00  0.00     0.262 C 
HETATM    5  O   UNK N   1      23.778  18.379   4.233  0.00  0.00    -0.353 OA
ENDROOT
BRANCH   4   6
HETATM    6  N   UNK N   1      21.541  18.182   3.514  0.00  0.00    -0.297 N 
HETATM    7  C   UNK N   1      20.236  18.498   3.289  0.00  0.00     0.188 A 
HETATM    8  N   UNK N   1      19.530  17.420   2.848  0.00  0.00    -0.346 N 
HETATM    9  C   UNK N   1      20.438  16.428   2.795  0.00  0.00     0.122 A 
ATOM     10  HN  UNK N   1      18.539  17.376   2.611  1.00  0.00     0.167 HD
HETATM   11  C   UNK N   1      20.294  15.117   2.377  0.00  0.00     0.131 A 
HETATM   12  C   UNK N   1      21.638  16.884   3.204  0.00  0.00     0.142 A 
HETATM   13  N   UNK N   1      21.402  14.315   2.400  0.00  0.00    -0.337 N 
HETATM   14  C   UNK N   1      22.616  14.799   2.826  0.00  0.00     0.183 A 
ATOM     15  HN  UNK N   1      21.325  13.343   2.098  1.00  0.00     0.168 HD
HETATM   16  N   UNK N   1      22.744  16.101   3.229  0.00  0.00    -0.336 N 
ATOM     17  HN  UNK N   1      23.643  16.470   3.538  1.00  0.00     0.168 HD
BRANCH  11  18
HETATM   18  N   UNK N   1      19.058  14.622   1.919  0.00  0.00    -0.383 N 
HETATM   19  H   UNK N   1      18.931  13.676   1.680  0.00  0.00     0.157 HD
HETATM   20  H   UNK N   1      18.296  15.242   1.836  0.00  0.00     0.157 HD
ENDBRANCH  11  18
ENDBRANCH   4   6
BRANCH   3  21
HETATM   21  O   UNK N   1      22.094  21.121   2.689  0.00  0.00    -0.388 OA
HETATM   22  H   UNK N   1      21.152  20.936   2.555  0.00  0.00     0.210 HD
ENDBRANCH   3  21
BRANCH   2  23
HETATM   23  O   UNK N   1      25.175  20.874   2.276  0.00  0.00    -0.390 OA
HETATM   24  H   UNK N   1      25.957  20.600   1.771  0.00  0.00     0.210 HD
ENDBRANCH   2  23
BRANCH   1  25
HETATM   25  C   UNK N   1      26.066  18.638   3.650  0.00  0.00     0.213 C 
BRANCH  25  26
HETATM   26  O   UNK N   1      27.188  19.419   3.817  0.00  0.00    -0.318 OA
BRANCH  26  27
HETATM   27  C   UNK N   1      27.712  19.639   5.043  0.00  0.00     0.270 C 
HETATM   28  O   UNK N   1      27.753  20.776   5.488  0.00  0.00    -0.265 OA
BRANCH  27  29
HETATM   29  C   UNK N   1      28.251  18.502   5.857  0.00  0.00     0.236 C 
BRANCH  29  30
HETATM   30  P   UNK N   1      28.179  18.941   7.663  0.00  0.00     0.245 P 
HETATM   31  O   UNK N   1      29.443  18.069   7.878  0.00  0.00    -0.653 OA
BRANCH  30  32
HETATM   32  O   UNK N   1      27.449  18.252   9.077  0.00  0.00    -0.329 OA
HETATM   33  H   UNK N   1      26.817  18.759   9.612  0.00  0.00     0.220 HD
ENDBRANCH  30  32
BRANCH  30  34
HETATM   34  O   UNK N   1      27.130  17.669   7.123  0.00  0.00    -0.329 OA
HETATM   35  H   UNK N   1      26.246  17.531   6.748  0.00  0.00     0.220 HD
ENDBRANCH  30  34
ENDBRANCH  29  30
ENDBRANCH  27  29
ENDBRANCH  26  27
ENDBRANCH  25  26
ENDBRANCH   1  25
TORSDOF 11
ENDMDL
