REMARK  18 active torsions:
REMARK  status: ('A' for Active; 'I' for Inactive)
REMARK    1  A    between atoms: C_4  and  C_1 
REMARK    2  A    between atoms: N_8  and  C_1 
REMARK    3  A    between atoms: C_5  and  C_2 
REMARK    4  A    between atoms: O_19  and  C_2 
REMARK    5  A    between atoms: N_8  and  C_3 
REMARK    6  A    between atoms: P_20  and  C_3 
REMARK    7  A    between atoms: C_6  and  C_4 
REMARK    8  A    between atoms: C_4  and  O_9 
REMARK    9  A    between atoms: C_7  and  C_5 
REMARK   10  A    between atoms: C_5  and  O_10 
REMARK   11  A    between atoms: C_7  and  C_6 
REMARK   12  A    between atoms: C_6  and  O_11 
REMARK   13  A    between atoms: C_7  and  O_12 
REMARK   14  A    between atoms: P_20  and  O_13 
REMARK   15  A    between atoms: P_20  and  O_14 
REMARK   16  A    between atoms: P_21  and  O_16 
REMARK   17  A    between atoms: P_21  and  O_17 
REMARK   18  A    between atoms: P_21  and  O_19 
ROOT
HETATM    1  C   UNK N   1       3.335  -0.768  -0.114  0.00  0.00     0.179 C 
ENDROOT
BRANCH   1   2
HETATM    2  C   UNK N   1       2.398  -0.006   0.850  0.00  0.00     0.166 C 
BRANCH   2   3
HETATM    3  C   UNK N   1       0.981  -0.576   0.842  0.00  0.00     0.148 C 
BRANCH   3   4
HETATM    4  N   UNK N   1       0.267  -0.239  -0.382  0.00  0.00    -0.409 N 
HETATM    5  H   UNK N   1       0.623   0.307  -1.167  0.00  0.00     0.153 HD
BRANCH   4   6
HETATM    6  C   UNK N   1      -1.063  -0.838  -0.261  0.00  0.00     0.239 C 
BRANCH   6   7
HETATM    7  P   UNK N   1      -2.468   0.393   0.066  0.00  0.00     0.253 P 
HETATM    8  O   UNK N   1      -1.536   0.769   1.250  0.00  0.00    -0.652 OA
BRANCH   7   9
HETATM    9  O   UNK N   1      -1.835   0.886  -1.474  0.00  0.00    -0.328 OA
HETATM   10  H   UNK N   1      -1.420   0.718  -2.334  0.00  0.00     0.220 HD
ENDBRANCH   7   9
BRANCH   7  11
HETATM   11  O   UNK N   1      -3.084  -1.222   0.216  0.00  0.00    -0.328 OA
HETATM   12  H   UNK N   1      -4.038  -1.376   0.299  0.00  0.00     0.220 HD
ENDBRANCH   7  11
ENDBRANCH   6   7
ENDBRANCH   4   6
ENDBRANCH   3   4
ENDBRANCH   2   3
BRANCH   2  13
HETATM   13  O   UNK N   1       2.348   1.357   0.544  0.00  0.00    -0.391 OA
HETATM   14  H   UNK N   1       3.150   1.860   0.332  0.00  0.00     0.210 HD
ENDBRANCH   2  13
ENDBRANCH   1   2
BRANCH   1  15
HETATM   15  C   UNK N   1       4.787  -0.220  -0.065  0.00  0.00     0.180 C 
BRANCH  15  16
HETATM   16  C   UNK N   1       5.755  -1.036  -0.951  0.00  0.00     0.173 C 
BRANCH  16  17
HETATM   17  C   UNK N   1       7.139  -0.393  -1.041  0.00  0.00     0.214 C 
BRANCH  17  18
HETATM   18  O   UNK N   1       7.726  -0.241   0.220  0.00  0.00    -0.294 OA
BRANCH  18  19
HETATM   19  P   UNK N   1       8.987   0.930  -0.034  0.00  0.00     0.390 P 
HETATM   20  O   UNK N   1       8.105   1.650   1.021  0.00  0.00    -0.632 OA
BRANCH  19  21
HETATM   21  O   UNK N   1      10.139   1.296   1.212  0.00  0.00    -0.307 OA
HETATM   22  H   UNK N   1      10.638   0.841   1.908  0.00  0.00     0.222 HD
ENDBRANCH  19  21
BRANCH  19  23
HETATM   23  O   UNK N   1       9.641  -0.520   0.663  0.00  0.00    -0.307 OA
HETATM   24  H   UNK N   1       9.123  -1.242   1.052  0.00  0.00     0.222 HD
ENDBRANCH  19  23
ENDBRANCH  18  19
ENDBRANCH  17  18
ENDBRANCH  16  17
BRANCH  16  25
HETATM   25  O   UNK N   1       5.894  -2.338  -0.463  0.00  0.00    -0.391 OA
HETATM   26  H   UNK N   1       5.159  -2.873  -0.124  0.00  0.00     0.210 HD
ENDBRANCH  16  25
ENDBRANCH  15  16
BRANCH  15  27
HETATM   27  O   UNK N   1       4.793   1.109  -0.498  0.00  0.00    -0.390 OA
HETATM   28  H   UNK N   1       5.593   1.566  -0.798  0.00  0.00     0.210 HD
ENDBRANCH  15  27
ENDBRANCH   1  15
BRANCH   1  29
HETATM   29  O   UNK N   1       3.325  -2.120   0.242  0.00  0.00    -0.390 OA
HETATM   30  H   UNK N   1       2.509  -2.583   0.488  0.00  0.00     0.210 HD
ENDBRANCH   1  29
TORSDOF 18
