MODEL 1
REMARK VINA RESULT:      -4.7      0.000      0.000
REMARK  3 active torsions:
REMARK  status: ('A' for Active; 'I' for Inactive)
REMARK    1  A    between atoms: O_1  and  C_2 
REMARK    2  A    between atoms: C_7  and  C_8 
REMARK    3  A    between atoms: C_8  and  C_9 
ROOT
HETATM    1  C   UNK N   1      35.266  13.355  18.511  0.00  0.00     0.072 A 
HETATM    2  C   UNK N   1      35.199  12.632  19.707  0.00  0.00     0.037 A 
HETATM    3  C   UNK N   1      35.258  11.239  19.704  0.00  0.00     0.003 A 
HETATM    4  C   UNK N   1      35.384  10.555  18.499  0.00  0.00     0.001 A 
HETATM    5  C   UNK N   1      35.452  11.264  17.301  0.00  0.00     0.010 A 
HETATM    6  C   UNK N   1      35.396  12.664  17.271  0.00  0.00    -0.022 A 
ENDROOT
BRANCH   6   7
HETATM    7  C   UNK N   1      35.484  13.253  15.874  0.00  0.00     0.067 C 
BRANCH   7   8
HETATM    8  C   UNK N   1      36.609  14.024  15.227  0.00  0.00    -0.032 C 
HETATM    9  C   UNK N   1      37.266  15.051  15.744  0.00  0.00     0.007 C 
ENDBRANCH   7   8
ENDBRANCH   6   7
BRANCH   1  10
HETATM   10  O   UNK N   1      35.204  14.691  18.588  0.00  0.00    -0.360 OA
HETATM   11  H   UNK N   1      34.463  15.102  18.986  0.00  0.00     0.217 HD
ENDBRANCH   1  10
TORSDOF 3
ENDMDL
MODEL 2
REMARK VINA RESULT:      -4.7     26.781     28.890
REMARK  3 active torsions:
REMARK  status: ('A' for Active; 'I' for Inactive)
REMARK    1  A    between atoms: O_1  and  C_2 
REMARK    2  A    between atoms: C_7  and  C_8 
REMARK    3  A    between atoms: C_8  and  C_9 
ROOT
HETATM    1  C   UNK N   1      26.101  28.458  -4.408  0.00  0.00     0.072 A 
HETATM    2  C   UNK N   1      26.971  29.554  -4.445  0.00  0.00     0.037 A 
HETATM    3  C   UNK N   1      27.817  29.757  -5.534  0.00  0.00     0.003 A 
HETATM    4  C   UNK N   1      27.802  28.862  -6.599  0.00  0.00     0.001 A 
HETATM    5  C   UNK N   1      26.941  27.766  -6.574  0.00  0.00     0.010 A 
HETATM    6  C   UNK N   1      26.078  27.535  -5.494  0.00  0.00    -0.022 A 
ENDROOT
BRANCH   6   7
HETATM    7  C   UNK N   1      25.218  26.292  -5.651  0.00  0.00     0.067 C 
BRANCH   7   8
HETATM    8  C   UNK N   1      25.523  24.861  -5.280  0.00  0.00    -0.032 C 
HETATM    9  C   UNK N   1      26.220  24.445  -4.233  0.00  0.00     0.007 C 
ENDBRANCH   7   8
ENDBRANCH   6   7
BRANCH   1  10
HETATM   10  O   UNK N   1      25.316  28.323  -3.333  0.00  0.00    -0.360 OA
HETATM   11  H   UNK N   1      24.437  28.645  -3.352  0.00  0.00     0.217 HD
ENDBRANCH   1  10
TORSDOF 3
ENDMDL
MODEL 3
REMARK VINA RESULT:      -4.6     14.601     15.472
REMARK  3 active torsions:
REMARK  status: ('A' for Active; 'I' for Inactive)
REMARK    1  A    between atoms: O_1  and  C_2 
REMARK    2  A    between atoms: C_7  and  C_8 
REMARK    3  A    between atoms: C_8  and  C_9 
ROOT
HETATM    1  C   UNK N   1      22.129  12.218  11.177  0.00  0.00     0.072 A 
HETATM    2  C   UNK N   1      23.306  11.793  11.803  0.00  0.00     0.037 A 
HETATM    3  C   UNK N   1      24.551  12.061  11.237  0.00  0.00     0.003 A 
HETATM    4  C   UNK N   1      24.630  12.759  10.036  0.00  0.00     0.001 A 
HETATM    5  C   UNK N   1      23.465  13.187   9.403  0.00  0.00     0.010 A 
HETATM    6  C   UNK N   1      22.198  12.934   9.947  0.00  0.00    -0.022 A 
ENDROOT
BRANCH   6   7
HETATM    7  C   UNK N   1      21.051  13.479   9.112  0.00  0.00     0.067 C 
BRANCH   7   8
HETATM    8  C   UNK N   1      20.251  14.746   9.293  0.00  0.00    -0.032 C 
HETATM    9  C   UNK N   1      20.502  15.926   8.747  0.00  0.00     0.007 C 
ENDBRANCH   7   8
ENDBRANCH   6   7
BRANCH   1  10
HETATM   10  O   UNK N   1      20.967  11.927  11.776  0.00  0.00    -0.360 OA
HETATM   11  H   UNK N   1      20.229  12.493  11.665  0.00  0.00     0.217 HD
ENDBRANCH   1  10
TORSDOF 3
ENDMDL
MODEL 4
REMARK VINA RESULT:      -4.5     25.149     27.212
REMARK  3 active torsions:
REMARK  status: ('A' for Active; 'I' for Inactive)
REMARK    1  A    between atoms: O_1  and  C_2 
REMARK    2  A    between atoms: C_7  and  C_8 
REMARK    3  A    between atoms: C_8  and  C_9 
ROOT
HETATM    1  C   UNK N   1      25.561  25.495  -5.333  0.00  0.00     0.072 A 
HETATM    2  C   UNK N   1      25.004  26.724  -5.705  0.00  0.00     0.037 A 
HETATM    3  C   UNK N   1      25.148  27.847  -4.892  0.00  0.00     0.003 A 
HETATM    4  C   UNK N   1      25.853  27.751  -3.697  0.00  0.00     0.001 A 
HETATM    5  C   UNK N   1      26.413  26.532  -3.316  0.00  0.00     0.010 A 
HETATM    6  C   UNK N   1      26.285  25.385  -4.110  0.00  0.00    -0.022 A 
ENDROOT
BRANCH   6   7
HETATM    7  C   UNK N   1      26.962  24.156  -3.527  0.00  0.00     0.067 C 
BRANCH   7   8
HETATM    8  C   UNK N   1      28.431  23.872  -3.331  0.00  0.00    -0.032 C 
HETATM    9  C   UNK N   1      28.977  23.162  -2.356  0.00  0.00     0.007 C 
ENDBRANCH   7   8
ENDBRANCH   6   7
BRANCH   1  10
HETATM   10  O   UNK N   1      25.385  24.457  -6.160  0.00  0.00    -0.360 OA
HETATM   11  H   UNK N   1      25.360  23.585  -5.819  0.00  0.00     0.217 HD
ENDBRANCH   1  10
TORSDOF 3
ENDMDL
MODEL 5
REMARK VINA RESULT:      -4.5     13.524     14.372
REMARK  3 active torsions:
REMARK  status: ('A' for Active; 'I' for Inactive)
REMARK    1  A    between atoms: O_1  and  C_2 
REMARK    2  A    between atoms: C_7  and  C_8 
REMARK    3  A    between atoms: C_8  and  C_9 
ROOT
HETATM    1  C   UNK N   1      23.970  12.243  11.117  0.00  0.00     0.072 A 
HETATM    2  C   UNK N   1      22.788  11.883  11.775  0.00  0.00     0.037 A 
HETATM    3  C   UNK N   1      21.545  12.223  11.245  0.00  0.00     0.003 A 
HETATM    4  C   UNK N   1      21.472  12.929  10.049  0.00  0.00     0.001 A 
HETATM    5  C   UNK N   1      22.642  13.294   9.384  0.00  0.00     0.010 A 
HETATM    6  C   UNK N   1      23.907  12.967   9.891  0.00  0.00    -0.022 A 
ENDROOT
BRANCH   6   7
HETATM    7  C   UNK N   1      25.058  13.450   9.026  0.00  0.00     0.067 C 
BRANCH   7   8
HETATM    8  C   UNK N   1      25.067  13.837   7.567  0.00  0.00    -0.032 C 
HETATM    9  C   UNK N   1      25.627  14.912   7.036  0.00  0.00     0.007 C 
ENDBRANCH   7   8
ENDBRANCH   6   7
BRANCH   1  10
HETATM   10  O   UNK N   1      25.130  11.884  11.682  0.00  0.00    -0.360 OA
HETATM   11  H   UNK N   1      25.669  11.236  11.273  0.00  0.00     0.217 HD
ENDBRANCH   1  10
TORSDOF 3
ENDMDL
MODEL 6
REMARK VINA RESULT:      -4.5      1.682      3.697
REMARK  3 active torsions:
REMARK  status: ('A' for Active; 'I' for Inactive)
REMARK    1  A    between atoms: O_1  and  C_2 
REMARK    2  A    between atoms: C_7  and  C_8 
REMARK    3  A    between atoms: C_8  and  C_9 
ROOT
HETATM    1  C   UNK N   1      35.749  14.283  17.795  0.00  0.00     0.072 A 
HETATM    2  C   UNK N   1      36.539  15.431  17.658  0.00  0.00     0.037 A 
HETATM    3  C   UNK N   1      37.237  15.680  16.477  0.00  0.00     0.003 A 
HETATM    4  C   UNK N   1      37.151  14.780  15.420  0.00  0.00     0.001 A 
HETATM    5  C   UNK N   1      36.368  13.634  15.544  0.00  0.00     0.010 A 
HETATM    6  C   UNK N   1      35.655  13.355  16.717  0.00  0.00    -0.022 A 
ENDROOT
BRANCH   6   7
HETATM    7  C   UNK N   1      34.861  12.061  16.661  0.00  0.00     0.067 C 
BRANCH   7   8
HETATM    8  C   UNK N   1      34.744  11.055  15.542  0.00  0.00    -0.032 C 
HETATM    9  C   UNK N   1      33.707  10.882  14.737  0.00  0.00     0.007 C 
ENDBRANCH   7   8
ENDBRANCH   6   7
BRANCH   1  10
HETATM   10  O   UNK N   1      35.106  14.106  18.956  0.00  0.00    -0.360 OA
HETATM   11  H   UNK N   1      34.700  13.284  19.145  0.00  0.00     0.217 HD
ENDBRANCH   1  10
TORSDOF 3
ENDMDL
MODEL 7
REMARK VINA RESULT:      -4.5      1.513      4.219
REMARK  3 active torsions:
REMARK  status: ('A' for Active; 'I' for Inactive)
REMARK    1  A    between atoms: O_1  and  C_2 
REMARK    2  A    between atoms: C_7  and  C_8 
REMARK    3  A    between atoms: C_8  and  C_9 
ROOT
HETATM    1  C   UNK N   1      35.147  12.882  19.147  0.00  0.00     0.072 A 
HETATM    2  C   UNK N   1      35.234  13.858  18.148  0.00  0.00     0.037 A 
HETATM    3  C   UNK N   1      35.483  13.503  16.823  0.00  0.00     0.003 A 
HETATM    4  C   UNK N   1      35.649  12.164  16.485  0.00  0.00     0.001 A 
HETATM    5  C   UNK N   1      35.565  11.183  17.471  0.00  0.00     0.010 A 
HETATM    6  C   UNK N   1      35.315  11.507  18.811  0.00  0.00    -0.022 A 
ENDROOT
BRANCH   6   7
HETATM    7  C   UNK N   1      35.260  10.302  19.735  0.00  0.00     0.067 C 
BRANCH   7   8
HETATM    8  C   UNK N   1      34.074   9.467  20.152  0.00  0.00    -0.032 C 
HETATM    9  C   UNK N   1      33.336   8.694  19.371  0.00  0.00     0.007 C 
ENDBRANCH   7   8
ENDBRANCH   6   7
BRANCH   1  10
HETATM   10  O   UNK N   1      34.905  13.293  20.399  0.00  0.00    -0.360 OA
HETATM   11  H   UNK N   1      35.444  13.953  20.787  0.00  0.00     0.217 HD
ENDBRANCH   1  10
TORSDOF 3
ENDMDL
MODEL 8
REMARK VINA RESULT:      -4.4      1.675      2.507
REMARK  3 active torsions:
REMARK  status: ('A' for Active; 'I' for Inactive)
REMARK    1  A    between atoms: O_1  and  C_2 
REMARK    2  A    between atoms: C_7  and  C_8 
REMARK    3  A    between atoms: C_8  and  C_9 
ROOT
HETATM    1  C   UNK N   1      34.871  12.459  16.154  0.00  0.00     0.072 A 
HETATM    2  C   UNK N   1      34.751  11.087  15.906  0.00  0.00     0.037 A 
HETATM    3  C   UNK N   1      34.932  10.159  16.930  0.00  0.00     0.003 A 
HETATM    4  C   UNK N   1      35.235  10.596  18.215  0.00  0.00     0.001 A 
HETATM    5  C   UNK N   1      35.356  11.960  18.475  0.00  0.00     0.010 A 
HETATM    6  C   UNK N   1      35.180  12.918  17.467  0.00  0.00    -0.022 A 
ENDROOT
BRANCH   6   7
HETATM    7  C   UNK N   1      35.352  14.350  17.944  0.00  0.00     0.067 C 
BRANCH   7   8
HETATM    8  C   UNK N   1      36.469  15.326  17.666  0.00  0.00    -0.032 C 
HETATM    9  C   UNK N   1      37.194  15.408  16.560  0.00  0.00     0.007 C 
ENDBRANCH   7   8
ENDBRANCH   6   7
BRANCH   1  10
HETATM   10  O   UNK N   1      34.684  13.295  15.124  0.00  0.00    -0.360 OA
HETATM   11  H   UNK N   1      35.014  14.171  15.167  0.00  0.00     0.217 HD
ENDBRANCH   1  10
TORSDOF 3
ENDMDL
MODEL 9
REMARK VINA RESULT:      -4.4      2.446      3.446
REMARK  3 active torsions:
REMARK  status: ('A' for Active; 'I' for Inactive)
REMARK    1  A    between atoms: O_1  and  C_2 
REMARK    2  A    between atoms: C_7  and  C_8 
REMARK    3  A    between atoms: C_8  and  C_9 
ROOT
HETATM    1  C   UNK N   1      35.184  10.863  18.293  0.00  0.00     0.072 A 
HETATM    2  C   UNK N   1      35.355  11.786  19.331  0.00  0.00     0.037 A 
HETATM    3  C   UNK N   1      35.312  13.157  19.082  0.00  0.00     0.003 A 
HETATM    4  C   UNK N   1      35.096  13.618  17.787  0.00  0.00     0.001 A 
HETATM    5  C   UNK N   1      34.924  12.709  16.745  0.00  0.00     0.010 A 
HETATM    6  C   UNK N   1      34.962  11.325  16.963  0.00  0.00    -0.022 A 
ENDROOT
BRANCH   6   7
HETATM    7  C   UNK N   1      34.754  10.499  15.705  0.00  0.00     0.067 C 
BRANCH   7   8
HETATM    8  C   UNK N   1      33.723  10.654  14.614  0.00  0.00    -0.032 C 
HETATM    9  C   UNK N   1      33.905  10.453  13.318  0.00  0.00     0.007 C 
ENDBRANCH   7   8
ENDBRANCH   6   7
BRANCH   1  10
HETATM   10  O   UNK N   1      35.238   9.562  18.603  0.00  0.00    -0.360 OA
HETATM   11  H   UNK N   1      36.064   9.121  18.633  0.00  0.00     0.217 HD
ENDBRANCH   1  10
TORSDOF 3
ENDMDL
