MODEL 1
REMARK VINA RESULT:      -7.6      0.000      0.000
REMARK  11 active torsions:
REMARK  status: ('A' for Active; 'I' for Inactive)
REMARK    1  A    between atoms: C_20  and  C_7 
REMARK    2  A    between atoms: C_21  and  C_8 
REMARK    3  A    between atoms: C_11  and  C_9 
REMARK    4  A    between atoms: C_22  and  C_9 
REMARK    5  A    between atoms: C_12  and  C_10 
REMARK    6  A    between atoms: C_23  and  C_10 
REMARK    7  A    between atoms: C_30  and  C_11 
REMARK    8  A    between atoms: C_31  and  C_12 
REMARK    9  A    between atoms: O_39  and  C_30 
REMARK   10  A    between atoms: O_41  and  C_31 
REMARK   11  A    between atoms: O_43  and  C_34 
ROOT
HETATM    1  C   UNK N   1      25.989  14.383   1.889  0.00  0.00     0.017 A 
HETATM    2  C   UNK N   1      31.523  13.832   5.613  0.00  0.00     0.051 C 
HETATM    3  C   UNK N   1      20.726  16.379   2.905  0.00  0.00     0.052 C 
HETATM    4  C   UNK N   1      24.449  20.322   3.972  0.00  0.00     0.051 C 
HETATM    5  C   UNK N   1      28.803  12.927   4.622  0.00  0.00     0.057 C 
HETATM    6  C   UNK N   1      24.165  12.647   2.428  0.00  0.00     0.028 C 
HETATM    7  C   UNK N   1      28.574  17.614   4.575  0.00  0.00     0.064 C 
HETATM    8  C   UNK N   1      25.677  13.283   3.265  0.00  0.00     0.040 A 
HETATM    9  C   UNK N   1      30.358  14.681   5.217  0.00  0.00    -0.025 A 
HETATM   10  C   UNK N   1      21.985  15.577   2.997  0.00  0.00    -0.018 A 
HETATM   11  C   UNK N   1      25.370  19.147   4.016  0.00  0.00    -0.022 A 
HETATM   12  C   UNK N   1      26.404  13.095   4.532  0.00  0.00    -0.030 A 
HETATM   13  C   UNK N   1      22.115  14.227   2.629  0.00  0.00    -0.000 A 
HETATM   14  C   UNK N   1      30.286  16.063   5.192  0.00  0.00    -0.021 A 
HETATM   15  C   UNK N   1      26.720  19.223   4.233  0.00  0.00    -0.021 A 
HETATM   16  C   UNK N   1      25.817  12.433   2.583  0.00  0.00     0.114 C 
HETATM   17  C   UNK N   1      29.134  14.223   4.771  0.00  0.00     0.065 A 
HETATM   18  C   UNK N   1      27.477  12.596   4.106  0.00  0.00     0.035 C 
HETATM   19  C   UNK N   1      23.441  13.917   2.792  0.00  0.00     0.066 A 
HETATM   20  C   UNK N   1      29.019  16.381   4.739  0.00  0.00     0.066 A 
HETATM   21  C   UNK N   1      27.199  17.938   4.218  0.00  0.00     0.066 A 
HETATM   22  C   UNK N   1      23.266  16.054   3.357  0.00  0.00     0.099 A 
HETATM   23  C   UNK N   1      25.056  17.796   3.854  0.00  0.00     0.099 A 
HETATM   24  C   UNK N   1      23.623  17.327   3.623  0.00  0.00     0.124 A 
HETATM   25  N   UNK N   1      27.179  12.610   2.863  0.00  0.00    -0.201 NA
HETATM   26  N   UNK N   1      28.303  15.272   4.489  0.00  0.00    -0.248 N 
HETATM   27  N   UNK N   1      24.137  15.054   3.318  0.00  0.00    -0.245 N 
HETATM   28  N   UNK N   1      26.216  17.051   3.937  0.00  0.00    -0.245 N 
HETATM   29 Zn   UNK N   1      26.471  15.124   3.765  0.00  0.00     0.000 Zn
ENDROOT
BRANCH  14  30
HETATM   30  C   UNK N   1      31.317  17.090   5.565  0.00  0.00     0.052 C 
BRANCH  30  31
HETATM   31  C   UNK N   1      32.467  17.227   4.592  0.00  0.00     0.115 C 
BRANCH  31  32
HETATM   32  C   UNK N   1      33.735  16.956   5.324  0.00  0.00     0.139 C 
HETATM   33  O   UNK N   1      34.336  15.914   5.128  0.00  0.00    -0.650 OA
BRANCH  32  34
HETATM   34  O   UNK N   1      34.231  17.867   6.184  0.00  0.00    -0.776 OA
HETATM   35  H   UNK N   1      33.883  18.053   7.034  0.00  0.00     0.167 HD
ENDBRANCH  32  34
ENDBRANCH  31  32
ENDBRANCH  30  31
ENDBRANCH  14  30
BRANCH  15  36
HETATM   36  C   UNK N   1      27.543  20.454   4.450  0.00  0.00     0.052 C 
BRANCH  36  37
HETATM   37  C   UNK N   1      27.053  21.278   5.628  0.00  0.00     0.115 C 
BRANCH  37  38
HETATM   38  C   UNK N   1      27.143  20.513   6.918  0.00  0.00     0.139 C 
HETATM   39  O   UNK N   1      28.095  19.782   7.152  0.00  0.00    -0.650 OA
BRANCH  38  40
HETATM   40  O   UNK N   1      26.157  20.627   7.824  0.00  0.00    -0.776 OA
HETATM   41  H   UNK N   1      26.005  20.513   8.742  0.00  0.00     0.167 HD
ENDBRANCH  38  40
ENDBRANCH  37  38
ENDBRANCH  36  37
ENDBRANCH  15  36
BRANCH  12  42
HETATM   42  C   UNK N   1      26.215  13.754   5.852  0.00  0.00    -0.001 C 
HETATM   43  C   UNK N   1      25.048  13.749   6.486  0.00  0.00     0.012 C 
ENDBRANCH  12  42
BRANCH  24  44
HETATM   44  O   UNK N   1      22.654  18.266   3.616  0.00  0.00    -0.356 OA
HETATM   45  H   UNK N   1      22.327  18.612   4.423  0.00  0.00     0.218 HD
ENDBRANCH  24  44
BRANCH  13  46
HETATM   46  C   UNK N   1      21.100  13.305   2.083  0.00  0.00     0.004 C 
HETATM   47  C   UNK N   1      20.801  13.249   0.786  0.00  0.00     0.012 C 
ENDBRANCH  13  46
TORSDOF 11
ENDMDL
MODEL 2
REMARK VINA RESULT:      -7.6      2.586      5.068
REMARK  11 active torsions:
REMARK  status: ('A' for Active; 'I' for Inactive)
REMARK    1  A    between atoms: C_20  and  C_7 
REMARK    2  A    between atoms: C_21  and  C_8 
REMARK    3  A    between atoms: C_11  and  C_9 
REMARK    4  A    between atoms: C_22  and  C_9 
REMARK    5  A    between atoms: C_12  and  C_10 
REMARK    6  A    between atoms: C_23  and  C_10 
REMARK    7  A    between atoms: C_30  and  C_11 
REMARK    8  A    between atoms: C_31  and  C_12 
REMARK    9  A    between atoms: O_39  and  C_30 
REMARK   10  A    between atoms: O_41  and  C_31 
REMARK   11  A    between atoms: O_43  and  C_34 
ROOT
HETATM    1  C   UNK N   1      24.944  13.096   3.130  0.00  0.00     0.017 A 
HETATM    2  C   UNK N   1      29.138  18.040   4.791  0.00  0.00     0.051 C 
HETATM    3  C   UNK N   1      20.026  11.180   5.334  0.00  0.00     0.052 C 
HETATM    4  C   UNK N   1      19.540  16.542   4.085  0.00  0.00     0.051 C 
HETATM    5  C   UNK N   1      27.995  15.240   5.027  0.00  0.00     0.057 C 
HETATM    6  C   UNK N   1      25.076  11.028   4.658  0.00  0.00     0.028 C 
HETATM    7  C   UNK N   1      24.312  17.926   3.912  0.00  0.00     0.064 C 
HETATM    8  C   UNK N   1      25.622  12.784   4.756  0.00  0.00     0.040 A 
HETATM    9  C   UNK N   1      27.719  17.607   4.614  0.00  0.00    -0.025 A 
HETATM   10  C   UNK N   1      21.460  11.579   5.191  0.00  0.00    -0.018 A 
HETATM   11  C   UNK N   1      21.032  16.466   4.104  0.00  0.00    -0.022 A 
HETATM   12  C   UNK N   1      26.291  13.685   5.709  0.00  0.00    -0.030 A 
HETATM   13  C   UNK N   1      22.548  10.690   5.143  0.00  0.00    -0.000 A 
HETATM   14  C   UNK N   1      26.628  18.392   4.277  0.00  0.00    -0.021 A 
HETATM   15  C   UNK N   1      21.869  17.514   3.829  0.00  0.00    -0.021 A 
HETATM   16  C   UNK N   1      26.328  12.078   4.297  0.00  0.00     0.114 C 
HETATM   17  C   UNK N   1      27.242  16.316   4.733  0.00  0.00     0.065 A 
HETATM   18  C   UNK N   1      27.355  13.929   5.084  0.00  0.00     0.035 C 
HETATM   19  C   UNK N   1      23.658  11.464   4.922  0.00  0.00     0.066 A 
HETATM   20  C   UNK N   1      25.540  17.541   4.213  0.00  0.00     0.066 A 
HETATM   21  C   UNK N   1      23.151  17.047   3.969  0.00  0.00     0.066 A 
HETATM   22  C   UNK N   1      21.956  12.884   4.971  0.00  0.00     0.099 A 
HETATM   23  C   UNK N   1      21.837  15.362   4.394  0.00  0.00     0.099 A 
HETATM   24  C   UNK N   1      21.241  14.012   4.780  0.00  0.00     0.124 A 
HETATM   25  N   UNK N   1      27.100  13.222   4.050  0.00  0.00    -0.201 NA
HETATM   26  N   UNK N   1      25.895  16.278   4.498  0.00  0.00    -0.248 N 
HETATM   27  N   UNK N   1      23.279  12.846   4.887  0.00  0.00    -0.245 N 
HETATM   28  N   UNK N   1      23.164  15.725   4.262  0.00  0.00    -0.245 N 
HETATM   29 Zn   UNK N   1      24.776  14.651   4.492  0.00  0.00     0.000 Zn
ENDROOT
BRANCH  14  30
HETATM   30  C   UNK N   1      26.546  19.869   4.018  0.00  0.00     0.052 C 
BRANCH  30  31
HETATM   31  C   UNK N   1      25.957  20.686   5.147  0.00  0.00     0.115 C 
BRANCH  31  32
HETATM   32  C   UNK N   1      26.964  20.769   6.241  0.00  0.00     0.139 C 
HETATM   33  O   UNK N   1      27.849  21.605   6.187  0.00  0.00    -0.650 OA
BRANCH  32  34
HETATM   34  O   UNK N   1      26.886  19.939   7.299  0.00  0.00    -0.776 OA
HETATM   35  H   UNK N   1      26.419  19.127   7.317  0.00  0.00     0.167 HD
ENDBRANCH  32  34
ENDBRANCH  31  32
ENDBRANCH  30  31
ENDBRANCH  14  30
BRANCH  15  36
HETATM   36  C   UNK N   1      21.491  18.910   3.448  0.00  0.00     0.052 C 
BRANCH  36  37
HETATM   37  C   UNK N   1      20.762  18.972   2.117  0.00  0.00     0.115 C 
BRANCH  37  38
HETATM   38  C   UNK N   1      21.000  20.278   1.414  0.00  0.00     0.139 C 
HETATM   39  O   UNK N   1      21.499  21.228   2.000  0.00  0.00    -0.650 OA
BRANCH  38  40
HETATM   40  O   UNK N   1      20.652  20.405   0.121  0.00  0.00    -0.776 OA
HETATM   41  H   UNK N   1      19.890  20.392  -0.424  0.00  0.00     0.167 HD
ENDBRANCH  38  40
ENDBRANCH  37  38
ENDBRANCH  36  37
ENDBRANCH  15  36
BRANCH  12  42
HETATM   42  C   UNK N   1      25.723  14.506   6.811  0.00  0.00    -0.001 C 
HETATM   43  C   UNK N   1      25.088  13.964   7.845  0.00  0.00     0.012 C 
ENDBRANCH  12  42
BRANCH  24  44
HETATM   44  O   UNK N   1      19.898  13.927   4.869  0.00  0.00    -0.356 OA
HETATM   45  H   UNK N   1      19.471  13.098   4.777  0.00  0.00     0.218 HD
ENDBRANCH  24  44
BRANCH  13  46
HETATM   46  C   UNK N   1      22.555   9.216   5.214  0.00  0.00     0.004 C 
HETATM   47  C   UNK N   1      22.882   8.550   6.320  0.00  0.00     0.012 C 
ENDBRANCH  13  46
TORSDOF 11
ENDMDL
MODEL 3
REMARK VINA RESULT:      -7.5     12.400     14.411
REMARK  11 active torsions:
REMARK  status: ('A' for Active; 'I' for Inactive)
REMARK    1  A    between atoms: C_20  and  C_7 
REMARK    2  A    between atoms: C_21  and  C_8 
REMARK    3  A    between atoms: C_11  and  C_9 
REMARK    4  A    between atoms: C_22  and  C_9 
REMARK    5  A    between atoms: C_12  and  C_10 
REMARK    6  A    between atoms: C_23  and  C_10 
REMARK    7  A    between atoms: C_30  and  C_11 
REMARK    8  A    between atoms: C_31  and  C_12 
REMARK    9  A    between atoms: O_39  and  C_30 
REMARK   10  A    between atoms: O_41  and  C_31 
REMARK   11  A    between atoms: O_43  and  C_34 
ROOT
HETATM    1  C   UNK N   1      28.866  24.307  -8.729  0.00  0.00     0.017 A 
HETATM    2  C   UNK N   1      29.401  18.457 -11.936  0.00  0.00     0.051 C 
HETATM    3  C   UNK N   1      26.683  25.856  -3.674  0.00  0.00     0.052 C 
HETATM    4  C   UNK N   1      30.538  21.968  -2.922  0.00  0.00     0.051 C 
HETATM    5  C   UNK N   1      27.931  20.962 -11.062  0.00  0.00     0.057 C 
HETATM    6  C   UNK N   1      26.497  25.315  -8.739  0.00  0.00     0.028 C 
HETATM    7  C   UNK N   1      30.744  19.927  -7.451  0.00  0.00     0.064 C 
HETATM    8  C   UNK N   1      27.233  23.659  -9.068  0.00  0.00     0.040 A 
HETATM    9  C   UNK N   1      29.523  19.191 -10.640  0.00  0.00    -0.025 A 
HETATM   10  C   UNK N   1      26.813  25.301  -5.057  0.00  0.00    -0.018 A 
HETATM   11  C   UNK N   1      30.282  21.730  -4.374  0.00  0.00    -0.022 A 
HETATM   12  C   UNK N   1      26.790  22.299  -9.420  0.00  0.00    -0.030 A 
HETATM   13  C   UNK N   1      26.255  25.869  -6.214  0.00  0.00    -0.000 A 
HETATM   14  C   UNK N   1      30.357  18.898  -9.573  0.00  0.00    -0.021 A 
HETATM   15  C   UNK N   1      30.935  20.801  -5.139  0.00  0.00    -0.021 A 
HETATM   16  C   UNK N   1      27.168  24.344  -9.925  0.00  0.00     0.114 C 
HETATM   17  C   UNK N   1      28.831  20.332 -10.284  0.00  0.00     0.065 A 
HETATM   18  C   UNK N   1      27.302  22.181 -10.562  0.00  0.00     0.035 C 
HETATM   19  C   UNK N   1      26.686  25.095  -7.261  0.00  0.00     0.066 A 
HETATM   20  C   UNK N   1      30.126  19.870  -8.617  0.00  0.00     0.066 A 
HETATM   21  C   UNK N   1      30.405  20.880  -6.401  0.00  0.00     0.066 A 
HETATM   22  C   UNK N   1      27.597  24.193  -5.452  0.00  0.00     0.099 A 
HETATM   23  C   UNK N   1      29.365  22.376  -5.207  0.00  0.00     0.099 A 
HETATM   24  C   UNK N   1      28.430  23.461  -4.683  0.00  0.00     0.124 A 
HETATM   25  N   UNK N   1      27.856  23.333 -10.610  0.00  0.00    -0.201 NA
HETATM   26  N   UNK N   1      29.193  20.742  -9.030  0.00  0.00    -0.248 N 
HETATM   27  N   UNK N   1      27.470  24.005  -6.758  0.00  0.00    -0.245 N 
HETATM   28  N   UNK N   1      29.482  21.867  -6.486  0.00  0.00    -0.245 N 
HETATM   29 Zn   UNK N   1      28.521  22.357  -8.112  0.00  0.00     0.000 Zn
ENDROOT
BRANCH  14  30
HETATM   30  C   UNK N   1      31.339  17.776  -9.398  0.00  0.00     0.052 C 
BRANCH  30  31
HETATM   31  C   UNK N   1      32.642  17.941 -10.149  0.00  0.00     0.115 C 
BRANCH  31  32
HETATM   32  C   UNK N   1      33.610  18.643  -9.262  0.00  0.00     0.139 C 
HETATM   33  O   UNK N   1      34.195  18.021  -8.392  0.00  0.00    -0.650 OA
BRANCH  32  34
HETATM   34  O   UNK N   1      33.857  19.956  -9.431  0.00  0.00    -0.776 OA
HETATM   35  H   UNK N   1      33.405  20.652  -8.997  0.00  0.00     0.167 HD
ENDBRANCH  32  34
ENDBRANCH  31  32
ENDBRANCH  30  31
ENDBRANCH  14  30
BRANCH  15  36
HETATM   36  C   UNK N   1      32.020  19.865  -4.711  0.00  0.00     0.052 C 
BRANCH  36  37
HETATM   37  C   UNK N   1      33.407  20.411  -5.003  0.00  0.00     0.115 C 
BRANCH  37  38
HETATM   38  C   UNK N   1      34.196  20.626  -3.743  0.00  0.00     0.139 C 
HETATM   39  O   UNK N   1      35.411  20.763  -3.775  0.00  0.00    -0.650 OA
BRANCH  38  40
HETATM   40  O   UNK N   1      33.557  20.661  -2.561  0.00  0.00    -0.776 OA
HETATM   41  H   UNK N   1      33.675  20.396  -1.670  0.00  0.00     0.167 HD
ENDBRANCH  38  40
ENDBRANCH  37  38
ENDBRANCH  36  37
ENDBRANCH  15  36
BRANCH  12  42
HETATM   42  C   UNK N   1      26.348  21.180  -8.546  0.00  0.00    -0.001 C 
HETATM   43  C   UNK N   1      25.242  21.248  -7.812  0.00  0.00     0.012 C 
ENDBRANCH  12  42
BRANCH  24  44
HETATM   44  O   UNK N   1      28.493  23.756  -3.368  0.00  0.00    -0.356 OA
HETATM   45  H   UNK N   1      28.347  23.087  -2.728  0.00  0.00     0.218 HD
ENDBRANCH  24  44
BRANCH  13  46
HETATM   46  C   UNK N   1      25.443  27.094  -6.358  0.00  0.00     0.004 C 
HETATM   47  C   UNK N   1      24.339  27.313  -5.647  0.00  0.00     0.012 C 
ENDBRANCH  13  46
TORSDOF 11
ENDMDL
MODEL 4
REMARK VINA RESULT:      -7.5     12.488     15.321
REMARK  11 active torsions:
REMARK  status: ('A' for Active; 'I' for Inactive)
REMARK    1  A    between atoms: C_20  and  C_7 
REMARK    2  A    between atoms: C_21  and  C_8 
REMARK    3  A    between atoms: C_11  and  C_9 
REMARK    4  A    between atoms: C_22  and  C_9 
REMARK    5  A    between atoms: C_12  and  C_10 
REMARK    6  A    between atoms: C_23  and  C_10 
REMARK    7  A    between atoms: C_30  and  C_11 
REMARK    8  A    between atoms: C_31  and  C_12 
REMARK    9  A    between atoms: O_39  and  C_30 
REMARK   10  A    between atoms: O_41  and  C_31 
REMARK   11  A    between atoms: O_43  and  C_34 
ROOT
HETATM    1  C   UNK N   1      31.841  24.171  -6.934  0.00  0.00     0.017 A 
HETATM    2  C   UNK N   1      29.838  29.382  -3.243  0.00  0.00     0.051 C 
HETATM    3  C   UNK N   1      29.779  18.903  -7.779  0.00  0.00     0.052 C 
HETATM    4  C   UNK N   1      25.922  22.641  -9.082  0.00  0.00     0.051 C 
HETATM    5  C   UNK N   1      31.230  26.722  -3.674  0.00  0.00     0.057 C 
HETATM    6  C   UNK N   1      32.922  22.263  -5.585  0.00  0.00     0.028 C 
HETATM    7  C   UNK N   1      27.575  26.630  -6.617  0.00  0.00     0.064 C 
HETATM    8  C   UNK N   1      31.867  23.722  -5.202  0.00  0.00     0.040 A 
HETATM    9  C   UNK N   1      29.443  28.276  -4.167  0.00  0.00    -0.025 A 
HETATM   10  C   UNK N   1      30.322  20.128  -7.114  0.00  0.00    -0.018 A 
HETATM   11  C   UNK N   1      26.796  23.523  -8.251  0.00  0.00    -0.022 A 
HETATM   12  C   UNK N   1      31.216  24.344  -4.036  0.00  0.00    -0.030 A 
HETATM   13  C   UNK N   1      31.608  20.248  -6.561  0.00  0.00    -0.000 A 
HETATM   14  C   UNK N   1      28.372  28.244  -5.044  0.00  0.00    -0.021 A 
HETATM   15  C   UNK N   1      26.568  24.853  -8.022  0.00  0.00    -0.021 A 
HETATM   16  C   UNK N   1      32.953  23.891  -5.202  0.00  0.00     0.114 C 
HETATM   17  C   UNK N   1      30.110  27.077  -4.331  0.00  0.00     0.065 A 
HETATM   18  C   UNK N   1      31.843  25.432  -3.978  0.00  0.00     0.035 C 
HETATM   19  C   UNK N   1      31.718  21.548  -6.138  0.00  0.00     0.066 A 
HETATM   20  C   UNK N   1      28.434  27.025  -5.694  0.00  0.00     0.066 A 
HETATM   21  C   UNK N   1      27.576  25.296  -7.204  0.00  0.00     0.066 A 
HETATM   22  C   UNK N   1      29.691  21.390  -7.026  0.00  0.00     0.099 A 
HETATM   23  C   UNK N   1      27.968  23.184  -7.570  0.00  0.00     0.099 A 
HETATM   24  C   UNK N   1      28.516  21.761  -7.574  0.00  0.00     0.124 A 
HETATM   25  N   UNK N   1      32.606  25.232  -4.985  0.00  0.00    -0.201 NA
HETATM   26  N   UNK N   1      29.479  26.300  -5.263  0.00  0.00    -0.248 N 
HETATM   27  N   UNK N   1      30.480  22.233  -6.373  0.00  0.00    -0.245 N 
HETATM   28  N   UNK N   1      28.473  24.314  -6.955  0.00  0.00    -0.245 N 
HETATM   29 Zn   UNK N   1      30.089  24.527  -5.882  0.00  0.00     0.000 Zn
ENDROOT
BRANCH  14  30
HETATM   30  C   UNK N   1      27.308  29.271  -5.304  0.00  0.00     0.052 C 
BRANCH  30  31
HETATM   31  C   UNK N   1      26.343  29.498  -4.160  0.00  0.00     0.115 C 
BRANCH  31  32
HETATM   32  C   UNK N   1      25.644  28.215  -3.874  0.00  0.00     0.139 C 
HETATM   33  O   UNK N   1      24.933  27.710  -4.726  0.00  0.00    -0.650 OA
BRANCH  32  34
HETATM   34  O   UNK N   1      25.811  27.601  -2.687  0.00  0.00    -0.776 OA
HETATM   35  H   UNK N   1      26.580  27.654  -2.154  0.00  0.00     0.167 HD
ENDBRANCH  32  34
ENDBRANCH  31  32
ENDBRANCH  30  31
ENDBRANCH  14  30
BRANCH  15  36
HETATM   36  C   UNK N   1      25.444  25.691  -8.545  0.00  0.00     0.052 C 
BRANCH  36  37
HETATM   37  C   UNK N   1      25.733  26.252  -9.927  0.00  0.00     0.115 C 
BRANCH  37  38
HETATM   38  C   UNK N   1      24.594  26.004 -10.875  0.00  0.00     0.139 C 
HETATM   39  O   UNK N   1      24.387  24.890 -11.335  0.00  0.00    -0.650 OA
BRANCH  38  40
HETATM   40  O   UNK N   1      23.796  27.026 -11.230  0.00  0.00    -0.776 OA
HETATM   41  H   UNK N   1      22.912  27.192 -11.496  0.00  0.00     0.167 HD
ENDBRANCH  38  40
ENDBRANCH  37  38
ENDBRANCH  36  37
ENDBRANCH  15  36
BRANCH  12  42
HETATM   42  C   UNK N   1      29.888  24.072  -3.423  0.00  0.00    -0.001 C 
HETATM   43  C   UNK N   1      29.626  22.944  -2.771  0.00  0.00     0.012 C 
ENDBRANCH  12  42
BRANCH  24  44
HETATM   44  O   UNK N   1      27.807  20.822  -8.234  0.00  0.00    -0.356 OA
HETATM   45  H   UNK N   1      26.908  20.671  -8.016  0.00  0.00     0.218 HD
ENDBRANCH  24  44
BRANCH  13  46
HETATM   46  C   UNK N   1      32.697  19.253  -6.500  0.00  0.00     0.004 C 
HETATM   47  C   UNK N   1      33.567  19.077  -7.493  0.00  0.00     0.012 C 
ENDBRANCH  13  46
TORSDOF 11
ENDMDL
MODEL 5
REMARK VINA RESULT:      -7.4      3.079      5.661
REMARK  11 active torsions:
REMARK  status: ('A' for Active; 'I' for Inactive)
REMARK    1  A    between atoms: C_20  and  C_7 
REMARK    2  A    between atoms: C_21  and  C_8 
REMARK    3  A    between atoms: C_11  and  C_9 
REMARK    4  A    between atoms: C_22  and  C_9 
REMARK    5  A    between atoms: C_12  and  C_10 
REMARK    6  A    between atoms: C_23  and  C_10 
REMARK    7  A    between atoms: C_30  and  C_11 
REMARK    8  A    between atoms: C_31  and  C_12 
REMARK    9  A    between atoms: O_39  and  C_30 
REMARK   10  A    between atoms: O_41  and  C_31 
REMARK   11  A    between atoms: O_43  and  C_34 
ROOT
HETATM    1  C   UNK N   1      29.185  16.404   2.906  0.00  0.00     0.017 A 
HETATM    2  C   UNK N   1      31.404  10.144   3.725  0.00  0.00     0.051 C 
HETATM    3  C   UNK N   1      26.362  20.068   6.272  0.00  0.00     0.052 C 
HETATM    4  C   UNK N   1      31.030  18.471   8.764  0.00  0.00     0.051 C 
HETATM    5  C   UNK N   1      29.289  12.226   3.103  0.00  0.00     0.057 C 
HETATM    6  C   UNK N   1      26.642  16.595   2.551  0.00  0.00     0.028 C 
HETATM    7  C   UNK N   1      32.039  14.264   6.314  0.00  0.00     0.064 C 
HETATM    8  C   UNK N   1      27.797  15.310   3.185  0.00  0.00     0.040 A 
HETATM    9  C   UNK N   1      31.251  11.507   4.319  0.00  0.00    -0.025 A 
HETATM   10  C   UNK N   1      26.718  18.852   5.477  0.00  0.00    -0.018 A 
HETATM   11  C   UNK N   1      30.936  17.363   7.766  0.00  0.00    -0.022 A 
HETATM   12  C   UNK N   1      27.741  13.951   3.751  0.00  0.00    -0.030 A 
HETATM   13  C   UNK N   1      26.107  18.463   4.273  0.00  0.00    -0.000 A 
HETATM   14  C   UNK N   1      32.063  12.118   5.260  0.00  0.00    -0.021 A 
HETATM   15  C   UNK N   1      31.853  16.355   7.632  0.00  0.00    -0.021 A 
HETATM   16  C   UNK N   1      27.614  15.309   2.102  0.00  0.00     0.114 C 
HETATM   17  C   UNK N   1      30.268  12.424   4.005  0.00  0.00     0.065 A 
HETATM   18  C   UNK N   1      28.337  13.305   2.851  0.00  0.00     0.035 C 
HETATM   19  C   UNK N   1      26.787  17.352   3.845  0.00  0.00     0.066 A 
HETATM   20  C   UNK N   1      31.531  13.376   5.477  0.00  0.00     0.066 A 
HETATM   21  C   UNK N   1      31.401  15.536   6.629  0.00  0.00     0.066 A 
HETATM   22  C   UNK N   1      27.783  17.958   5.732  0.00  0.00     0.099 A 
HETATM   23  C   UNK N   1      29.939  17.140   6.814  0.00  0.00     0.099 A 
HETATM   24  C   UNK N   1      28.726  18.056   6.692  0.00  0.00     0.124 A 
HETATM   25  N   UNK N   1      28.579  14.294   2.077  0.00  0.00    -0.201 NA
HETATM   26  N   UNK N   1      30.433  13.573   4.730  0.00  0.00    -0.248 N 
HETATM   27  N   UNK N   1      27.791  17.006   4.808  0.00  0.00    -0.245 N 
HETATM   28  N   UNK N   1      30.263  16.017   6.076  0.00  0.00    -0.245 N 
HETATM   29 Zn   UNK N   1      29.314  15.193   4.584  0.00  0.00     0.000 Zn
ENDROOT
BRANCH  14  30
HETATM   30  C   UNK N   1      33.288  11.601   5.959  0.00  0.00     0.052 C 
BRANCH  30  31
HETATM   31  C   UNK N   1      33.018  10.702   7.145  0.00  0.00     0.115 C 
BRANCH  31  32
HETATM   32  C   UNK N   1      33.463  11.406   8.379  0.00  0.00     0.139 C 
HETATM   33  O   UNK N   1      34.635  11.364   8.710  0.00  0.00    -0.650 OA
BRANCH  32  34
HETATM   34  O   UNK N   1      32.580  12.106   9.118  0.00  0.00    -0.776 OA
HETATM   35  H   UNK N   1      32.574  13.038   9.215  0.00  0.00     0.167 HD
ENDBRANCH  32  34
ENDBRANCH  31  32
ENDBRANCH  30  31
ENDBRANCH  14  30
BRANCH  15  36
HETATM   36  C   UNK N   1      33.113  16.155   8.414  0.00  0.00     0.052 C 
BRANCH  36  37
HETATM   37  C   UNK N   1      34.298  16.879   7.799  0.00  0.00     0.115 C 
BRANCH  37  38
HETATM   38  C   UNK N   1      34.879  17.893   8.744  0.00  0.00     0.139 C 
HETATM   39  O   UNK N   1      35.271  17.568   9.855  0.00  0.00    -0.650 OA
BRANCH  38  40
HETATM   40  O   UNK N   1      34.962  19.180   8.362  0.00  0.00    -0.776 OA
HETATM   41  H   UNK N   1      35.280  19.701   7.651  0.00  0.00     0.167 HD
ENDBRANCH  38  40
ENDBRANCH  37  38
ENDBRANCH  36  37
ENDBRANCH  15  36
BRANCH  12  42
HETATM   42  C   UNK N   1      27.546  13.506   5.156  0.00  0.00    -0.001 C 
HETATM   43  C   UNK N   1      26.455  13.808   5.851  0.00  0.00     0.012 C 
ENDBRANCH  12  42
BRANCH  24  44
HETATM   44  O   UNK N   1      28.627  19.079   7.566  0.00  0.00    -0.356 OA
HETATM   45  H   UNK N   1      29.291  19.211   8.214  0.00  0.00     0.218 HD
ENDBRANCH  24  44
BRANCH  13  46
HETATM   46  C   UNK N   1      25.019  19.120   3.521  0.00  0.00     0.004 C 
HETATM   47  C   UNK N   1      25.210  20.215   2.790  0.00  0.00     0.012 C 
ENDBRANCH  13  46
TORSDOF 11
ENDMDL
MODEL 6
REMARK VINA RESULT:      -7.4      2.303      7.034
REMARK  11 active torsions:
REMARK  status: ('A' for Active; 'I' for Inactive)
REMARK    1  A    between atoms: C_20  and  C_7 
REMARK    2  A    between atoms: C_21  and  C_8 
REMARK    3  A    between atoms: C_11  and  C_9 
REMARK    4  A    between atoms: C_22  and  C_9 
REMARK    5  A    between atoms: C_12  and  C_10 
REMARK    6  A    between atoms: C_23  and  C_10 
REMARK    7  A    between atoms: C_30  and  C_11 
REMARK    8  A    between atoms: C_31  and  C_12 
REMARK    9  A    between atoms: O_39  and  C_30 
REMARK   10  A    between atoms: O_41  and  C_31 
REMARK   11  A    between atoms: O_43  and  C_34 
ROOT
HETATM    1  C   UNK N   1      24.954  13.114   5.748  0.00  0.00     0.017 A 
HETATM    2  C   UNK N   1      19.717  15.972   2.715  0.00  0.00     0.051 C 
HETATM    3  C   UNK N   1      30.538  12.819   4.546  0.00  0.00     0.052 C 
HETATM    4  C   UNK N   1      28.977  18.113   4.844  0.00  0.00     0.051 C 
HETATM    5  C   UNK N   1      21.751  13.761   3.135  0.00  0.00     0.057 C 
HETATM    6  C   UNK N   1      25.794  10.958   4.619  0.00  0.00     0.028 C 
HETATM    7  C   UNK N   1      24.067  17.707   4.180  0.00  0.00     0.064 C 
HETATM    8  C   UNK N   1      24.720  12.374   4.136  0.00  0.00     0.040 A 
HETATM    9  C   UNK N   1      21.144  16.102   3.139  0.00  0.00    -0.025 A 
HETATM   10  C   UNK N   1      29.052  12.693   4.438  0.00  0.00    -0.018 A 
HETATM   11  C   UNK N   1      27.625  17.506   4.658  0.00  0.00    -0.022 A 
HETATM   12  C   UNK N   1      23.969  12.846   2.960  0.00  0.00    -0.030 A 
HETATM   13  C   UNK N   1      28.333  11.488   4.515  0.00  0.00    -0.000 A 
HETATM   14  C   UNK N   1      21.832  17.262   3.457  0.00  0.00    -0.021 A 
HETATM   15  C   UNK N   1      26.451  18.211   4.634  0.00  0.00    -0.021 A 
HETATM   16  C   UNK N   1      24.220  11.527   4.627  0.00  0.00     0.114 C 
HETATM   17  C   UNK N   1      22.037  15.064   3.317  0.00  0.00     0.065 A 
HETATM   18  C   UNK N   1      22.792  12.770   3.396  0.00  0.00     0.035 C 
HETATM   19  C   UNK N   1      27.007  11.835   4.454  0.00  0.00     0.066 A 
HETATM   20  C   UNK N   1      23.112  16.873   3.807  0.00  0.00     0.066 A 
HETATM   21  C   UNK N   1      25.445  17.302   4.426  0.00  0.00     0.066 A 
HETATM   22  C   UNK N   1      28.119  13.751   4.354  0.00  0.00     0.099 A 
HETATM   23  C   UNK N   1      27.299  16.160   4.479  0.00  0.00     0.099 A 
HETATM   24  C   UNK N   1      28.370  15.075   4.421  0.00  0.00     0.124 A 
HETATM   25  N   UNK N   1      23.080  12.341   4.565  0.00  0.00    -0.201 NA
HETATM   26  N   UNK N   1      23.255  15.541   3.717  0.00  0.00    -0.248 N 
HETATM   27  N   UNK N   1      26.892  13.253   4.282  0.00  0.00    -0.245 N 
HETATM   28  N   UNK N   1      25.926  16.038   4.380  0.00  0.00    -0.245 N 
HETATM   29 Zn   UNK N   1      24.833  14.437   4.156  0.00  0.00     0.000 Zn
ENDROOT
BRANCH  14  30
HETATM   30  C   UNK N   1      21.369  18.690   3.450  0.00  0.00     0.052 C 
BRANCH  30  31
HETATM   31  C   UNK N   1      20.654  19.127   2.191  0.00  0.00     0.115 C 
BRANCH  31  32
HETATM   32  C   UNK N   1      21.219  20.435   1.759  0.00  0.00     0.139 C 
HETATM   33  O   UNK N   1      21.487  20.621   0.585  0.00  0.00    -0.650 OA
BRANCH  32  34
HETATM   34  O   UNK N   1      21.415  21.420   2.658  0.00  0.00    -0.776 OA
HETATM   35  H   UNK N   1      21.898  21.335   3.456  0.00  0.00     0.167 HD
ENDBRANCH  32  34
ENDBRANCH  31  32
ENDBRANCH  30  31
ENDBRANCH  14  30
BRANCH  15  36
HETATM   36  C   UNK N   1      26.268  19.687   4.796  0.00  0.00     0.052 C 
BRANCH  36  37
HETATM   37  C   UNK N   1      26.403  20.436   3.482  0.00  0.00     0.115 C 
BRANCH  37  38
HETATM   38  C   UNK N   1      25.064  20.701   2.853  0.00  0.00     0.139 C 
HETATM   39  O   UNK N   1      24.110  21.057   3.529  0.00  0.00    -0.650 OA
BRANCH  38  40
HETATM   40  O   UNK N   1      24.912  20.535   1.528  0.00  0.00    -0.776 OA
HETATM   41  H   UNK N   1      24.780  21.040   0.749  0.00  0.00     0.167 HD
ENDBRANCH  38  40
ENDBRANCH  37  38
ENDBRANCH  36  37
ENDBRANCH  15  36
BRANCH  12  42
HETATM   42  C   UNK N   1      24.417  13.667   1.804  0.00  0.00    -0.001 C 
HETATM   43  C   UNK N   1      24.009  13.427   0.562  0.00  0.00     0.012 C 
ENDBRANCH  12  42
BRANCH  24  44
HETATM   44  O   UNK N   1      29.658  15.466   4.513  0.00  0.00    -0.356 OA
HETATM   45  H   UNK N   1      29.870  16.319   4.838  0.00  0.00     0.218 HD
ENDBRANCH  24  44
BRANCH  13  46
HETATM   46  C   UNK N   1      28.830  10.113   4.714  0.00  0.00     0.004 C 
HETATM   47  C   UNK N   1      29.032   9.267   3.705  0.00  0.00     0.012 C 
ENDBRANCH  13  46
TORSDOF 11
ENDMDL
MODEL 7
REMARK VINA RESULT:      -7.4      5.182      9.235
REMARK  11 active torsions:
REMARK  status: ('A' for Active; 'I' for Inactive)
REMARK    1  A    between atoms: C_20  and  C_7 
REMARK    2  A    between atoms: C_21  and  C_8 
REMARK    3  A    between atoms: C_11  and  C_9 
REMARK    4  A    between atoms: C_22  and  C_9 
REMARK    5  A    between atoms: C_12  and  C_10 
REMARK    6  A    between atoms: C_23  and  C_10 
REMARK    7  A    between atoms: C_30  and  C_11 
REMARK    8  A    between atoms: C_31  and  C_12 
REMARK    9  A    between atoms: O_39  and  C_30 
REMARK   10  A    between atoms: O_41  and  C_31 
REMARK   11  A    between atoms: O_43  and  C_34 
ROOT
HETATM    1  C   UNK N   1      33.386  17.220   4.691  0.00  0.00     0.017 A 
HETATM    2  C   UNK N   1      37.223  12.457   1.975  0.00  0.00     0.051 C 
HETATM    3  C   UNK N   1      29.490  17.246   8.879  0.00  0.00     0.052 C 
HETATM    4  C   UNK N   1      34.290  15.306  10.815  0.00  0.00     0.051 C 
HETATM    5  C   UNK N   1      34.643  14.015   2.313  0.00  0.00     0.057 C 
HETATM    6  C   UNK N   1      30.911  17.127   3.985  0.00  0.00     0.028 C 
HETATM    7  C   UNK N   1      36.553  13.954   6.600  0.00  0.00     0.064 C 
HETATM    8  C   UNK N   1      32.347  15.975   3.934  0.00  0.00     0.040 A 
HETATM    9  C   UNK N   1      36.666  13.056   3.226  0.00  0.00    -0.025 A 
HETATM   10  C   UNK N   1      30.210  16.923   7.608  0.00  0.00    -0.018 A 
HETATM   11  C   UNK N   1      34.558  15.111   9.358  0.00  0.00    -0.022 A 
HETATM   12  C   UNK N   1      32.646  14.592   3.523  0.00  0.00    -0.030 A 
HETATM   13  C   UNK N   1      29.792  17.301   6.321  0.00  0.00    -0.000 A 
HETATM   14  C   UNK N   1      37.228  13.050   4.492  0.00  0.00    -0.021 A 
HETATM   15  C   UNK N   1      35.725  14.619   8.840  0.00  0.00    -0.021 A 
HETATM   16  C   UNK N   1      32.225  16.641   3.069  0.00  0.00     0.114 C 
HETATM   17  C   UNK N   1      35.483  13.759   3.333  0.00  0.00     0.065 A 
HETATM   18  C   UNK N   1      33.441  14.804   2.574  0.00  0.00     0.035 C 
HETATM   19  C   UNK N   1      30.776  16.878   5.465  0.00  0.00     0.066 A 
HETATM   20  C   UNK N   1      36.355  13.744   5.310  0.00  0.00     0.066 A 
HETATM   21  C   UNK N   1      35.570  14.577   7.478  0.00  0.00     0.066 A 
HETATM   22  C   UNK N   1      31.469  16.291   7.488  0.00  0.00     0.099 A 
HETATM   23  C   UNK N   1      33.711  15.379   8.280  0.00  0.00     0.099 A 
HETATM   24  C   UNK N   1      32.298  15.916   8.484  0.00  0.00     0.124 A 
HETATM   25  N   UNK N   1      33.435  16.081   2.639  0.00  0.00    -0.201 NA
HETATM   26  N   UNK N   1      35.284  14.172   4.622  0.00  0.00    -0.248 N 
HETATM   27  N   UNK N   1      31.788  16.183   6.205  0.00  0.00    -0.245 N 
HETATM   28  N   UNK N   1      34.372  15.083   7.104  0.00  0.00    -0.245 N 
HETATM   29 Zn   UNK N   1      33.765  15.262   5.258  0.00  0.00     0.000 Zn
ENDROOT
BRANCH  14  30
HETATM   30  C   UNK N   1      38.512  12.439   4.975  0.00  0.00     0.052 C 
BRANCH  30  31
HETATM   31  C   UNK N   1      39.732  13.324   4.844  0.00  0.00     0.115 C 
BRANCH  31  32
HETATM   32  C   UNK N   1      40.103  13.814   6.201  0.00  0.00     0.139 C 
HETATM   33  O   UNK N   1      40.403  14.985   6.360  0.00  0.00    -0.650 OA
BRANCH  32  34
HETATM   34  O   UNK N   1      40.087  12.974   7.254  0.00  0.00    -0.776 OA
HETATM   35  H   UNK N   1      40.812  12.457   7.544  0.00  0.00     0.167 HD
ENDBRANCH  32  34
ENDBRANCH  31  32
ENDBRANCH  30  31
ENDBRANCH  14  30
BRANCH  15  36
HETATM   36  C   UNK N   1      36.951  14.196   9.587  0.00  0.00     0.052 C 
BRANCH  36  37
HETATM   37  C   UNK N   1      36.827  12.794  10.157  0.00  0.00     0.115 C 
BRANCH  37  38
HETATM   38  C   UNK N   1      37.260  12.740  11.595  0.00  0.00     0.139 C 
HETATM   39  O   UNK N   1      37.709  11.711  12.080  0.00  0.00    -0.650 OA
BRANCH  38  40
HETATM   40  O   UNK N   1      37.143  13.838  12.362  0.00  0.00    -0.776 OA
HETATM   41  H   UNK N   1      36.533  14.251  12.941  0.00  0.00     0.167 HD
ENDBRANCH  38  40
ENDBRANCH  37  38
ENDBRANCH  36  37
ENDBRANCH  15  36
BRANCH  12  42
HETATM   42  C   UNK N   1      32.514  13.319   4.280  0.00  0.00    -0.001 C 
HETATM   43  C   UNK N   1      31.357  12.916   4.795  0.00  0.00     0.012 C 
ENDBRANCH  12  42
BRANCH  24  44
HETATM   44  O   UNK N   1      31.875  16.092   9.752  0.00  0.00    -0.356 OA
HETATM   45  H   UNK N   1      31.711  16.955  10.080  0.00  0.00     0.218 HD
ENDBRANCH  24  44
BRANCH  13  46
HETATM   46  C   UNK N   1      28.602  18.074   5.913  0.00  0.00     0.004 C 
HETATM   47  C   UNK N   1      27.416  17.509   5.697  0.00  0.00     0.012 C 
ENDBRANCH  13  46
TORSDOF 11
ENDMDL
MODEL 8
REMARK VINA RESULT:      -7.3      2.667      6.910
REMARK  11 active torsions:
REMARK  status: ('A' for Active; 'I' for Inactive)
REMARK    1  A    between atoms: C_20  and  C_7 
REMARK    2  A    between atoms: C_21  and  C_8 
REMARK    3  A    between atoms: C_11  and  C_9 
REMARK    4  A    between atoms: C_22  and  C_9 
REMARK    5  A    between atoms: C_12  and  C_10 
REMARK    6  A    between atoms: C_23  and  C_10 
REMARK    7  A    between atoms: C_30  and  C_11 
REMARK    8  A    between atoms: C_31  and  C_12 
REMARK    9  A    between atoms: O_39  and  C_30 
REMARK   10  A    between atoms: O_41  and  C_31 
REMARK   11  A    between atoms: O_43  and  C_34 
ROOT
HETATM    1  C   UNK N   1      24.317  12.162   4.246  0.00  0.00     0.017 A 
HETATM    2  C   UNK N   1      19.670  16.954   3.761  0.00  0.00     0.051 C 
HETATM    3  C   UNK N   1      28.887  10.759   1.107  0.00  0.00     0.052 C 
HETATM    4  C   UNK N   1      29.313  16.013   2.765  0.00  0.00     0.051 C 
HETATM    5  C   UNK N   1      20.892  14.263   3.079  0.00  0.00     0.057 C 
HETATM    6  C   UNK N   1      24.033  10.229   2.569  0.00  0.00     0.028 C 
HETATM    7  C   UNK N   1      24.575  17.072   3.837  0.00  0.00     0.064 C 
HETATM    8  C   UNK N   1      23.394  11.948   2.728  0.00  0.00     0.040 A 
HETATM    9  C   UNK N   1      21.118  16.599   3.665  0.00  0.00    -0.025 A 
HETATM   10  C   UNK N   1      27.479  11.052   1.516  0.00  0.00    -0.018 A 
HETATM   11  C   UNK N   1      27.844  15.844   2.980  0.00  0.00    -0.022 A 
HETATM   12  C   UNK N   1      22.532  12.884   1.986  0.00  0.00    -0.030 A 
HETATM   13  C   UNK N   1      26.459  10.095   1.653  0.00  0.00    -0.000 A 
HETATM   14  C   UNK N   1      22.210  17.419   3.895  0.00  0.00    -0.021 A 
HETATM   15  C   UNK N   1      27.014  16.809   3.485  0.00  0.00    -0.021 A 
HETATM   16  C   UNK N   1      22.809  11.162   3.226  0.00  0.00     0.114 C 
HETATM   17  C   UNK N   1      21.631  15.356   3.349  0.00  0.00     0.065 A 
HETATM   18  C   UNK N   1      21.577  13.005   2.794  0.00  0.00     0.035 C 
HETATM   19  C   UNK N   1      25.364  10.775   2.123  0.00  0.00     0.066 A 
HETATM   20  C   UNK N   1      23.334  16.637   3.702  0.00  0.00     0.066 A 
HETATM   21  C   UNK N   1      25.751  16.276   3.509  0.00  0.00     0.066 A 
HETATM   22  C   UNK N   1      26.964  12.299   1.936  0.00  0.00     0.099 A 
HETATM   23  C   UNK N   1      27.056  14.721   2.720  0.00  0.00     0.099 A 
HETATM   24  C   UNK N   1      27.645  13.450   2.116  0.00  0.00     0.124 A 
HETATM   25  N   UNK N   1      22.034  12.229   3.701  0.00  0.00    -0.201 NA
HETATM   26  N   UNK N   1      22.998  15.383   3.358  0.00  0.00    -0.248 N 
HETATM   27  N   UNK N   1      25.677  12.170   2.228  0.00  0.00    -0.245 N 
HETATM   28  N   UNK N   1      25.754  14.987   3.098  0.00  0.00    -0.245 N 
HETATM   29 Zn   UNK N   1      24.180  13.835   3.029  0.00  0.00     0.000 Zn
ENDROOT
BRANCH  14  30
HETATM   30  C   UNK N   1      22.262  18.870   4.277  0.00  0.00     0.052 C 
BRANCH  30  31
HETATM   31  C   UNK N   1      22.423  19.833   3.121  0.00  0.00     0.115 C 
BRANCH  31  32
HETATM   32  C   UNK N   1      21.173  20.631   2.997  0.00  0.00     0.139 C 
HETATM   33  O   UNK N   1      20.280  20.487   3.814  0.00  0.00    -0.650 OA
BRANCH  32  34
HETATM   34  O   UNK N   1      21.034  21.525   1.999  0.00  0.00    -0.776 OA
HETATM   35  H   UNK N   1      20.220  21.875   1.695  0.00  0.00     0.167 HD
ENDBRANCH  32  34
ENDBRANCH  31  32
ENDBRANCH  30  31
ENDBRANCH  14  30
BRANCH  15  36
HETATM   36  C   UNK N   1      27.382  18.189   3.931  0.00  0.00     0.052 C 
BRANCH  36  37
HETATM   37  C   UNK N   1      27.708  18.252   5.413  0.00  0.00     0.115 C 
BRANCH  37  38
HETATM   38  C   UNK N   1      27.527  19.639   5.963  0.00  0.00     0.139 C 
HETATM   39  O   UNK N   1      27.717  20.624   5.264  0.00  0.00    -0.650 OA
BRANCH  38  40
HETATM   40  O   UNK N   1      27.159  19.798   7.246  0.00  0.00    -0.776 OA
HETATM   41  H   UNK N   1      27.537  19.890   8.098  0.00  0.00     0.167 HD
ENDBRANCH  38  40
ENDBRANCH  37  38
ENDBRANCH  36  37
ENDBRANCH  15  36
BRANCH  12  42
HETATM   42  C   UNK N   1      22.869  13.831   0.890  0.00  0.00    -0.001 C 
HETATM   43  C   UNK N   1      23.649  13.488  -0.130  0.00  0.00     0.012 C 
ENDBRANCH  12  42
BRANCH  24  44
HETATM   44  O   UNK N   1      28.957  13.458   1.804  0.00  0.00    -0.356 OA
HETATM   45  H   UNK N   1      29.488  12.705   1.977  0.00  0.00     0.218 HD
ENDBRANCH  24  44
BRANCH  13  46
HETATM   46  C   UNK N   1      26.511   8.635   1.445  0.00  0.00     0.004 C 
HETATM   47  C   UNK N   1      26.091   8.053   0.324  0.00  0.00     0.012 C 
ENDBRANCH  13  46
TORSDOF 11
ENDMDL
MODEL 9
REMARK VINA RESULT:      -7.1      8.076     12.128
REMARK  11 active torsions:
REMARK  status: ('A' for Active; 'I' for Inactive)
REMARK    1  A    between atoms: C_20  and  C_7 
REMARK    2  A    between atoms: C_21  and  C_8 
REMARK    3  A    between atoms: C_11  and  C_9 
REMARK    4  A    between atoms: C_22  and  C_9 
REMARK    5  A    between atoms: C_12  and  C_10 
REMARK    6  A    between atoms: C_23  and  C_10 
REMARK    7  A    between atoms: C_30  and  C_11 
REMARK    8  A    between atoms: C_31  and  C_12 
REMARK    9  A    between atoms: O_39  and  C_30 
REMARK   10  A    between atoms: O_41  and  C_31 
REMARK   11  A    between atoms: O_43  and  C_34 
ROOT
HETATM    1  C   UNK N   1      33.195  15.164   9.589  0.00  0.00     0.017 A 
HETATM    2  C   UNK N   1      36.778  13.205  14.891  0.00  0.00     0.051 C 
HETATM    3  C   UNK N   1      33.451  13.994   3.996  0.00  0.00     0.052 C 
HETATM    4  C   UNK N   1      32.901   9.297   6.856  0.00  0.00     0.051 C 
HETATM    5  C   UNK N   1      36.238  14.922  12.450  0.00  0.00     0.057 C 
HETATM    6  C   UNK N   1      34.372  16.892   8.087  0.00  0.00     0.028 C 
HETATM    7  C   UNK N   1      34.429  10.730  11.365  0.00  0.00     0.064 C 
HETATM    8  C   UNK N   1      34.888  15.711   9.401  0.00  0.00     0.040 A 
HETATM    9  C   UNK N   1      36.106  12.808  13.617  0.00  0.00    -0.025 A 
HETATM   10  C   UNK N   1      33.822  14.444   5.374  0.00  0.00    -0.018 A 
HETATM   11  C   UNK N   1      33.374  10.168   7.974  0.00  0.00    -0.022 A 
HETATM   12  C   UNK N   1      36.122  15.268  10.072  0.00  0.00    -0.030 A 
HETATM   13  C   UNK N   1      33.989  15.781   5.772  0.00  0.00    -0.000 A 
HETATM   14  C   UNK N   1      35.562  11.576  13.292  0.00  0.00    -0.021 A 
HETATM   15  C   UNK N   1      33.528   9.757   9.271  0.00  0.00    -0.021 A 
HETATM   16  C   UNK N   1      34.575  16.709   9.738  0.00  0.00     0.114 C 
HETATM   17  C   UNK N   1      35.882  13.626  12.527  0.00  0.00     0.065 A 
HETATM   18  C   UNK N   1      35.903  15.672  11.242  0.00  0.00     0.035 C 
HETATM   19  C   UNK N   1      34.240  15.745   7.120  0.00  0.00     0.066 A 
HETATM   20  C   UNK N   1      35.039  11.703  12.018  0.00  0.00     0.066 A 
HETATM   21  C   UNK N   1      33.993  10.836   9.978  0.00  0.00     0.066 A 
HETATM   22  C   UNK N   1      33.959  13.629   6.520  0.00  0.00     0.099 A 
HETATM   23  C   UNK N   1      33.738  11.516   7.925  0.00  0.00     0.099 A 
HETATM   24  C   UNK N   1      33.719  12.305   6.620  0.00  0.00     0.124 A 
HETATM   25  N   UNK N   1      34.750  16.180  11.024  0.00  0.00    -0.201 NA
HETATM   26  N   UNK N   1      35.236  12.940  11.536  0.00  0.00    -0.248 N 
HETATM   27  N   UNK N   1      34.288  14.382   7.561  0.00  0.00    -0.245 N 
HETATM   28  N   UNK N   1      34.081  11.936   9.195  0.00  0.00    -0.245 N 
HETATM   29 Zn   UNK N   1      34.645  13.699   9.811  0.00  0.00     0.000 Zn
ENDROOT
BRANCH  14  30
HETATM   30  C   UNK N   1      35.507  10.306  14.091  0.00  0.00     0.052 C 
BRANCH  30  31
HETATM   31  C   UNK N   1      34.482  10.292  15.204  0.00  0.00     0.115 C 
BRANCH  31  32
HETATM   32  C   UNK N   1      35.179   9.976  16.481  0.00  0.00     0.139 C 
HETATM   33  O   UNK N   1      36.366  10.225  16.600  0.00  0.00    -0.650 OA
BRANCH  32  34
HETATM   34  O   UNK N   1      34.498   9.437  17.511  0.00  0.00    -0.776 OA
HETATM   35  H   UNK N   1      34.585   9.690  18.409  0.00  0.00     0.167 HD
ENDBRANCH  32  34
ENDBRANCH  31  32
ENDBRANCH  30  31
ENDBRANCH  14  30
BRANCH  15  36
HETATM   36  C   UNK N   1      33.254   8.400   9.838  0.00  0.00     0.052 C 
BRANCH  36  37
HETATM   37  C   UNK N   1      31.862   8.290  10.435  0.00  0.00     0.115 C 
BRANCH  37  38
HETATM   38  C   UNK N   1      30.929   7.532   9.533  0.00  0.00     0.139 C 
HETATM   39  O   UNK N   1      31.357   6.743   8.703  0.00  0.00    -0.650 OA
BRANCH  38  40
HETATM   40  O   UNK N   1      29.604   7.733   9.635  0.00  0.00    -0.776 OA
HETATM   41  H   UNK N   1      28.925   8.264   9.268  0.00  0.00     0.167 HD
ENDBRANCH  38  40
ENDBRANCH  37  38
ENDBRANCH  36  37
ENDBRANCH  15  36
BRANCH  12  42
HETATM   42  C   UNK N   1      37.098  14.215   9.685  0.00  0.00    -0.001 C 
HETATM   43  C   UNK N   1      37.326  13.891   8.416  0.00  0.00     0.012 C 
ENDBRANCH  12  42
BRANCH  24  44
HETATM   44  O   UNK N   1      33.371  11.644   5.496  0.00  0.00    -0.356 OA
HETATM   45  H   UNK N   1      33.961  11.609   4.768  0.00  0.00     0.218 HD
ENDBRANCH  24  44
BRANCH  13  46
HETATM   46  C   UNK N   1      33.845  17.019   4.980  0.00  0.00     0.004 C 
HETATM   47  C   UNK N   1      32.660  17.536   4.663  0.00  0.00     0.012 C 
ENDBRANCH  13  46
TORSDOF 11
ENDMDL
