MODEL 1
REMARK VINA RESULT:      -5.1      0.000      0.000
REMARK  4 active torsions:
REMARK  status: ('A' for Active; 'I' for Inactive)
REMARK    1  A    between atoms: O_1  and  C_2 
REMARK    2  A    between atoms: C_2  and  C_4 
REMARK    3  A    between atoms: C_6  and  S_7 
REMARK    4  A    between atoms: C_10  and  N_11 
ROOT
HETATM    1  C   UNK N   1      21.341  19.714   2.312  0.00  0.00     0.071 A 
HETATM    2  C   UNK N   1      20.462  18.676   2.677  0.00  0.00     0.039 A 
HETATM    3  C   UNK N   1      20.796  17.745   3.658  0.00  0.00    -0.002 A 
HETATM    4  C   UNK N   1      22.020  17.831   4.306  0.00  0.00     0.021 A 
HETATM    5  C   UNK N   1      22.906  18.853   3.983  0.00  0.00     0.038 A 
HETATM    6  C   UNK N   1      22.605  19.811   2.997  0.00  0.00     0.119 A 
ENDROOT
BRANCH   1   7
HETATM    7  C   UNK N   1      20.888  20.578   1.176  0.00  0.00     0.178 C 
HETATM    8  O   UNK N   1      20.827  20.106   0.050  0.00  0.00    -0.646 OA
BRANCH   7   9
HETATM    9  O   UNK N   1      20.664  21.894   1.327  0.00  0.00    -0.773 OA
HETATM   10  H   UNK N   1      20.297  22.433   0.654  0.00  0.00     0.167 HD
ENDBRANCH   7   9
ENDBRANCH   1   7
BRANCH   6  11
HETATM   11  N   UNK N   1      23.580  20.837   2.771  0.00  0.00    -0.115 N 
HETATM   12  O   UNK N   1      23.284  22.085   3.063  0.00  0.00    -0.532 OA
HETATM   13  O   UNK N   1      24.583  20.615   2.167  0.00  0.00    -0.532 OA
ENDBRANCH   6  11
BRANCH   3  14
HETATM   14  S   UNK N   1      19.687  16.398   4.032  0.00  0.00    -0.143 SA
HETATM   15  H   UNK N   1      19.495  15.402   3.125  0.00  0.00     0.107 HD
ENDBRANCH   3  14
TORSDOF 4
ENDMDL
MODEL 2
REMARK VINA RESULT:      -5.0     11.023     12.207
REMARK  4 active torsions:
REMARK  status: ('A' for Active; 'I' for Inactive)
REMARK    1  A    between atoms: O_1  and  C_2 
REMARK    2  A    between atoms: C_2  and  C_4 
REMARK    3  A    between atoms: C_6  and  S_7 
REMARK    4  A    between atoms: C_10  and  N_11 
ROOT
HETATM    1  C   UNK N   1      31.871  17.458   7.492  0.00  0.00     0.071 A 
HETATM    2  C   UNK N   1      31.159  17.058   6.345  0.00  0.00     0.039 A 
HETATM    3  C   UNK N   1      31.780  16.933   5.105  0.00  0.00    -0.002 A 
HETATM    4  C   UNK N   1      33.136  17.201   4.979  0.00  0.00     0.021 A 
HETATM    5  C   UNK N   1      33.874  17.582   6.094  0.00  0.00     0.038 A 
HETATM    6  C   UNK N   1      33.282  17.720   7.363  0.00  0.00     0.119 A 
ENDROOT
BRANCH   1   7
HETATM    7  C   UNK N   1      31.052  17.643   8.733  0.00  0.00     0.178 C 
HETATM    8  O   UNK N   1      30.662  18.761   9.033  0.00  0.00    -0.646 OA
BRANCH   7   9
HETATM    9  O   UNK N   1      30.834  16.639   9.598  0.00  0.00    -0.773 OA
HETATM   10  H   UNK N   1      29.979  16.378   9.877  0.00  0.00     0.167 HD
ENDBRANCH   7   9
ENDBRANCH   1   7
BRANCH   6  11
HETATM   11  N   UNK N   1      34.147  18.088   8.445  0.00  0.00    -0.115 N 
HETATM   12  O   UNK N   1      34.938  19.131   8.313  0.00  0.00    -0.532 OA
HETATM   13  O   UNK N   1      34.294  17.377   9.390  0.00  0.00    -0.532 OA
ENDBRANCH   6  11
BRANCH   3  14
HETATM   14  S   UNK N   1      30.823  16.502   3.661  0.00  0.00    -0.143 SA
HETATM   15  H   UNK N   1      29.596  15.931   3.803  0.00  0.00     0.107 HD
ENDBRANCH   3  14
TORSDOF 4
ENDMDL
MODEL 3
REMARK VINA RESULT:      -5.0     11.338     12.385
REMARK  4 active torsions:
REMARK  status: ('A' for Active; 'I' for Inactive)
REMARK    1  A    between atoms: O_1  and  C_2 
REMARK    2  A    between atoms: C_2  and  C_4 
REMARK    3  A    between atoms: C_6  and  S_7 
REMARK    4  A    between atoms: C_10  and  N_11 
ROOT
HETATM    1  C   UNK N   1      31.787  21.527  -4.100  0.00  0.00     0.071 A 
HETATM    2  C   UNK N   1      31.669  20.717  -5.246  0.00  0.00     0.039 A 
HETATM    3  C   UNK N   1      30.573  20.815  -6.101  0.00  0.00    -0.002 A 
HETATM    4  C   UNK N   1      29.567  21.732  -5.834  0.00  0.00     0.021 A 
HETATM    5  C   UNK N   1      29.659  22.560  -4.721  0.00  0.00     0.038 A 
HETATM    6  C   UNK N   1      30.750  22.490  -3.834  0.00  0.00     0.119 A 
ENDROOT
BRANCH   1   7
HETATM    7  C   UNK N   1      32.968  21.242  -3.224  0.00  0.00     0.178 C 
HETATM    8  O   UNK N   1      34.059  21.037  -3.735  0.00  0.00    -0.646 OA
BRANCH   7   9
HETATM    9  O   UNK N   1      32.847  21.082  -1.895  0.00  0.00    -0.773 OA
HETATM   10  H   UNK N   1      32.041  20.854  -1.477  0.00  0.00     0.167 HD
ENDBRANCH   7   9
ENDBRANCH   1   7
BRANCH   6  11
HETATM   11  N   UNK N   1      30.753  23.413  -2.738  0.00  0.00    -0.115 N 
HETATM   12  O   UNK N   1      30.540  22.968  -1.518  0.00  0.00    -0.532 OA
HETATM   13  O   UNK N   1      30.771  24.590  -2.920  0.00  0.00    -0.532 OA
ENDBRANCH   6  11
BRANCH   3  14
HETATM   14  S   UNK N   1      30.423  19.713  -7.497  0.00  0.00    -0.143 SA
HETATM   15  H   UNK N   1      31.281  18.665  -7.633  0.00  0.00     0.107 HD
ENDBRANCH   3  14
TORSDOF 4
ENDMDL
MODEL 4
REMARK VINA RESULT:      -4.9      6.136      6.974
REMARK  4 active torsions:
REMARK  status: ('A' for Active; 'I' for Inactive)
REMARK    1  A    between atoms: O_1  and  C_2 
REMARK    2  A    between atoms: C_2  and  C_4 
REMARK    3  A    between atoms: C_6  and  S_7 
REMARK    4  A    between atoms: C_10  and  N_11 
ROOT
HETATM    1  C   UNK N   1      20.061  16.208   8.496  0.00  0.00     0.071 A 
HETATM    2  C   UNK N   1      20.243  15.057   9.286  0.00  0.00     0.039 A 
HETATM    3  C   UNK N   1      21.277  14.156   9.040  0.00  0.00    -0.002 A 
HETATM    4  C   UNK N   1      22.162  14.387   7.997  0.00  0.00     0.021 A 
HETATM    5  C   UNK N   1      22.022  15.522   7.206  0.00  0.00     0.038 A 
HETATM    6  C   UNK N   1      20.990  16.455   7.424  0.00  0.00     0.119 A 
ENDROOT
BRANCH   1   7
HETATM    7  C   UNK N   1      18.851  17.031   8.817  0.00  0.00     0.178 C 
HETATM    8  O   UNK N   1      17.740  16.579   8.587  0.00  0.00    -0.646 OA
BRANCH   7   9
HETATM    9  O   UNK N   1      18.946  18.303   9.238  0.00  0.00    -0.773 OA
HETATM   10  H   UNK N   1      18.710  19.038   8.707  0.00  0.00     0.167 HD
ENDBRANCH   7   9
ENDBRANCH   1   7
BRANCH   6  11
HETATM   11  N   UNK N   1      20.964  17.603   6.567  0.00  0.00    -0.115 N 
HETATM   12  O   UNK N   1      20.986  18.806   7.099  0.00  0.00    -0.532 OA
HETATM   13  O   UNK N   1      20.748  17.500   5.400  0.00  0.00    -0.532 OA
ENDBRANCH   6  11
BRANCH   3  14
HETATM   14  S   UNK N   1      21.422  12.668  10.015  0.00  0.00    -0.143 SA
HETATM   15  H   UNK N   1      22.258  11.671   9.617  0.00  0.00     0.107 HD
ENDBRANCH   3  14
TORSDOF 4
ENDMDL
MODEL 5
REMARK VINA RESULT:      -4.8     12.325     13.428
REMARK  4 active torsions:
REMARK  status: ('A' for Active; 'I' for Inactive)
REMARK    1  A    between atoms: O_1  and  C_2 
REMARK    2  A    between atoms: C_2  and  C_4 
REMARK    3  A    between atoms: C_6  and  S_7 
REMARK    4  A    between atoms: C_10  and  N_11 
ROOT
HETATM    1  C   UNK N   1      33.535  17.305   8.131  0.00  0.00     0.071 A 
HETATM    2  C   UNK N   1      32.240  17.803   8.375  0.00  0.00     0.039 A 
HETATM    3  C   UNK N   1      31.116  17.249   7.765  0.00  0.00    -0.002 A 
HETATM    4  C   UNK N   1      31.258  16.176   6.897  0.00  0.00     0.021 A 
HETATM    5  C   UNK N   1      32.519  15.647   6.647  0.00  0.00     0.038 A 
HETATM    6  C   UNK N   1      33.677  16.179   7.243  0.00  0.00     0.119 A 
ENDROOT
BRANCH   1   7
HETATM    7  C   UNK N   1      34.653  18.061   8.779  0.00  0.00     0.178 C 
HETATM    8  O   UNK N   1      35.002  19.134   8.311  0.00  0.00    -0.646 OA
BRANCH   7   9
HETATM    9  O   UNK N   1      35.373  17.542   9.788  0.00  0.00    -0.773 OA
HETATM   10  H   UNK N   1      34.991  17.074  10.504  0.00  0.00     0.167 HD
ENDBRANCH   7   9
ENDBRANCH   1   7
BRANCH   6  11
HETATM   11  N   UNK N   1      34.919  15.534   6.936  0.00  0.00    -0.115 N 
HETATM   12  O   UNK N   1      35.571  14.900   7.888  0.00  0.00    -0.532 OA
HETATM   13  O   UNK N   1      35.461  15.699   5.888  0.00  0.00    -0.532 OA
ENDBRANCH   6  11
BRANCH   3  14
HETATM   14  S   UNK N   1      29.504  17.964   8.038  0.00  0.00    -0.143 SA
HETATM   15  H   UNK N   1      28.405  17.164   8.099  0.00  0.00     0.107 HD
ENDBRANCH   3  14
TORSDOF 4
ENDMDL
MODEL 6
REMARK VINA RESULT:      -4.8     11.232     12.495
REMARK  4 active torsions:
REMARK  status: ('A' for Active; 'I' for Inactive)
REMARK    1  A    between atoms: O_1  and  C_2 
REMARK    2  A    between atoms: C_2  and  C_4 
REMARK    3  A    between atoms: C_6  and  S_7 
REMARK    4  A    between atoms: C_10  and  N_11 
ROOT
HETATM    1  C   UNK N   1      32.976  17.043   6.623  0.00  0.00     0.071 A 
HETATM    2  C   UNK N   1      31.642  16.819   6.231  0.00  0.00     0.039 A 
HETATM    3  C   UNK N   1      30.569  17.212   7.028  0.00  0.00    -0.002 A 
HETATM    4  C   UNK N   1      30.803  17.847   8.239  0.00  0.00     0.021 A 
HETATM    5  C   UNK N   1      32.107  18.099   8.650  0.00  0.00     0.038 A 
HETATM    6  C   UNK N   1      33.216  17.717   7.873  0.00  0.00     0.119 A 
ENDROOT
BRANCH   1   7
HETATM    7  C   UNK N   1      34.023  16.479   5.713  0.00  0.00     0.178 C 
HETATM    8  O   UNK N   1      33.762  16.306   4.532  0.00  0.00    -0.646 OA
BRANCH   7   9
HETATM    9  O   UNK N   1      35.206  16.039   6.174  0.00  0.00    -0.773 OA
HETATM   10  H   UNK N   1      36.026  16.421   5.932  0.00  0.00     0.167 HD
ENDBRANCH   7   9
ENDBRANCH   1   7
BRANCH   6  11
HETATM   11  N   UNK N   1      34.512  18.057   8.383  0.00  0.00    -0.115 N 
HETATM   12  O   UNK N   1      35.171  17.178   9.108  0.00  0.00    -0.532 OA
HETATM   13  O   UNK N   1      34.932  19.169   8.314  0.00  0.00    -0.532 OA
ENDBRANCH   6  11
BRANCH   3  14
HETATM   14  S   UNK N   1      28.897  16.835   6.530  0.00  0.00    -0.143 SA
HETATM   15  H   UNK N   1      28.591  15.600   6.048  0.00  0.00     0.107 HD
ENDBRANCH   3  14
TORSDOF 4
ENDMDL
MODEL 7
REMARK VINA RESULT:      -4.7     20.845     22.063
REMARK  4 active torsions:
REMARK  status: ('A' for Active; 'I' for Inactive)
REMARK    1  A    between atoms: O_1  and  C_2 
REMARK    2  A    between atoms: C_2  and  C_4 
REMARK    3  A    between atoms: C_6  and  S_7 
REMARK    4  A    between atoms: C_10  and  N_11 
ROOT
HETATM    1  C   UNK N   1      43.839  21.064   3.611  0.00  0.00     0.071 A 
HETATM    2  C   UNK N   1      45.177  20.628   3.572  0.00  0.00     0.039 A 
HETATM    3  C   UNK N   1      45.514  19.331   3.191  0.00  0.00    -0.002 A 
HETATM    4  C   UNK N   1      44.518  18.435   2.831  0.00  0.00     0.021 A 
HETATM    5  C   UNK N   1      43.186  18.835   2.841  0.00  0.00     0.038 A 
HETATM    6  C   UNK N   1      42.807  20.137   3.221  0.00  0.00     0.119 A 
ENDROOT
BRANCH   1   7
HETATM    7  C   UNK N   1      43.622  22.450   4.133  0.00  0.00     0.178 C 
HETATM    8  O   UNK N   1      43.849  22.690   5.310  0.00  0.00    -0.646 OA
BRANCH   7   9
HETATM    9  O   UNK N   1      43.068  23.417   3.382  0.00  0.00    -0.773 OA
HETATM   10  H   UNK N   1      42.766  24.231   3.734  0.00  0.00     0.167 HD
ENDBRANCH   7   9
ENDBRANCH   1   7
BRANCH   6  11
HETATM   11  N   UNK N   1      41.409  20.447   3.163  0.00  0.00    -0.115 N 
HETATM   12  O   UNK N   1      41.004  21.471   2.443  0.00  0.00    -0.532 OA
HETATM   13  O   UNK N   1      40.626  19.911   3.882  0.00  0.00    -0.532 OA
ENDBRANCH   6  11
BRANCH   3  14
HETATM   14  S   UNK N   1      47.216  18.796   3.235  0.00  0.00    -0.143 SA
HETATM   15  H   UNK N   1      47.574  17.613   2.666  0.00  0.00     0.107 HD
ENDBRANCH   3  14
TORSDOF 4
ENDMDL
MODEL 8
REMARK VINA RESULT:      -4.7      9.930     11.291
REMARK  4 active torsions:
REMARK  status: ('A' for Active; 'I' for Inactive)
REMARK    1  A    between atoms: O_1  and  C_2 
REMARK    2  A    between atoms: C_2  and  C_4 
REMARK    3  A    between atoms: C_6  and  S_7 
REMARK    4  A    between atoms: C_10  and  N_11 
ROOT
HETATM    1  C   UNK N   1      26.746  25.018  -4.211  0.00  0.00     0.071 A 
HETATM    2  C   UNK N   1      26.708  26.335  -3.715  0.00  0.00     0.039 A 
HETATM    3  C   UNK N   1      26.099  27.368  -4.425  0.00  0.00    -0.002 A 
HETATM    4  C   UNK N   1      25.506  27.109  -5.652  0.00  0.00     0.021 A 
HETATM    5  C   UNK N   1      25.510  25.817  -6.165  0.00  0.00     0.038 A 
HETATM    6  C   UNK N   1      26.115  24.748  -5.478  0.00  0.00     0.119 A 
ENDROOT
BRANCH   1   7
HETATM    7  C   UNK N   1      27.518  24.035  -3.386  0.00  0.00     0.178 C 
HETATM    8  O   UNK N   1      27.140  23.776  -2.253  0.00  0.00    -0.646 OA
BRANCH   7   9
HETATM    9  O   UNK N   1      28.686  23.518  -3.802  0.00  0.00    -0.773 OA
HETATM   10  H   UNK N   1      29.394  23.317  -3.222  0.00  0.00     0.167 HD
ENDBRANCH   7   9
ENDBRANCH   1   7
BRANCH   6  11
HETATM   11  N   UNK N   1      26.030  23.454  -6.089  0.00  0.00    -0.115 N 
HETATM   12  O   UNK N   1      27.130  22.863  -6.505  0.00  0.00    -0.532 OA
HETATM   13  O   UNK N   1      24.980  22.977  -6.385  0.00  0.00    -0.532 OA
ENDBRANCH   6  11
BRANCH   3  14
HETATM   14  S   UNK N   1      26.146  29.038  -3.796  0.00  0.00    -0.143 SA
HETATM   15  H   UNK N   1      25.373  29.387  -2.732  0.00  0.00     0.107 HD
ENDBRANCH   3  14
TORSDOF 4
ENDMDL
MODEL 9
REMARK VINA RESULT:      -4.7     10.142     11.361
REMARK  4 active torsions:
REMARK  status: ('A' for Active; 'I' for Inactive)
REMARK    1  A    between atoms: O_1  and  C_2 
REMARK    2  A    between atoms: C_2  and  C_4 
REMARK    3  A    between atoms: C_6  and  S_7 
REMARK    4  A    between atoms: C_10  and  N_11 
ROOT
HETATM    1  C   UNK N   1      26.677  25.492  -4.595  0.00  0.00     0.071 A 
HETATM    2  C   UNK N   1      26.634  24.891  -5.868  0.00  0.00     0.039 A 
HETATM    3  C   UNK N   1      25.898  25.443  -6.914  0.00  0.00    -0.002 A 
HETATM    4  C   UNK N   1      25.188  26.619  -6.716  0.00  0.00     0.021 A 
HETATM    5  C   UNK N   1      25.221  27.249  -5.477  0.00  0.00     0.038 A 
HETATM    6  C   UNK N   1      25.952  26.722  -4.396  0.00  0.00     0.119 A 
ENDROOT
BRANCH   1   7
HETATM    7  C   UNK N   1      27.427  24.735  -3.544  0.00  0.00     0.178 C 
HETATM    8  O   UNK N   1      28.643  24.647  -3.622  0.00  0.00    -0.646 OA
BRANCH   7   9
HETATM    9  O   UNK N   1      26.799  24.039  -2.581  0.00  0.00    -0.773 OA
HETATM   10  H   UNK N   1      26.604  23.126  -2.652  0.00  0.00     0.167 HD
ENDBRANCH   7   9
ENDBRANCH   1   7
BRANCH   6  11
HETATM   11  N   UNK N   1      25.938  27.474  -3.177  0.00  0.00    -0.115 N 
HETATM   12  O   UNK N   1      26.071  28.782  -3.223  0.00  0.00    -0.532 OA
HETATM   13  O   UNK N   1      25.983  26.934  -2.116  0.00  0.00    -0.532 OA
ENDBRANCH   6  11
BRANCH   3  14
HETATM   14  S   UNK N   1      25.805  24.604  -8.487  0.00  0.00    -0.143 SA
HETATM   15  H   UNK N   1      25.712  25.323  -9.638  0.00  0.00     0.107 HD
ENDBRANCH   3  14
TORSDOF 4
ENDMDL
