REMARK  12 active torsions:
REMARK  status: ('A' for Active; 'I' for Inactive)
REMARK    1  A    between atoms: C_1  and  O_7 
REMARK    2  A    between atoms: C_2  and  O_8 
REMARK    3  A    between atoms: C_4  and  O_9 
REMARK    4  A    between atoms: C_5  and  C_11 
REMARK    5  A    between atoms: C_6  and  O_10 
REMARK    6  A    between atoms: C_13  and  O_10 
REMARK    7  A    between atoms: O_12  and  C_11 
REMARK    8  A    between atoms: C_14  and  O_19 
REMARK    9  A    between atoms: C_16  and  O_20 
REMARK   10  A    between atoms: C_17  and  C_22 
REMARK   11  A    between atoms: C_18  and  O_21 
REMARK   12  A    between atoms: C_22  and  O_23 
ROOT
HETATM    1  O   UNK N   1       0.034   0.012  -0.813  0.00  0.00    -0.348 OA
ENDROOT
BRANCH   1   2
HETATM    2  C   UNK N   1       0.274   1.110   0.030  0.00  0.00     0.187 C 
HETATM    3  C   UNK N   1       1.703   1.603  -0.246  0.00  0.00     0.183 C 
HETATM    4  C   UNK N   1       1.967   2.991   0.339  0.00  0.00     0.204 C 
HETATM    5  C   UNK N   1       0.819   3.902  -0.088  0.00  0.00     0.288 C 
HETATM    6  O   UNK N   1      -0.370   3.401   0.462  0.00  0.00    -0.349 OA
HETATM    7  C   UNK N   1      -0.708   2.262  -0.289  0.00  0.00     0.180 C 
BRANCH   3   8
HETATM    8  O   UNK N   1       2.638   0.686   0.238  0.00  0.00    -0.390 OA
HETATM    9  H   UNK N   1       2.411  -0.195   0.574  0.00  0.00     0.210 HD
ENDBRANCH   3   8
BRANCH   4  10
HETATM   10  O   UNK N   1       3.176   3.482  -0.156  0.00  0.00    -0.388 OA
HETATM   11  H   UNK N   1       3.892   2.925  -0.500  0.00  0.00     0.210 HD
ENDBRANCH   4  10
BRANCH   5  12
HETATM   12  O   UNK N   1       1.030   5.201   0.374  0.00  0.00    -0.369 OA
HETATM   13  H   UNK N   1       1.886   5.525   0.696  0.00  0.00     0.212 HD
ENDBRANCH   5  12
BRANCH   7  14
HETATM   14  C   UNK N   1      -2.138   1.874   0.047  0.00  0.00     0.198 C 
BRANCH  14  15
HETATM   15  O   UNK N   1      -3.015   2.886  -0.342  0.00  0.00    -0.398 OA
HETATM   16  H   UNK N   1      -2.710   3.766  -0.613  0.00  0.00     0.209 HD
ENDBRANCH  14  15
ENDBRANCH   7  14
ENDBRANCH   1   2
BRANCH   1  17
HETATM   17  C   UNK N   1      -0.747  -0.910  -0.104  0.00  0.00     0.292 C 
HETATM   18  C   UNK N   1      -0.128  -2.312  -0.217  0.00  0.00     0.204 C 
HETATM   19  C   UNK N   1      -1.037  -3.318   0.495  0.00  0.00     0.183 C 
HETATM   20  C   UNK N   1      -2.487  -3.160   0.037  0.00  0.00     0.180 C 
HETATM   21  C   UNK N   1      -2.860  -1.682   0.177  0.00  0.00     0.179 C 
HETATM   22  O   UNK N   1      -2.032  -0.933  -0.676  0.00  0.00    -0.348 OA
BRANCH  18  23
HETATM   23  O   UNK N   1       1.140  -2.330   0.364  0.00  0.00    -0.388 OA
HETATM   24  H   UNK N   1       1.570  -3.100   0.767  0.00  0.00     0.210 HD
ENDBRANCH  18  23
BRANCH  19  25
HETATM   25  O   UNK N   1      -0.596  -4.621   0.250  0.00  0.00    -0.390 OA
HETATM   26  H   UNK N   1      -1.226  -5.338   0.081  0.00  0.00     0.210 HD
ENDBRANCH  19  25
BRANCH  20  27
HETATM   27  O   UNK N   1      -3.318  -3.953   0.833  0.00  0.00    -0.390 OA
HETATM   28  H   UNK N   1      -4.083  -3.728   1.385  0.00  0.00     0.210 HD
ENDBRANCH  20  27
BRANCH  21  29
HETATM   29  C   UNK N   1      -4.313  -1.449  -0.203  0.00  0.00     0.198 C 
BRANCH  29  30
HETATM   30  O   UNK N   1      -4.660  -0.120   0.039  0.00  0.00    -0.398 OA
HETATM   31  H   UNK N   1      -3.980   0.551   0.208  0.00  0.00     0.209 HD
ENDBRANCH  29  30
ENDBRANCH  21  29
ENDBRANCH   1  17
TORSDOF 12
