REMARK  6 active torsions:
REMARK  status: ('A' for Active; 'I' for Inactive)
REMARK    1  A    between atoms: C_4  and  C_1 
REMARK    2  A    between atoms: O_17  and  C_1 
REMARK    3  A    between atoms: C_6  and  O_18 
REMARK    4  A    between atoms: C_7  and  O_19 
REMARK    5  A    between atoms: O_20  and  C_9 
REMARK    6  A    between atoms: C_10  and  N_16 
ROOT
HETATM    1  C   UNK N   1       5.245   0.537   0.203  0.00  0.00     0.184 A 
HETATM    2  C   UNK N   1       0.786  -0.642   0.103  0.00  0.00     0.251 A 
HETATM    3  C   UNK N   1       3.061  -1.081   0.132  0.00  0.00     0.125 A 
HETATM    4  C   UNK N   1       2.923   0.247   0.209  0.00  0.00     0.139 A 
HETATM    5  C   UNK N   1       4.323  -1.653   0.082  0.00  0.00     0.172 A 
HETATM    6  N   UNK N   1       3.992   1.083   0.234  0.00  0.00    -0.337 N 
ATOM      7  HN  UNK N   1       3.863   2.094   0.274  1.00  0.00     0.168 HD
HETATM    8  N   UNK N   1       5.407  -0.823   0.126  0.00  0.00    -0.331 N 
ATOM      9  HN  UNK N   1       6.347  -1.219   0.101  1.00  0.00     0.168 HD
HETATM   10  N   UNK N   1       1.804  -1.691   0.070  0.00  0.00    -0.367 N 
HETATM   11  N   UNK N   1       1.562   0.597   0.212  0.00  0.00    -0.320 N 
HETATM   12  H   UNK N   1       1.633  -2.659   0.013  0.00  0.00     0.161 HD
ENDROOT
BRANCH  11  13
HETATM   13  C   UNK N   1       1.086   1.850  -0.350  0.00  0.00     0.258 C 
HETATM   14  C   UNK N   1      -0.283   2.247   0.177  0.00  0.00     0.198 C 
HETATM   15  C   UNK N   1      -0.324   3.644  -0.363  0.00  0.00     0.182 C 
HETATM   16  C   UNK N   1       1.126   4.101  -0.122  0.00  0.00     0.179 C 
HETATM   17  O   UNK N   1       1.931   2.934  -0.023  0.00  0.00    -0.354 OA
BRANCH  14  18
HETATM   18  O   UNK N   1      -1.317   1.454  -0.328  0.00  0.00    -0.388 OA
HETATM   19  H   UNK N   1      -2.152   1.800  -0.679  0.00  0.00     0.210 HD
ENDBRANCH  14  18
BRANCH  15  20
HETATM   20  O   UNK N   1      -1.301   4.438   0.246  0.00  0.00    -0.390 OA
HETATM   21  H   UNK N   1      -1.163   5.300   0.668  0.00  0.00     0.210 HD
ENDBRANCH  15  20
BRANCH  16  22
HETATM   22  C   UNK N   1       1.303   4.938   1.141  0.00  0.00     0.198 C 
BRANCH  22  23
HETATM   23  O   UNK N   1       0.789   6.222   0.933  0.00  0.00    -0.398 OA
HETATM   24  H   UNK N   1       1.381   6.977   0.789  0.00  0.00     0.209 HD
ENDBRANCH  22  23
ENDBRANCH  16  22
ENDBRANCH  11  13
BRANCH   5  25
HETATM   25  O   UNK N   1       4.482  -2.983  -0.021  0.00  0.00    -0.344 OA
HETATM   26  H   UNK N   1       3.735  -3.543  -0.092  0.00  0.00     0.219 HD
ENDBRANCH   5  25
TORSDOF 6
