MODEL 1
REMARK VINA RESULT:      -3.6      0.000      0.000
REMARK  2 active torsions:
REMARK  status: ('A' for Active; 'I' for Inactive)
REMARK    1  A    between atoms: C_2  and  O_3 
REMARK    2  A    between atoms: C_2  and  C_4 
ROOT
HETATM    1  C   UNK N   1      31.029  20.808  -4.045  0.00  0.00     0.047 C 
HETATM    2  C   UNK N   1      31.494  21.674  -2.888  0.00  0.00     0.183 C 
ENDROOT
BRANCH   2   3
HETATM    3  O   UNK N   1      32.610  21.260  -2.161  0.00  0.00    -0.388 OA
HETATM    4  H   UNK N   1      32.836  20.319  -2.113  0.00  0.00     0.210 HD
ENDBRANCH   2   3
BRANCH   2   5
HETATM    5  C   UNK N   1      30.816  22.946  -2.491  0.00  0.00     0.151 C 
HETATM    6  C   UNK N   1      30.772  24.096  -3.439  0.00  0.00     0.093 C 
HETATM    7  O   UNK N   1      30.296  23.048  -1.392  0.00  0.00    -0.296 OA
ENDBRANCH   2   5
TORSDOF 2
ENDMDL
MODEL 2
REMARK VINA RESULT:      -3.6     11.467     12.092
REMARK  2 active torsions:
REMARK  status: ('A' for Active; 'I' for Inactive)
REMARK    1  A    between atoms: C_2  and  O_3 
REMARK    2  A    between atoms: C_2  and  C_4 
ROOT
HETATM    1  C   UNK N   1      34.728  16.999   9.518  0.00  0.00     0.047 C 
HETATM    2  C   UNK N   1      34.579  18.017   8.403  0.00  0.00     0.183 C 
ENDROOT
BRANCH   2   3
HETATM    3  O   UNK N   1      35.286  19.215   8.504  0.00  0.00    -0.388 OA
HETATM    4  H   UNK N   1      35.059  19.962   7.929  0.00  0.00     0.210 HD
ENDBRANCH   2   3
BRANCH   2   5
HETATM    5  C   UNK N   1      33.713  17.799   7.203  0.00  0.00     0.151 C 
HETATM    6  C   UNK N   1      32.275  17.445   7.376  0.00  0.00     0.093 C 
HETATM    7  O   UNK N   1      34.178  17.910   6.081  0.00  0.00    -0.296 OA
ENDBRANCH   2   5
TORSDOF 2
ENDMDL
MODEL 3
REMARK VINA RESULT:      -3.5     18.932     19.310
REMARK  2 active torsions:
REMARK  status: ('A' for Active; 'I' for Inactive)
REMARK    1  A    between atoms: C_2  and  O_3 
REMARK    2  A    between atoms: C_2  and  C_4 
ROOT
HETATM    1  C   UNK N   1      23.240  11.922  13.283  0.00  0.00     0.047 C 
HETATM    2  C   UNK N   1      23.678  12.031  11.835  0.00  0.00     0.183 C 
ENDROOT
BRANCH   2   3
HETATM    3  O   UNK N   1      25.022  12.295  11.570  0.00  0.00    -0.388 OA
HETATM    4  H   UNK N   1      25.714  11.775  12.007  0.00  0.00     0.210 HD
ENDBRANCH   2   3
BRANCH   2   5
HETATM    5  C   UNK N   1      22.742  11.871  10.680  0.00  0.00     0.151 C 
HETATM    6  C   UNK N   1      21.363  12.433  10.753  0.00  0.00     0.093 C 
HETATM    7  O   UNK N   1      23.102  11.282   9.674  0.00  0.00    -0.296 OA
ENDBRANCH   2   5
TORSDOF 2
ENDMDL
MODEL 4
REMARK VINA RESULT:      -3.5     12.615     13.133
REMARK  2 active torsions:
REMARK  status: ('A' for Active; 'I' for Inactive)
REMARK    1  A    between atoms: C_2  and  O_3 
REMARK    2  A    between atoms: C_2  and  C_4 
ROOT
HETATM    1  C   UNK N   1      34.968  15.531   8.877  0.00  0.00     0.047 C 
HETATM    2  C   UNK N   1      34.844  16.972   9.333  0.00  0.00     0.183 C 
ENDROOT
BRANCH   2   3
HETATM    3  O   UNK N   1      34.972  17.247  10.695  0.00  0.00    -0.388 OA
HETATM    4  H   UNK N   1      35.084  18.161  10.997  0.00  0.00     0.210 HD
ENDBRANCH   2   3
BRANCH   2   5
HETATM    5  C   UNK N   1      34.591  18.111   8.398  0.00  0.00     0.151 C 
HETATM    6  C   UNK N   1      33.543  17.992   7.343  0.00  0.00     0.093 C 
HETATM    7  O   UNK N   1      35.238  19.140   8.493  0.00  0.00    -0.296 OA
ENDBRANCH   2   5
TORSDOF 2
ENDMDL
MODEL 5
REMARK VINA RESULT:      -3.5     18.581     18.932
REMARK  2 active torsions:
REMARK  status: ('A' for Active; 'I' for Inactive)
REMARK    1  A    between atoms: C_2  and  O_3 
REMARK    2  A    between atoms: C_2  and  C_4 
ROOT
HETATM    1  C   UNK N   1      24.169  12.011   9.348  0.00  0.00     0.047 C 
HETATM    2  C   UNK N   1      24.175  12.222  10.850  0.00  0.00     0.183 C 
ENDROOT
BRANCH   2   3
HETATM    3  O   UNK N   1      25.375  12.584  11.462  0.00  0.00    -0.388 OA
HETATM    4  H   UNK N   1      25.928  11.908  11.883  0.00  0.00     0.210 HD
ENDBRANCH   2   3
BRANCH   2   5
HETATM    5  C   UNK N   1      22.959  12.061  11.706  0.00  0.00     0.151 C 
HETATM    6  C   UNK N   1      21.601  12.137  11.095  0.00  0.00     0.093 C 
HETATM    7  O   UNK N   1      23.072  11.867  12.905  0.00  0.00    -0.296 OA
ENDBRANCH   2   5
TORSDOF 2
ENDMDL
MODEL 6
REMARK VINA RESULT:      -3.4     12.486     13.054
REMARK  2 active torsions:
REMARK  status: ('A' for Active; 'I' for Inactive)
REMARK    1  A    between atoms: C_2  and  O_3 
REMARK    2  A    between atoms: C_2  and  C_4 
ROOT
HETATM    1  C   UNK N   1      19.991  17.362   3.187  0.00  0.00     0.047 C 
HETATM    2  C   UNK N   1      19.453  18.714   2.759  0.00  0.00     0.183 C 
ENDROOT
BRANCH   2   3
HETATM    3  O   UNK N   1      18.138  18.785   2.299  0.00  0.00    -0.388 OA
HETATM    4  H   UNK N   1      17.487  18.127   2.587  0.00  0.00     0.210 HD
ENDBRANCH   2   3
BRANCH   2   5
HETATM    5  C   UNK N   1      20.261  19.971   2.805  0.00  0.00     0.151 C 
HETATM    6  C   UNK N   1      20.920  20.480   1.568  0.00  0.00     0.093 C 
HETATM    7  O   UNK N   1      20.384  20.585   3.852  0.00  0.00    -0.296 OA
ENDBRANCH   2   5
TORSDOF 2
ENDMDL
MODEL 7
REMARK VINA RESULT:      -3.2     19.268     19.717
REMARK  2 active torsions:
REMARK  status: ('A' for Active; 'I' for Inactive)
REMARK    1  A    between atoms: C_2  and  O_3 
REMARK    2  A    between atoms: C_2  and  C_4 
ROOT
HETATM    1  C   UNK N   1      21.424  12.977   9.832  0.00  0.00     0.047 C 
HETATM    2  C   UNK N   1      21.697  12.257  11.140  0.00  0.00     0.183 C 
ENDROOT
BRANCH   2   3
HETATM    3  O   UNK N   1      20.609  11.781  11.871  0.00  0.00    -0.388 OA
HETATM    4  H   UNK N   1      20.098  12.386  12.430  0.00  0.00     0.210 HD
ENDBRANCH   2   3
BRANCH   2   5
HETATM    5  C   UNK N   1      23.073  12.034  11.682  0.00  0.00     0.151 C 
HETATM    6  C   UNK N   1      23.279  11.880  13.151  0.00  0.00     0.093 C 
HETATM    7  O   UNK N   1      24.029  11.977  10.928  0.00  0.00    -0.296 OA
ENDBRANCH   2   5
TORSDOF 2
ENDMDL
MODEL 8
REMARK VINA RESULT:      -3.2     10.931     11.514
REMARK  2 active torsions:
REMARK  status: ('A' for Active; 'I' for Inactive)
REMARK    1  A    between atoms: C_2  and  O_3 
REMARK    2  A    between atoms: C_2  and  C_4 
ROOT
HETATM    1  C   UNK N   1      20.280  18.286   1.411  0.00  0.00     0.047 C 
HETATM    2  C   UNK N   1      20.754  19.727   1.373  0.00  0.00     0.183 C 
ENDROOT
BRANCH   2   3
HETATM    3  O   UNK N   1      20.639  20.427   0.172  0.00  0.00    -0.388 OA
HETATM    4  H   UNK N   1      19.773  20.749  -0.121  0.00  0.00     0.210 HD
ENDBRANCH   2   3
BRANCH   2   5
HETATM    5  C   UNK N   1      21.337  20.431   2.556  0.00  0.00     0.151 C 
HETATM    6  C   UNK N   1      22.816  20.509   2.724  0.00  0.00     0.093 C 
HETATM    7  O   UNK N   1      20.606  20.944   3.388  0.00  0.00    -0.296 OA
ENDBRANCH   2   5
TORSDOF 2
ENDMDL
MODEL 9
REMARK VINA RESULT:      -3.2     12.547     13.208
REMARK  2 active torsions:
REMARK  status: ('A' for Active; 'I' for Inactive)
REMARK    1  A    between atoms: C_2  and  O_3 
REMARK    2  A    between atoms: C_2  and  C_4 
ROOT
HETATM    1  C   UNK N   1      32.445  17.923   8.331  0.00  0.00     0.047 C 
HETATM    2  C   UNK N   1      33.950  17.735   8.300  0.00  0.00     0.183 C 
ENDROOT
BRANCH   2   3
HETATM    3  O   UNK N   1      34.657  18.248   7.213  0.00  0.00    -0.388 OA
HETATM    4  H   UNK N   1      34.343  19.048   6.763  0.00  0.00     0.210 HD
ENDBRANCH   2   3
BRANCH   2   5
HETATM    5  C   UNK N   1      34.712  17.029   9.376  0.00  0.00     0.151 C 
HETATM    6  C   UNK N   1      34.532  15.563   9.578  0.00  0.00     0.093 C 
HETATM    7  O   UNK N   1      35.481  17.648  10.092  0.00  0.00    -0.296 OA
ENDBRANCH   2   5
TORSDOF 2
ENDMDL
