MODEL 1
REMARK VINA RESULT:      -7.4      0.000      0.000
REMARK  8 active torsions:
REMARK  status: ('A' for Active; 'I' for Inactive)
REMARK    1  A    between atoms: C_10  and  C_5 
REMARK    2  A    between atoms: O_22  and  C_5 
REMARK    3  A    between atoms: C_11  and  O_17 
REMARK    4  A    between atoms: C_12  and  O_18 
REMARK    5  A    between atoms: C_13  and  N_16 
REMARK    6  A    between atoms: P_24  and  O_19 
REMARK    7  A    between atoms: P_24  and  O_20 
REMARK    8  A    between atoms: P_24  and  O_22 
ROOT
HETATM    1  C   UNK N   1      21.172  17.469   3.875  0.00  0.00     0.180 C 
HETATM    2  C   UNK N   1      19.953  16.722   3.328  0.00  0.00     0.182 C 
HETATM    3  C   UNK N   1      19.645  15.721   4.459  0.00  0.00     0.198 C 
HETATM    4  C   UNK N   1      20.693  16.109   5.518  0.00  0.00     0.261 C 
HETATM    5  O   UNK N   1      20.995  17.462   5.271  0.00  0.00    -0.353 OA
ENDROOT
BRANCH   4   6
HETATM    6  N   UNK N   1      20.322  15.897   6.924  0.00  0.00    -0.311 N 
HETATM    7  C   UNK N   1      19.506  16.634   7.721  0.00  0.00     0.186 A 
HETATM    8  N   UNK N   1      19.415  16.100   8.970  0.00  0.00    -0.350 N 
HETATM    9  C   UNK N   1      20.201  15.010   8.929  0.00  0.00     0.060 A 
ATOM     10  HN  UNK N   1      18.873  16.449   9.760  1.00  0.00     0.166 HD
HETATM   11  C   UNK N   1      20.478  14.110   9.955  0.00  0.00     0.038 A 
HETATM   12  C   UNK N   1      20.746  14.882   7.692  0.00  0.00     0.064 A 
HETATM   13  C   UNK N   1      21.356  13.046   9.667  0.00  0.00    -0.060 A 
HETATM   14  C   UNK N   1      21.696  12.059  10.725  0.00  0.00     0.048 C 
HETATM   15  C   UNK N   1      21.921  12.913   8.377  0.00  0.00     0.009 A 
HETATM   16  C   UNK N   1      21.615  13.843   7.366  0.00  0.00     0.033 A 
ENDBRANCH   4   6
BRANCH   3  17
HETATM   17  O   UNK N   1      18.340  15.933   4.927  0.00  0.00    -0.388 OA
HETATM   18  H   UNK N   1      17.394  16.056   4.755  0.00  0.00     0.210 HD
ENDBRANCH   3  17
BRANCH   2  19
HETATM   19  O   UNK N   1      18.887  17.625   3.195  0.00  0.00    -0.390 OA
HETATM   20  H   UNK N   1      18.167  18.250   3.372  0.00  0.00     0.210 HD
ENDBRANCH   2  19
BRANCH   1  21
HETATM   21  C   UNK N   1      21.300  18.889   3.328  0.00  0.00     0.215 C 
BRANCH  21  22
HETATM   22  O   UNK N   1      21.242  18.893   1.927  0.00  0.00    -0.294 OA
BRANCH  22  23
HETATM   23  P   UNK N   1      20.643  20.460   1.451  0.00  0.00     0.390 P 
HETATM   24  O   UNK N   1      22.144  20.799   1.669  0.00  0.00    -0.632 OA
BRANCH  23  25
HETATM   25  O   UNK N   1      21.101  21.180  -0.061  0.00  0.00    -0.307 OA
HETATM   26  H   UNK N   1      20.808  20.825  -0.915  0.00  0.00     0.222 HD
ENDBRANCH  23  25
BRANCH  23  27
HETATM   27  O   UNK N   1      20.522  19.332   0.136  0.00  0.00    -0.307 OA
HETATM   28  H   UNK N   1      20.465  19.652  -0.778  0.00  0.00     0.222 HD
ENDBRANCH  23  27
ENDBRANCH  22  23
ENDBRANCH  21  22
ENDBRANCH   1  21
TORSDOF 8
ENDMDL
MODEL 2
REMARK VINA RESULT:      -7.3     14.703     16.307
REMARK  8 active torsions:
REMARK  status: ('A' for Active; 'I' for Inactive)
REMARK    1  A    between atoms: C_10  and  C_5 
REMARK    2  A    between atoms: O_22  and  C_5 
REMARK    3  A    between atoms: C_11  and  O_17 
REMARK    4  A    between atoms: C_12  and  O_18 
REMARK    5  A    between atoms: C_13  and  N_16 
REMARK    6  A    between atoms: P_24  and  O_19 
REMARK    7  A    between atoms: P_24  and  O_20 
REMARK    8  A    between atoms: P_24  and  O_22 
ROOT
HETATM    1  C   UNK N   1      34.689  15.532  11.065  0.00  0.00     0.180 C 
HETATM    2  C   UNK N   1      36.133  15.717  11.537  0.00  0.00     0.182 C 
HETATM    3  C   UNK N   1      36.281  14.603  12.592  0.00  0.00     0.198 C 
HETATM    4  C   UNK N   1      34.914  13.899  12.500  0.00  0.00     0.261 C 
HETATM    5  O   UNK N   1      34.447  14.152  11.196  0.00  0.00    -0.353 OA
ENDROOT
BRANCH   4   6
HETATM    6  N   UNK N   1      34.891  12.461  12.802  0.00  0.00    -0.311 N 
HETATM    7  C   UNK N   1      34.870  11.402  11.953  0.00  0.00     0.186 A 
HETATM    8  N   UNK N   1      34.855  10.220  12.630  0.00  0.00    -0.350 N 
HETATM    9  C   UNK N   1      34.864  10.575  13.926  0.00  0.00     0.060 A 
ATOM     10  HN  UNK N   1      34.839   9.278  12.241  1.00  0.00     0.166 HD
HETATM   11  C   UNK N   1      34.837   9.746  15.045  0.00  0.00     0.038 A 
HETATM   12  C   UNK N   1      34.891  11.928  14.034  0.00  0.00     0.064 A 
HETATM   13  C   UNK N   1      34.835  10.364  16.312  0.00  0.00    -0.060 A 
HETATM   14  C   UNK N   1      34.797   9.531  17.542  0.00  0.00     0.048 C 
HETATM   15  C   UNK N   1      34.865  11.774  16.422  0.00  0.00     0.009 A 
HETATM   16  C   UNK N   1      34.895  12.577  15.266  0.00  0.00     0.033 A 
ENDBRANCH   4   6
BRANCH   3  17
HETATM   17  O   UNK N   1      37.326  13.745  12.222  0.00  0.00    -0.388 OA
HETATM   18  H   UNK N   1      38.255  13.475  12.284  0.00  0.00     0.210 HD
ENDBRANCH   3  17
BRANCH   2  19
HETATM   19  O   UNK N   1      37.000  15.465  10.463  0.00  0.00    -0.390 OA
HETATM   20  H   UNK N   1      37.443  15.475   9.600  0.00  0.00     0.210 HD
ENDBRANCH   2  19
BRANCH   1  21
HETATM   21  C   UNK N   1      34.460  16.013   9.634  0.00  0.00     0.215 C 
BRANCH  21  22
HETATM   22  O   UNK N   1      34.809  17.365   9.497  0.00  0.00    -0.294 OA
BRANCH  22  23
HETATM   23  P   UNK N   1      33.864  17.999   8.177  0.00  0.00     0.390 P 
HETATM   24  O   UNK N   1      34.974  19.084   8.261  0.00  0.00    -0.632 OA
BRANCH  23  25
HETATM   25  O   UNK N   1      34.489  18.040   6.558  0.00  0.00    -0.307 OA
HETATM   26  H   UNK N   1      34.109  18.606   5.868  0.00  0.00     0.222 HD
ENDBRANCH  23  25
BRANCH  23  27
HETATM   27  O   UNK N   1      34.604  16.492   7.732  0.00  0.00    -0.307 OA
HETATM   28  H   UNK N   1      34.351  16.049   6.907  0.00  0.00     0.222 HD
ENDBRANCH  23  27
ENDBRANCH  22  23
ENDBRANCH  21  22
ENDBRANCH   1  21
TORSDOF 8
ENDMDL
MODEL 3
REMARK VINA RESULT:      -7.3      9.151     11.273
REMARK  8 active torsions:
REMARK  status: ('A' for Active; 'I' for Inactive)
REMARK    1  A    between atoms: C_10  and  C_5 
REMARK    2  A    between atoms: O_22  and  C_5 
REMARK    3  A    between atoms: C_11  and  O_17 
REMARK    4  A    between atoms: C_12  and  O_18 
REMARK    5  A    between atoms: C_13  and  N_16 
REMARK    6  A    between atoms: P_24  and  O_19 
REMARK    7  A    between atoms: P_24  and  O_20 
REMARK    8  A    between atoms: P_24  and  O_22 
ROOT
HETATM    1  C   UNK N   1      30.791  18.094   8.544  0.00  0.00     0.180 C 
HETATM    2  C   UNK N   1      29.819  18.415   9.682  0.00  0.00     0.182 C 
HETATM    3  C   UNK N   1      28.515  18.731   8.924  0.00  0.00     0.198 C 
HETATM    4  C   UNK N   1      28.926  18.460   7.464  0.00  0.00     0.261 C 
HETATM    5  O   UNK N   1      29.983  17.533   7.537  0.00  0.00    -0.353 OA
ENDROOT
BRANCH   4   6
HETATM    6  N   UNK N   1      27.870  17.989   6.558  0.00  0.00    -0.311 N 
HETATM    7  C   UNK N   1      27.346  16.744   6.417  0.00  0.00     0.186 A 
HETATM    8  N   UNK N   1      26.374  16.717   5.463  0.00  0.00    -0.350 N 
HETATM    9  C   UNK N   1      26.310  17.982   5.012  0.00  0.00     0.060 A 
ATOM     10  HN  UNK N   1      25.820  15.918   5.159  1.00  0.00     0.166 HD
HETATM   11  C   UNK N   1      25.488  18.499   4.014  0.00  0.00     0.038 A 
HETATM   12  C   UNK N   1      27.209  18.754   5.675  0.00  0.00     0.064 A 
HETATM   13  C   UNK N   1      25.622  19.868   3.705  0.00  0.00    -0.060 A 
HETATM   14  C   UNK N   1      24.778  20.473   2.641  0.00  0.00     0.048 C 
HETATM   15  C   UNK N   1      26.557  20.670   4.398  0.00  0.00     0.009 A 
HETATM   16  C   UNK N   1      27.368  20.111   5.403  0.00  0.00     0.033 A 
ENDBRANCH   4   6
BRANCH   3  17
HETATM   17  O   UNK N   1      27.507  17.852   9.345  0.00  0.00    -0.388 OA
HETATM   18  H   UNK N   1      26.884  17.549  10.023  0.00  0.00     0.210 HD
ENDBRANCH   3  17
BRANCH   2  19
HETATM   19  O   UNK N   1      29.641  17.267  10.468  0.00  0.00    -0.390 OA
HETATM   20  H   UNK N   1      29.737  16.569  11.135  0.00  0.00     0.210 HD
ENDBRANCH   2  19
BRANCH   1  21
HETATM   21  C   UNK N   1      31.912  17.145   8.963  0.00  0.00     0.215 C 
BRANCH  21  22
HETATM   22  O   UNK N   1      31.610  15.823   8.604  0.00  0.00    -0.294 OA
BRANCH  22  23
HETATM   23  P   UNK N   1      32.773  14.803   9.406  0.00  0.00     0.390 P 
HETATM   24  O   UNK N   1      33.614  16.101   9.250  0.00  0.00    -0.632 OA
BRANCH  23  25
HETATM   25  O   UNK N   1      33.289  15.128  11.032  0.00  0.00    -0.307 OA
HETATM   26  H   UNK N   1      34.060  14.694  11.429  0.00  0.00     0.222 HD
ENDBRANCH  23  25
BRANCH  23  27
HETATM   27  O   UNK N   1      31.431  15.143  10.454  0.00  0.00    -0.307 OA
HETATM   28  H   UNK N   1      30.595  14.662  10.349  0.00  0.00     0.222 HD
ENDBRANCH  23  27
ENDBRANCH  22  23
ENDBRANCH  21  22
ENDBRANCH   1  21
TORSDOF 8
ENDMDL
MODEL 4
REMARK VINA RESULT:      -7.2     15.480     17.419
REMARK  8 active torsions:
REMARK  status: ('A' for Active; 'I' for Inactive)
REMARK    1  A    between atoms: C_10  and  C_5 
REMARK    2  A    between atoms: O_22  and  C_5 
REMARK    3  A    between atoms: C_11  and  O_17 
REMARK    4  A    between atoms: C_12  and  O_18 
REMARK    5  A    between atoms: C_13  and  N_16 
REMARK    6  A    between atoms: P_24  and  O_19 
REMARK    7  A    between atoms: P_24  and  O_20 
REMARK    8  A    between atoms: P_24  and  O_22 
ROOT
HETATM    1  C   UNK N   1      35.621  12.564  11.418  0.00  0.00     0.180 C 
HETATM    2  C   UNK N   1      37.075  12.768  10.984  0.00  0.00     0.182 C 
HETATM    3  C   UNK N   1      36.941  13.813   9.860  0.00  0.00     0.198 C 
HETATM    4  C   UNK N   1      35.429  14.106   9.881  0.00  0.00     0.261 C 
HETATM    5  O   UNK N   1      35.006  13.810  11.191  0.00  0.00    -0.353 OA
ENDROOT
BRANCH   4   6
HETATM    6  N   UNK N   1      35.014  15.458   9.483  0.00  0.00    -0.311 N 
HETATM    7  C   UNK N   1      34.935  16.590  10.227  0.00  0.00     0.186 A 
HETATM    8  N   UNK N   1      34.505  17.647   9.484  0.00  0.00    -0.350 N 
HETATM    9  C   UNK N   1      34.315  17.139   8.254  0.00  0.00     0.060 A 
ATOM     10  HN  UNK N   1      34.359  18.608   9.791  1.00  0.00     0.166 HD
HETATM   11  C   UNK N   1      33.858  17.794   7.114  0.00  0.00     0.038 A 
HETATM   12  C   UNK N   1      34.626  15.817   8.249  0.00  0.00     0.064 A 
HETATM   13  C   UNK N   1      33.724  17.033   5.935  0.00  0.00    -0.060 A 
HETATM   14  C   UNK N   1      33.232  17.676   4.689  0.00  0.00     0.048 C 
HETATM   15  C   UNK N   1      34.051  15.656   5.931  0.00  0.00     0.009 A 
HETATM   16  C   UNK N   1      34.512  15.031   7.105  0.00  0.00     0.033 A 
ENDBRANCH   4   6
BRANCH   3  17
HETATM   17  O   UNK N   1      37.689  14.952  10.189  0.00  0.00    -0.388 OA
HETATM   18  H   UNK N   1      38.469  15.357  10.598  0.00  0.00     0.210 HD
ENDBRANCH   3  17
BRANCH   2  19
HETATM   19  O   UNK N   1      37.798  13.318  12.054  0.00  0.00    -0.390 OA
HETATM   20  H   UNK N   1      38.499  13.558  12.680  0.00  0.00     0.210 HD
ENDBRANCH   2  19
BRANCH   1  21
HETATM   21  C   UNK N   1      35.486  12.125  12.874  0.00  0.00     0.215 C 
BRANCH  21  22
HETATM   22  O   UNK N   1      34.943  13.153  13.659  0.00  0.00    -0.294 OA
BRANCH  22  23
HETATM   23  P   UNK N   1      35.911  13.249  15.105  0.00  0.00     0.390 P 
HETATM   24  O   UNK N   1      36.481  11.943  14.485  0.00  0.00    -0.632 OA
BRANCH  23  25
HETATM   25  O   UNK N   1      37.616  13.569  15.030  0.00  0.00    -0.307 OA
HETATM   26  H   UNK N   1      37.988  14.448  15.200  0.00  0.00     0.222 HD
ENDBRANCH  23  25
BRANCH  23  27
HETATM   27  O   UNK N   1      36.275  14.568  14.035  0.00  0.00    -0.307 OA
HETATM   28  H   UNK N   1      37.115  15.046  14.117  0.00  0.00     0.222 HD
ENDBRANCH  23  27
ENDBRANCH  22  23
ENDBRANCH  21  22
ENDBRANCH   1  21
TORSDOF 8
ENDMDL
MODEL 5
REMARK VINA RESULT:      -6.7      4.680      8.087
REMARK  8 active torsions:
REMARK  status: ('A' for Active; 'I' for Inactive)
REMARK    1  A    between atoms: C_10  and  C_5 
REMARK    2  A    between atoms: O_22  and  C_5 
REMARK    3  A    between atoms: C_11  and  O_17 
REMARK    4  A    between atoms: C_12  and  O_18 
REMARK    5  A    between atoms: C_13  and  N_16 
REMARK    6  A    between atoms: P_24  and  O_19 
REMARK    7  A    between atoms: P_24  and  O_20 
REMARK    8  A    between atoms: P_24  and  O_22 
ROOT
HETATM    1  C   UNK N   1      21.812  14.629   8.317  0.00  0.00     0.180 C 
HETATM    2  C   UNK N   1      20.662  15.349   9.025  0.00  0.00     0.182 C 
HETATM    3  C   UNK N   1      20.162  16.321   7.938  0.00  0.00     0.198 C 
HETATM    4  C   UNK N   1      21.058  15.945   6.743  0.00  0.00     0.261 C 
HETATM    5  O   UNK N   1      21.434  14.606   6.961  0.00  0.00    -0.353 OA
ENDROOT
BRANCH   4   6
HETATM    6  N   UNK N   1      20.480  16.122   5.404  0.00  0.00    -0.311 N 
HETATM    7  C   UNK N   1      19.713  15.271   4.676  0.00  0.00     0.186 A 
HETATM    8  N   UNK N   1      19.373  15.810   3.473  0.00  0.00    -0.350 N 
HETATM    9  C   UNK N   1      19.953  17.022   3.471  0.00  0.00     0.060 A 
ATOM     10  HN  UNK N   1      18.806  15.389   2.738  1.00  0.00     0.166 HD
HETATM   11  C   UNK N   1      19.936  17.983   2.464  0.00  0.00     0.038 A 
HETATM   12  C   UNK N   1      20.619  17.216   4.639  0.00  0.00     0.064 A 
HETATM   13  C   UNK N   1      20.642  19.181   2.695  0.00  0.00    -0.060 A 
HETATM   14  C   UNK N   1      20.667  20.239   1.651  0.00  0.00     0.048 C 
HETATM   15  C   UNK N   1      21.333  19.381   3.912  0.00  0.00     0.009 A 
HETATM   16  C   UNK N   1      21.326  18.386   4.908  0.00  0.00     0.033 A 
ENDBRANCH   4   6
BRANCH   3  17
HETATM   17  O   UNK N   1      18.811  16.063   7.668  0.00  0.00    -0.388 OA
HETATM   18  H   UNK N   1      17.918  15.842   7.975  0.00  0.00     0.210 HD
ENDBRANCH   3  17
BRANCH   2  19
HETATM   19  O   UNK N   1      19.655  14.419   9.324  0.00  0.00    -0.390 OA
HETATM   20  H   UNK N   1      18.801  13.970   9.429  0.00  0.00     0.210 HD
ENDBRANCH   2  19
BRANCH   1  21
HETATM   21  C   UNK N   1      22.062  13.223   8.858  0.00  0.00     0.215 C 
BRANCH  21  22
HETATM   22  O   UNK N   1      22.523  13.270  10.182  0.00  0.00    -0.294 OA
BRANCH  22  23
HETATM   23  P   UNK N   1      23.831  12.126  10.302  0.00  0.00     0.390 P 
HETATM   24  O   UNK N   1      24.607  13.369   9.785  0.00  0.00    -0.632 OA
BRANCH  23  25
HETATM   25  O   UNK N   1      25.090  12.315  11.483  0.00  0.00    -0.307 OA
HETATM   26  H   UNK N   1      25.294  11.630  12.140  0.00  0.00     0.222 HD
ENDBRANCH  23  25
BRANCH  23  27
HETATM   27  O   UNK N   1      23.192  12.493  11.875  0.00  0.00    -0.307 OA
HETATM   28  H   UNK N   1      22.324  12.152  12.141  0.00  0.00     0.222 HD
ENDBRANCH  23  27
ENDBRANCH  22  23
ENDBRANCH  21  22
ENDBRANCH   1  21
TORSDOF 8
ENDMDL
MODEL 6
REMARK VINA RESULT:      -6.5     16.686     18.126
REMARK  8 active torsions:
REMARK  status: ('A' for Active; 'I' for Inactive)
REMARK    1  A    between atoms: C_10  and  C_5 
REMARK    2  A    between atoms: O_22  and  C_5 
REMARK    3  A    between atoms: C_11  and  O_17 
REMARK    4  A    between atoms: C_12  and  O_18 
REMARK    5  A    between atoms: C_13  and  N_16 
REMARK    6  A    between atoms: P_24  and  O_19 
REMARK    7  A    between atoms: P_24  and  O_20 
REMARK    8  A    between atoms: P_24  and  O_22 
ROOT
HETATM    1  C   UNK N   1      36.564  12.144  12.285  0.00  0.00     0.180 C 
HETATM    2  C   UNK N   1      35.356  11.221  12.103  0.00  0.00     0.182 C 
HETATM    3  C   UNK N   1      35.020  10.829  13.555  0.00  0.00     0.198 C 
HETATM    4  C   UNK N   1      36.045  11.658  14.351  0.00  0.00     0.261 C 
HETATM    5  O   UNK N   1      36.355  12.760  13.533  0.00  0.00    -0.353 OA
ENDROOT
BRANCH   4   6
HETATM    6  N   UNK N   1      35.640  12.092  15.695  0.00  0.00    -0.311 N 
HETATM    7  C   UNK N   1      35.006  13.230  16.079  0.00  0.00     0.186 A 
HETATM    8  N   UNK N   1      34.806  13.259  17.426  0.00  0.00    -0.350 N 
HETATM    9  C   UNK N   1      35.337  12.107  17.871  0.00  0.00     0.060 A 
ATOM     10  HN  UNK N   1      34.355  13.990  17.975  1.00  0.00     0.166 HD
HETATM   11  C   UNK N   1      35.416  11.645  19.182  0.00  0.00     0.038 A 
HETATM   12  C   UNK N   1      35.838  11.397  16.826  0.00  0.00     0.064 A 
HETATM   13  C   UNK N   1      36.043  10.401  19.397  0.00  0.00    -0.060 A 
HETATM   14  C   UNK N   1      36.165   9.862  20.776  0.00  0.00     0.048 C 
HETATM   15  C   UNK N   1      36.562   9.663  18.308  0.00  0.00     0.009 A 
HETATM   16  C   UNK N   1      36.461  10.163  16.996  0.00  0.00     0.033 A 
ENDBRANCH   4   6
BRANCH   3  17
HETATM   17  O   UNK N   1      33.705  11.216  13.850  0.00  0.00    -0.388 OA
HETATM   18  H   UNK N   1      33.074  11.883  14.162  0.00  0.00     0.210 HD
ENDBRANCH   3  17
BRANCH   2  19
HETATM   19  O   UNK N   1      34.296  11.960  11.558  0.00  0.00    -0.390 OA
HETATM   20  H   UNK N   1      33.597  12.616  11.406  0.00  0.00     0.210 HD
ENDBRANCH   2  19
BRANCH   1  21
HETATM   21  C   UNK N   1      36.708  13.171  11.164  0.00  0.00     0.215 C 
BRANCH  21  22
HETATM   22  O   UNK N   1      36.436  14.465  11.633  0.00  0.00    -0.294 OA
BRANCH  22  23
HETATM   23  P   UNK N   1      35.430  15.235  10.437  0.00  0.00     0.390 P 
HETATM   24  O   UNK N   1      34.396  15.054  11.583  0.00  0.00    -0.632 OA
BRANCH  23  25
HETATM   25  O   UNK N   1      34.823  16.845  10.668  0.00  0.00    -0.307 OA
HETATM   26  H   UNK N   1      34.772  17.490   9.945  0.00  0.00     0.222 HD
ENDBRANCH  23  25
BRANCH  23  27
HETATM   27  O   UNK N   1      36.671  16.321  10.983  0.00  0.00    -0.307 OA
HETATM   28  H   UNK N   1      36.855  17.137  10.494  0.00  0.00     0.222 HD
ENDBRANCH  23  27
ENDBRANCH  22  23
ENDBRANCH  21  22
ENDBRANCH   1  21
TORSDOF 8
ENDMDL
MODEL 7
REMARK VINA RESULT:      -6.4     14.308     16.275
REMARK  8 active torsions:
REMARK  status: ('A' for Active; 'I' for Inactive)
REMARK    1  A    between atoms: C_10  and  C_5 
REMARK    2  A    between atoms: O_22  and  C_5 
REMARK    3  A    between atoms: C_11  and  O_17 
REMARK    4  A    between atoms: C_12  and  O_18 
REMARK    5  A    between atoms: C_13  and  N_16 
REMARK    6  A    between atoms: P_24  and  O_19 
REMARK    7  A    between atoms: P_24  and  O_20 
REMARK    8  A    between atoms: P_24  and  O_22 
ROOT
HETATM    1  C   UNK N   1      36.155  13.737  10.926  0.00  0.00     0.180 C 
HETATM    2  C   UNK N   1      35.245  14.632  11.772  0.00  0.00     0.182 C 
HETATM    3  C   UNK N   1      34.366  15.311  10.704  0.00  0.00     0.198 C 
HETATM    4  C   UNK N   1      34.859  14.633   9.411  0.00  0.00     0.261 C 
HETATM    5  O   UNK N   1      35.370  13.384   9.812  0.00  0.00    -0.353 OA
ENDROOT
BRANCH   4   6
HETATM    6  N   UNK N   1      33.876  14.482   8.329  0.00  0.00    -0.311 N 
HETATM    7  C   UNK N   1      33.059  13.435   8.047  0.00  0.00     0.186 A 
HETATM    8  N   UNK N   1      32.288  13.686   6.953  0.00  0.00    -0.350 N 
HETATM    9  C   UNK N   1      32.650  14.919   6.561  0.00  0.00     0.060 A 
ATOM     10  HN  UNK N   1      31.591  13.075   6.527  1.00  0.00     0.166 HD
HETATM   11  C   UNK N   1      32.178  15.650   5.474  0.00  0.00     0.038 A 
HETATM   12  C   UNK N   1      33.606  15.405   7.394  0.00  0.00     0.064 A 
HETATM   13  C   UNK N   1      32.732  16.927   5.258  0.00  0.00    -0.060 A 
HETATM   14  C   UNK N   1      32.274  17.749   4.108  0.00  0.00     0.048 C 
HETATM   15  C   UNK N   1      33.727  17.432   6.128  0.00  0.00     0.009 A 
HETATM   16  C   UNK N   1      34.176  16.664   7.218  0.00  0.00     0.033 A 
ENDBRANCH   4   6
BRANCH   3  17
HETATM   17  O   UNK N   1      33.018  15.018  10.955  0.00  0.00    -0.388 OA
HETATM   18  H   UNK N   1      32.174  14.630  10.675  0.00  0.00     0.210 HD
ENDBRANCH   3  17
BRANCH   2  19
HETATM   19  O   UNK N   1      34.447  13.823  12.594  0.00  0.00    -0.390 OA
HETATM   20  H   UNK N   1      34.134  13.159  13.229  0.00  0.00     0.210 HD
ENDBRANCH   2  19
BRANCH   1  21
HETATM   21  C   UNK N   1      36.653  12.505  11.679  0.00  0.00     0.215 C 
BRANCH  21  22
HETATM   22  O   UNK N   1      35.932  11.362  11.303  0.00  0.00    -0.294 OA
BRANCH  22  23
HETATM   23  P   UNK N   1      35.589  10.478  12.764  0.00  0.00     0.390 P 
HETATM   24  O   UNK N   1      36.386  11.675  13.354  0.00  0.00    -0.632 OA
BRANCH  23  25
HETATM   25  O   UNK N   1      34.507  11.107  13.968  0.00  0.00    -0.307 OA
HETATM   26  H   UNK N   1      34.822  11.592  14.747  0.00  0.00     0.222 HD
ENDBRANCH  23  25
BRANCH  23  27
HETATM   27  O   UNK N   1      34.123  11.088  12.060  0.00  0.00    -0.307 OA
HETATM   28  H   UNK N   1      33.945  12.041  12.053  0.00  0.00     0.222 HD
ENDBRANCH  23  27
ENDBRANCH  22  23
ENDBRANCH  21  22
ENDBRANCH   1  21
TORSDOF 8
ENDMDL
MODEL 8
REMARK VINA RESULT:      -6.4     15.624     17.680
REMARK  8 active torsions:
REMARK  status: ('A' for Active; 'I' for Inactive)
REMARK    1  A    between atoms: C_10  and  C_5 
REMARK    2  A    between atoms: O_22  and  C_5 
REMARK    3  A    between atoms: C_11  and  O_17 
REMARK    4  A    between atoms: C_12  and  O_18 
REMARK    5  A    between atoms: C_13  and  N_16 
REMARK    6  A    between atoms: P_24  and  O_19 
REMARK    7  A    between atoms: P_24  and  O_20 
REMARK    8  A    between atoms: P_24  and  O_22 
ROOT
HETATM    1  C   UNK N   1      34.994  14.151  12.910  0.00  0.00     0.180 C 
HETATM    2  C   UNK N   1      36.458  14.382  13.292  0.00  0.00     0.182 C 
HETATM    3  C   UNK N   1      36.583  13.597  14.612  0.00  0.00     0.198 C 
HETATM    4  C   UNK N   1      35.182  12.968  14.739  0.00  0.00     0.261 C 
HETATM    5  O   UNK N   1      34.691  12.875  13.422  0.00  0.00    -0.353 OA
ENDROOT
BRANCH   4   6
HETATM    6  N   UNK N   1      35.100  11.674  15.428  0.00  0.00    -0.311 N 
HETATM    7  C   UNK N   1      34.968  10.426  14.908  0.00  0.00     0.186 A 
HETATM    8  N   UNK N   1      34.931   9.480  15.886  0.00  0.00    -0.350 N 
HETATM    9  C   UNK N   1      35.041  10.174  17.032  0.00  0.00     0.060 A 
ATOM     10  HN  UNK N   1      34.840   8.470  15.775  1.00  0.00     0.166 HD
HETATM   11  C   UNK N   1      35.040   9.688  18.337  0.00  0.00     0.038 A 
HETATM   12  C   UNK N   1      35.149  11.500  16.758  0.00  0.00     0.064 A 
HETATM   13  C   UNK N   1      35.152  10.627  19.381  0.00  0.00    -0.060 A 
HETATM   14  C   UNK N   1      35.146  10.168  20.795  0.00  0.00     0.048 C 
HETATM   15  C   UNK N   1      35.266  12.008  19.094  0.00  0.00     0.009 A 
HETATM   16  C   UNK N   1      35.266  12.460  17.761  0.00  0.00     0.033 A 
ENDBRANCH   4   6
BRANCH   3  17
HETATM   17  O   UNK N   1      37.575  12.616  14.480  0.00  0.00    -0.388 OA
HETATM   18  H   UNK N   1      38.503  12.344  14.544  0.00  0.00     0.210 HD
ENDBRANCH   3  17
BRANCH   2  19
HETATM   19  O   UNK N   1      37.281  13.797  12.317  0.00  0.00    -0.390 OA
HETATM   20  H   UNK N   1      37.996  13.325  11.861  0.00  0.00     0.210 HD
ENDBRANCH   2  19
BRANCH   1  21
HETATM   21  C   UNK N   1      34.747  14.228  11.405  0.00  0.00     0.215 C 
BRANCH  21  22
HETATM   22  O   UNK N   1      35.086  15.494  10.906  0.00  0.00    -0.294 OA
BRANCH  22  23
HETATM   23  P   UNK N   1      34.276  15.667   9.373  0.00  0.00     0.390 P 
HETATM   24  O   UNK N   1      33.158  14.964  10.192  0.00  0.00    -0.632 OA
BRANCH  23  25
HETATM   25  O   UNK N   1      32.925  16.740   9.181  0.00  0.00    -0.307 OA
HETATM   26  H   UNK N   1      32.542  17.232   9.925  0.00  0.00     0.222 HD
ENDBRANCH  23  25
BRANCH  23  27
HETATM   27  O   UNK N   1      34.581  17.222  10.082  0.00  0.00    -0.307 OA
HETATM   28  H   UNK N   1      35.051  17.905   9.579  0.00  0.00     0.222 HD
ENDBRANCH  23  27
ENDBRANCH  22  23
ENDBRANCH  21  22
ENDBRANCH   1  21
TORSDOF 8
ENDMDL
MODEL 9
REMARK VINA RESULT:      -6.1     12.143     13.899
REMARK  8 active torsions:
REMARK  status: ('A' for Active; 'I' for Inactive)
REMARK    1  A    between atoms: C_10  and  C_5 
REMARK    2  A    between atoms: O_22  and  C_5 
REMARK    3  A    between atoms: C_11  and  O_17 
REMARK    4  A    between atoms: C_12  and  O_18 
REMARK    5  A    between atoms: C_13  and  N_16 
REMARK    6  A    between atoms: P_24  and  O_19 
REMARK    7  A    between atoms: P_24  and  O_20 
REMARK    8  A    between atoms: P_24  and  O_22 
ROOT
HETATM    1  C   UNK N   1      33.527  15.256   9.283  0.00  0.00     0.180 C 
HETATM    2  C   UNK N   1      34.280  16.429   8.651  0.00  0.00     0.182 C 
HETATM    3  C   UNK N   1      33.184  17.109   7.808  0.00  0.00     0.198 C 
HETATM    4  C   UNK N   1      31.947  16.259   8.154  0.00  0.00     0.261 C 
HETATM    5  O   UNK N   1      32.206  15.719   9.429  0.00  0.00    -0.353 OA
ENDROOT
BRANCH   4   6
HETATM    6  N   UNK N   1      30.647  16.943   8.122  0.00  0.00    -0.311 N 
HETATM    7  C   UNK N   1      29.847  17.324   9.152  0.00  0.00     0.186 A 
HETATM    8  N   UNK N   1      28.716  17.937   8.704  0.00  0.00    -0.350 N 
HETATM    9  C   UNK N   1      28.833  17.924   7.365  0.00  0.00     0.060 A 
ATOM     10  HN  UNK N   1      27.952  18.319   9.260  1.00  0.00     0.166 HD
HETATM   11  C   UNK N   1      27.936  18.411   6.419  0.00  0.00     0.038 A 
HETATM   12  C   UNK N   1      30.001  17.329   7.011  0.00  0.00     0.064 A 
HETATM   13  C   UNK N   1      28.280  18.263   5.060  0.00  0.00    -0.060 A 
HETATM   14  C   UNK N   1      27.357  18.756   4.004  0.00  0.00     0.048 C 
HETATM   15  C   UNK N   1      29.498  17.645   4.692  0.00  0.00     0.009 A 
HETATM   16  C   UNK N   1      30.380  17.167   5.680  0.00  0.00     0.033 A 
ENDBRANCH   4   6
BRANCH   3  17
HETATM   17  O   UNK N   1      33.028  18.438   8.228  0.00  0.00    -0.388 OA
HETATM   18  H   UNK N   1      32.922  19.089   8.938  0.00  0.00     0.210 HD
ENDBRANCH   3  17
BRANCH   2  19
HETATM   19  O   UNK N   1      34.700  17.302   9.667  0.00  0.00    -0.390 OA
HETATM   20  H   UNK N   1      35.086  17.675  10.475  0.00  0.00     0.210 HD
ENDBRANCH   2  19
BRANCH   1  21
HETATM   21  C   UNK N   1      34.120  14.812  10.618  0.00  0.00     0.215 C 
BRANCH  21  22
HETATM   22  O   UNK N   1      34.966  13.705  10.447  0.00  0.00    -0.294 OA
BRANCH  22  23
HETATM   23  P   UNK N   1      36.130  13.754  11.743  0.00  0.00     0.390 P 
HETATM   24  O   UNK N   1      36.418  15.125  11.070  0.00  0.00    -0.632 OA
BRANCH  23  25
HETATM   25  O   UNK N   1      35.968  14.874  13.060  0.00  0.00    -0.307 OA
HETATM   26  H   UNK N   1      35.265  14.797  13.724  0.00  0.00     0.222 HD
ENDBRANCH  23  25
BRANCH  23  27
HETATM   27  O   UNK N   1      34.511  13.782  12.372  0.00  0.00    -0.307 OA
HETATM   28  H   UNK N   1      33.925  14.530  12.179  0.00  0.00     0.222 HD
ENDBRANCH  23  27
ENDBRANCH  22  23
ENDBRANCH  21  22
ENDBRANCH   1  21
TORSDOF 8
ENDMDL
