MODEL 1
REMARK VINA RESULT:      -6.1      0.000      0.000
REMARK  17 active torsions:
REMARK  status: ('A' for Active; 'I' for Inactive)
REMARK    1  A    between atoms: O_1  and  C_2 
REMARK    2  A    between atoms: C_2  and  C_3 
REMARK    3  A    between atoms: C_3  and  O_4 
REMARK    4  A    between atoms: C_3  and  C_5 
REMARK    5  A    between atoms: C_5  and  O_6 
REMARK    6  A    between atoms: C_5  and  C_7 
REMARK    7  A    between atoms: C_7  and  O_8 
REMARK    8  A    between atoms: C_7  and  C_9 
REMARK    9  A    between atoms: C_9  and  N_10 
REMARK   10  A    between atoms: N_13  and  C_14 
REMARK   11  A    between atoms: C_14  and  C_15 
REMARK   12  A    between atoms: C_15  and  C_16 
REMARK   13  A    between atoms: C_16  and  C_17 
REMARK   14  A    between atoms: C_17  and  O_18 
REMARK   15  A    between atoms: O_18  and  P_19 
REMARK   16  A    between atoms: P_19  and  O_20 
REMARK   17  A    between atoms: P_19  and  O_21 
ROOT
HETATM    1  N   UNK N   1      30.153  16.415   5.778  0.00  0.00    -0.280 N 
HETATM    2  C   UNK N   1      31.391  16.143   5.272  0.00  0.00     0.331 A 
HETATM    3  O   UNK N   1      31.588  15.516   4.246  0.00  0.00    -0.246 OA
HETATM    4  N   UNK N   1      32.383  16.595   6.093  0.00  0.00    -0.291 N 
HETATM    5  C   UNK N   1      31.740  17.180   7.126  0.00  0.00     0.152 A 
HETATM    6  C   UNK N   1      30.396  17.077   6.926  0.00  0.00     0.148 A 
HETATM    7  N   UNK N   1      29.493  17.540   7.821  0.00  0.00    -0.292 N 
HETATM    8  C   UNK N   1      29.953  18.159   8.961  0.00  0.00     0.328 A 
HETATM    9  O   UNK N   1      29.161  18.606   9.769  0.00  0.00    -0.247 OA
HETATM   10  N   UNK N   1      31.313  18.271   9.191  0.00  0.00    -0.273 N 
HETATM   11  C   UNK N   1      32.226  17.778   8.284  0.00  0.00     0.280 A 
HETATM   12  O   UNK N   1      33.419  17.858   8.507  0.00  0.00    -0.265 OA
HETATM   13  H   UNK N   1      28.527  17.436   7.659  0.00  0.00     0.172 HD
HETATM   14  H   UNK N   1      31.633  18.707  10.013  0.00  0.00     0.173 HD
ENDROOT
BRANCH   1  15
HETATM   15  C   UNK N   1      28.882  15.909   5.260  0.00  0.00     0.170 C 
BRANCH  15  16
HETATM   16  C   UNK N   1      28.168  16.745   4.197  0.00  0.00     0.168 C 
BRANCH  16  17
HETATM   17  C   UNK N   1      27.277  17.781   4.902  0.00  0.00     0.179 C 
BRANCH  17  18
HETATM   18  C   UNK N   1      27.872  19.192   5.105  0.00  0.00     0.173 C 
BRANCH  18  19
HETATM   19  C   UNK N   1      27.016  19.998   6.067  0.00  0.00     0.198 C 
BRANCH  19  20
HETATM   20  O   UNK N   1      27.350  19.692   7.388  0.00  0.00    -0.398 OA
HETATM   21  H   UNK N   1      27.479  20.026   8.290  0.00  0.00     0.209 HD
ENDBRANCH  19  20
ENDBRANCH  18  19
BRANCH  18  22
HETATM   22  O   UNK N   1      28.046  19.906   3.919  0.00  0.00    -0.391 OA
HETATM   23  H   UNK N   1      28.902  19.908   3.461  0.00  0.00     0.210 HD
ENDBRANCH  18  22
ENDBRANCH  17  18
BRANCH  17  24
HETATM   24  O   UNK N   1      26.849  17.290   6.138  0.00  0.00    -0.390 OA
HETATM   25  H   UNK N   1      26.860  16.350   6.377  0.00  0.00     0.210 HD
ENDBRANCH  17  24
ENDBRANCH  16  17
BRANCH  16  26
HETATM   26  O   UNK N   1      29.037  17.389   3.314  0.00  0.00    -0.391 OA
HETATM   27  H   UNK N   1      29.612  18.140   3.527  0.00  0.00     0.210 HD
ENDBRANCH  16  26
ENDBRANCH  15  16
ENDBRANCH   1  15
BRANCH   4  28
HETATM   28  C   UNK N   1      33.810  16.375   5.921  0.00  0.00     0.134 C 
BRANCH  28  29
HETATM   29  C   UNK N   1      34.145  14.972   6.411  0.00  0.00     0.022 C 
BRANCH  29  30
HETATM   30  C   UNK N   1      35.201  14.998   7.500  0.00  0.00     0.028 C 
BRANCH  30  31
HETATM   31  C   UNK N   1      34.579  14.709   8.854  0.00  0.00     0.180 C 
BRANCH  31  32
HETATM   32  O   UNK N   1      35.602  14.500   9.813  0.00  0.00    -0.297 OA
BRANCH  32  33
HETATM   33  P   UNK N   1      35.471  15.544  11.247  0.00  0.00     0.390 P 
HETATM   34  O   UNK N   1      36.657  16.298  10.580  0.00  0.00    -0.632 OA
BRANCH  33  35
HETATM   35  O   UNK N   1      34.930  17.166  10.949  0.00  0.00    -0.307 OA
HETATM   36  H   UNK N   1      35.223  17.883  10.365  0.00  0.00     0.222 HD
ENDBRANCH  33  35
BRANCH  33  37
HETATM   37  O   UNK N   1      33.883  15.660  10.538  0.00  0.00    -0.307 OA
HETATM   38  H   UNK N   1      33.123  16.118  10.929  0.00  0.00     0.222 HD
ENDBRANCH  33  37
ENDBRANCH  32  33
ENDBRANCH  31  32
ENDBRANCH  30  31
ENDBRANCH  29  30
ENDBRANCH  28  29
ENDBRANCH   4  28
TORSDOF 17
ENDMDL
MODEL 2
REMARK VINA RESULT:      -5.9      5.825      8.556
REMARK  17 active torsions:
REMARK  status: ('A' for Active; 'I' for Inactive)
REMARK    1  A    between atoms: O_1  and  C_2 
REMARK    2  A    between atoms: C_2  and  C_3 
REMARK    3  A    between atoms: C_3  and  O_4 
REMARK    4  A    between atoms: C_3  and  C_5 
REMARK    5  A    between atoms: C_5  and  O_6 
REMARK    6  A    between atoms: C_5  and  C_7 
REMARK    7  A    between atoms: C_7  and  O_8 
REMARK    8  A    between atoms: C_7  and  C_9 
REMARK    9  A    between atoms: C_9  and  N_10 
REMARK   10  A    between atoms: N_13  and  C_14 
REMARK   11  A    between atoms: C_14  and  C_15 
REMARK   12  A    between atoms: C_15  and  C_16 
REMARK   13  A    between atoms: C_16  and  C_17 
REMARK   14  A    between atoms: C_17  and  O_18 
REMARK   15  A    between atoms: O_18  and  P_19 
REMARK   16  A    between atoms: P_19  and  O_20 
REMARK   17  A    between atoms: P_19  and  O_21 
ROOT
HETATM    1  N   UNK N   1      22.620  19.489   3.841  0.00  0.00    -0.280 N 
HETATM    2  C   UNK N   1      23.827  19.944   3.397  0.00  0.00     0.331 A 
HETATM    3  O   UNK N   1      23.966  20.891   2.643  0.00  0.00    -0.246 OA
HETATM    4  N   UNK N   1      24.856  19.164   3.841  0.00  0.00    -0.291 N 
HETATM    5  C   UNK N   1      24.269  18.212   4.597  0.00  0.00     0.152 A 
HETATM    6  C   UNK N   1      22.923  18.418   4.602  0.00  0.00     0.148 A 
HETATM    7  N   UNK N   1      22.065  17.594   5.247  0.00  0.00    -0.292 N 
HETATM    8  C   UNK N   1      22.580  16.523   5.943  0.00  0.00     0.328 A 
HETATM    9  O   UNK N   1      21.832  15.781   6.551  0.00  0.00    -0.247 OA
HETATM   10  N   UNK N   1      23.943  16.288   5.949  0.00  0.00    -0.273 N 
HETATM   11  C   UNK N   1      24.807  17.121   5.271  0.00  0.00     0.280 A 
HETATM   12  O   UNK N   1      26.002  16.892   5.261  0.00  0.00    -0.265 OA
HETATM   13  H   UNK N   1      21.095  17.756   5.219  0.00  0.00     0.172 HD
HETATM   14  H   UNK N   1      24.302  15.514   6.442  0.00  0.00     0.173 HD
ENDROOT
BRANCH   1  15
HETATM   15  C   UNK N   1      21.308  19.965   3.406  0.00  0.00     0.170 C 
BRANCH  15  16
HETATM   16  C   UNK N   1      20.707  19.334   2.149  0.00  0.00     0.168 C 
BRANCH  16  17
HETATM   17  C   UNK N   1      19.765  18.196   2.572  0.00  0.00     0.179 C 
BRANCH  17  18
HETATM   18  C   UNK N   1      20.079  16.787   2.022  0.00  0.00     0.173 C 
BRANCH  18  19
HETATM   19  C   UNK N   1      19.625  16.665   0.578  0.00  0.00     0.198 C 
BRANCH  19  20
HETATM   20  O   UNK N   1      20.275  17.611  -0.217  0.00  0.00    -0.398 OA
HETATM   21  H   UNK N   1      21.031  18.214  -0.307  0.00  0.00     0.209 HD
ENDBRANCH  19  20
ENDBRANCH  18  19
BRANCH  18  22
HETATM   22  O   UNK N   1      19.527  15.751   2.778  0.00  0.00    -0.391 OA
HETATM   23  H   UNK N   1      19.259  14.919   2.358  0.00  0.00     0.210 HD
ENDBRANCH  18  22
ENDBRANCH  17  18
BRANCH  17  24
HETATM   24  O   UNK N   1      18.443  18.518   2.257  0.00  0.00    -0.390 OA
HETATM   25  H   UNK N   1      18.065  19.405   2.365  0.00  0.00     0.210 HD
ENDBRANCH  17  24
ENDBRANCH  16  17
BRANCH  16  26
HETATM   26  O   UNK N   1      20.022  20.242   1.340  0.00  0.00    -0.391 OA
HETATM   27  H   UNK N   1      19.711  20.077   0.436  0.00  0.00     0.210 HD
ENDBRANCH  16  26
ENDBRANCH  15  16
ENDBRANCH   1  15
BRANCH   4  28
HETATM   28  C   UNK N   1      26.255  19.290   3.467  0.00  0.00     0.134 C 
BRANCH  28  29
HETATM   29  C   UNK N   1      26.880  20.404   4.300  0.00  0.00     0.022 C 
BRANCH  29  30
HETATM   30  C   UNK N   1      27.965  19.872   5.217  0.00  0.00     0.028 C 
BRANCH  30  31
HETATM   31  C   UNK N   1      27.408  19.597   6.601  0.00  0.00     0.180 C 
BRANCH  31  32
HETATM   32  O   UNK N   1      28.461  19.224   7.473  0.00  0.00    -0.297 OA
BRANCH  32  33
HETATM   33  P   UNK N   1      28.348  17.551   8.067  0.00  0.00     0.390 P 
HETATM   34  O   UNK N   1      29.901  17.618   8.001  0.00  0.00    -0.632 OA
BRANCH  33  35
HETATM   35  O   UNK N   1      28.930  17.287   9.681  0.00  0.00    -0.307 OA
HETATM   36  H   UNK N   1      28.533  16.953  10.500  0.00  0.00     0.222 HD
ENDBRANCH  33  35
BRANCH  33  37
HETATM   37  O   UNK N   1      27.511  18.456   9.299  0.00  0.00    -0.307 OA
HETATM   38  H   UNK N   1      27.507  18.249  10.246  0.00  0.00     0.222 HD
ENDBRANCH  33  37
ENDBRANCH  32  33
ENDBRANCH  31  32
ENDBRANCH  30  31
ENDBRANCH  29  30
ENDBRANCH  28  29
ENDBRANCH   4  28
TORSDOF 17
ENDMDL
MODEL 3
REMARK VINA RESULT:      -5.8      5.758      8.853
REMARK  17 active torsions:
REMARK  status: ('A' for Active; 'I' for Inactive)
REMARK    1  A    between atoms: O_1  and  C_2 
REMARK    2  A    between atoms: C_2  and  C_3 
REMARK    3  A    between atoms: C_3  and  O_4 
REMARK    4  A    between atoms: C_3  and  C_5 
REMARK    5  A    between atoms: C_5  and  O_6 
REMARK    6  A    between atoms: C_5  and  C_7 
REMARK    7  A    between atoms: C_7  and  O_8 
REMARK    8  A    between atoms: C_7  and  C_9 
REMARK    9  A    between atoms: C_9  and  N_10 
REMARK   10  A    between atoms: N_13  and  C_14 
REMARK   11  A    between atoms: C_14  and  C_15 
REMARK   12  A    between atoms: C_15  and  C_16 
REMARK   13  A    between atoms: C_16  and  C_17 
REMARK   14  A    between atoms: C_17  and  O_18 
REMARK   15  A    between atoms: O_18  and  P_19 
REMARK   16  A    between atoms: P_19  and  O_20 
REMARK   17  A    between atoms: P_19  and  O_21 
ROOT
HETATM    1  N   UNK N   1      23.396  17.168   4.402  0.00  0.00    -0.280 N 
HETATM    2  C   UNK N   1      24.657  17.687   4.430  0.00  0.00     0.331 A 
HETATM    3  O   UNK N   1      25.622  17.114   4.905  0.00  0.00    -0.246 OA
HETATM    4  N   UNK N   1      24.694  18.956   3.930  0.00  0.00    -0.291 N 
HETATM    5  C   UNK N   1      23.422  19.221   3.563  0.00  0.00     0.152 A 
HETATM    6  C   UNK N   1      22.645  18.137   3.841  0.00  0.00     0.148 A 
HETATM    7  N   UNK N   1      21.311  18.124   3.617  0.00  0.00    -0.292 N 
HETATM    8  C   UNK N   1      20.726  19.241   3.065  0.00  0.00     0.328 A 
HETATM    9  O   UNK N   1      19.531  19.246   2.831  0.00  0.00    -0.247 OA
HETATM   10  N   UNK N   1      21.490  20.358   2.780  0.00  0.00    -0.273 N 
HETATM   11  C   UNK N   1      22.845  20.370   3.030  0.00  0.00     0.280 A 
HETATM   12  O   UNK N   1      23.506  21.366   2.800  0.00  0.00    -0.265 OA
HETATM   13  H   UNK N   1      20.771  17.333   3.844  0.00  0.00     0.172 HD
HETATM   14  H   UNK N   1      21.061  21.156   2.393  0.00  0.00     0.173 HD
ENDROOT
BRANCH   1  15
HETATM   15  C   UNK N   1      22.964  15.920   5.030  0.00  0.00     0.170 C 
BRANCH  15  16
HETATM   16  C   UNK N   1      22.632  15.956   6.522  0.00  0.00     0.168 C 
BRANCH  16  17
HETATM   17  C   UNK N   1      21.112  16.120   6.684  0.00  0.00     0.179 C 
BRANCH  17  18
HETATM   18  C   UNK N   1      20.215  15.255   5.773  0.00  0.00     0.173 C 
BRANCH  18  19
HETATM   19  C   UNK N   1      18.879  15.938   5.534  0.00  0.00     0.198 C 
BRANCH  19  20
HETATM   20  O   UNK N   1      18.872  16.567   4.287  0.00  0.00    -0.398 OA
HETATM   21  H   UNK N   1      19.391  17.025   3.607  0.00  0.00     0.209 HD
ENDBRANCH  19  20
ENDBRANCH  18  19
BRANCH  18  22
HETATM   22  O   UNK N   1      20.001  13.962   6.255  0.00  0.00    -0.391 OA
HETATM   23  H   UNK N   1      19.636  13.817   7.142  0.00  0.00     0.210 HD
ENDBRANCH  18  22
ENDBRANCH  17  18
BRANCH  17  24
HETATM   24  O   UNK N   1      20.751  17.461   6.530  0.00  0.00    -0.390 OA
HETATM   25  H   UNK N   1      21.196  18.194   6.983  0.00  0.00     0.210 HD
ENDBRANCH  17  24
ENDBRANCH  16  17
BRANCH  16  26
HETATM   26  O   UNK N   1      23.065  14.826   7.218  0.00  0.00    -0.391 OA
HETATM   27  H   UNK N   1      22.858  13.905   6.996  0.00  0.00     0.210 HD
ENDBRANCH  16  26
ENDBRANCH  15  16
ENDBRANCH   1  15
BRANCH   4  28
HETATM   28  C   UNK N   1      25.845  19.844   3.916  0.00  0.00     0.134 C 
BRANCH  28  29
HETATM   29  C   UNK N   1      25.967  20.498   5.287  0.00  0.00     0.022 C 
BRANCH  29  30
HETATM   30  C   UNK N   1      27.407  20.533   5.762  0.00  0.00     0.028 C 
BRANCH  30  31
HETATM   31  C   UNK N   1      27.578  19.691   7.013  0.00  0.00     0.180 C 
BRANCH  31  32
HETATM   32  O   UNK N   1      28.560  18.694   6.786  0.00  0.00    -0.297 OA
BRANCH  32  33
HETATM   33  P   UNK N   1      28.729  17.531   8.121  0.00  0.00     0.390 P 
HETATM   34  O   UNK N   1      28.902  18.819   8.977  0.00  0.00    -0.632 OA
BRANCH  33  35
HETATM   35  O   UNK N   1      27.443  17.534   9.286  0.00  0.00    -0.307 OA
HETATM   36  H   UNK N   1      26.655  16.987   9.430  0.00  0.00     0.222 HD
ENDBRANCH  33  35
BRANCH  33  37
HETATM   37  O   UNK N   1      27.159  17.147   7.470  0.00  0.00    -0.307 OA
HETATM   38  H   UNK N   1      26.696  16.302   7.575  0.00  0.00     0.222 HD
ENDBRANCH  33  37
ENDBRANCH  32  33
ENDBRANCH  31  32
ENDBRANCH  30  31
ENDBRANCH  29  30
ENDBRANCH  28  29
ENDBRANCH   4  28
TORSDOF 17
ENDMDL
MODEL 4
REMARK VINA RESULT:      -5.8      4.204      8.657
REMARK  17 active torsions:
REMARK  status: ('A' for Active; 'I' for Inactive)
REMARK    1  A    between atoms: O_1  and  C_2 
REMARK    2  A    between atoms: C_2  and  C_3 
REMARK    3  A    between atoms: C_3  and  O_4 
REMARK    4  A    between atoms: C_3  and  C_5 
REMARK    5  A    between atoms: C_5  and  O_6 
REMARK    6  A    between atoms: C_5  and  C_7 
REMARK    7  A    between atoms: C_7  and  O_8 
REMARK    8  A    between atoms: C_7  and  C_9 
REMARK    9  A    between atoms: C_9  and  N_10 
REMARK   10  A    between atoms: N_13  and  C_14 
REMARK   11  A    between atoms: C_14  and  C_15 
REMARK   12  A    between atoms: C_15  and  C_16 
REMARK   13  A    between atoms: C_16  and  C_17 
REMARK   14  A    between atoms: C_17  and  O_18 
REMARK   15  A    between atoms: O_18  and  P_19 
REMARK   16  A    between atoms: P_19  and  O_20 
REMARK   17  A    between atoms: P_19  and  O_21 
ROOT
HETATM    1  N   UNK N   1      29.684  16.908   5.912  0.00  0.00    -0.280 N 
HETATM    2  C   UNK N   1      29.253  17.578   4.804  0.00  0.00     0.331 A 
HETATM    3  O   UNK N   1      29.624  17.333   3.670  0.00  0.00    -0.246 OA
HETATM    4  N   UNK N   1      28.413  18.603   5.127  0.00  0.00    -0.291 N 
HETATM    5  C   UNK N   1      28.306  18.553   6.472  0.00  0.00     0.152 A 
HETATM    6  C   UNK N   1      29.066  17.524   6.939  0.00  0.00     0.148 A 
HETATM    7  N   UNK N   1      29.187  17.253   8.259  0.00  0.00    -0.292 N 
HETATM    8  C   UNK N   1      28.494  18.034   9.157  0.00  0.00     0.328 A 
HETATM    9  O   UNK N   1      28.567  17.795  10.348  0.00  0.00    -0.247 OA
HETATM   10  N   UNK N   1      27.720  19.089   8.709  0.00  0.00    -0.273 N 
HETATM   11  C   UNK N   1      27.619  19.371   7.364  0.00  0.00     0.280 A 
HETATM   12  O   UNK N   1      26.956  20.316   6.981  0.00  0.00    -0.265 OA
HETATM   13  H   UNK N   1      29.758  16.514   8.570  0.00  0.00     0.172 HD
HETATM   14  H   UNK N   1      27.235  19.647   9.360  0.00  0.00     0.173 HD
ENDROOT
BRANCH   1  15
HETATM   15  C   UNK N   1      30.732  15.889   5.948  0.00  0.00     0.170 C 
BRANCH  15  16
HETATM   16  C   UNK N   1      32.184  16.366   5.931  0.00  0.00     0.168 C 
BRANCH  16  17
HETATM   17  C   UNK N   1      32.551  16.877   7.334  0.00  0.00     0.179 C 
BRANCH  17  18
HETATM   18  C   UNK N   1      34.053  17.074   7.637  0.00  0.00     0.173 C 
BRANCH  18  19
HETATM   19  C   UNK N   1      34.315  16.971   9.129  0.00  0.00     0.198 C 
BRANCH  19  20
HETATM   20  O   UNK N   1      35.270  17.912   9.520  0.00  0.00    -0.398 OA
HETATM   21  H   UNK N   1      36.044  18.100  10.075  0.00  0.00     0.209 HD
ENDBRANCH  19  20
ENDBRANCH  18  19
BRANCH  18  22
HETATM   22  O   UNK N   1      34.573  18.274   7.149  0.00  0.00    -0.391 OA
HETATM   23  H   UNK N   1      33.995  18.935   6.738  0.00  0.00     0.210 HD
ENDBRANCH  18  22
ENDBRANCH  17  18
BRANCH  17  24
HETATM   24  O   UNK N   1      32.000  16.044   8.312  0.00  0.00    -0.390 OA
HETATM   25  H   UNK N   1      31.259  16.301   8.882  0.00  0.00     0.210 HD
ENDBRANCH  17  24
ENDBRANCH  16  17
BRANCH  16  26
HETATM   26  O   UNK N   1      33.092  15.384   5.531  0.00  0.00    -0.391 OA
HETATM   27  H   UNK N   1      32.870  14.478   5.265  0.00  0.00     0.210 HD
ENDBRANCH  16  26
ENDBRANCH  15  16
ENDBRANCH   1  15
BRANCH   4  28
HETATM   28  C   UNK N   1      27.863  19.588   4.209  0.00  0.00     0.134 C 
BRANCH  28  29
HETATM   29  C   UNK N   1      26.570  19.034   3.624  0.00  0.00     0.022 C 
BRANCH  29  30
HETATM   30  C   UNK N   1      25.596  20.143   3.272  0.00  0.00     0.028 C 
BRANCH  30  31
HETATM   31  C   UNK N   1      24.185  19.767   3.688  0.00  0.00     0.180 C 
BRANCH  31  32
HETATM   32  O   UNK N   1      23.261  20.673   3.109  0.00  0.00    -0.297 OA
BRANCH  32  33
HETATM   33  P   UNK N   1      21.636  19.991   2.871  0.00  0.00     0.390 P 
HETATM   34  O   UNK N   1      21.857  19.440   4.309  0.00  0.00    -0.632 OA
BRANCH  33  35
HETATM   35  O   UNK N   1      20.385  20.669   3.865  0.00  0.00    -0.307 OA
HETATM   36  H   UNK N   1      20.368  21.304   4.597  0.00  0.00     0.222 HD
ENDBRANCH  33  35
BRANCH  33  37
HETATM   37  O   UNK N   1      21.375  21.699   2.646  0.00  0.00    -0.307 OA
HETATM   38  H   UNK N   1      21.154  22.130   1.806  0.00  0.00     0.222 HD
ENDBRANCH  33  37
ENDBRANCH  32  33
ENDBRANCH  31  32
ENDBRANCH  30  31
ENDBRANCH  29  30
ENDBRANCH  28  29
ENDBRANCH   4  28
TORSDOF 17
ENDMDL
MODEL 5
REMARK VINA RESULT:      -5.7      4.354      8.512
REMARK  17 active torsions:
REMARK  status: ('A' for Active; 'I' for Inactive)
REMARK    1  A    between atoms: O_1  and  C_2 
REMARK    2  A    between atoms: C_2  and  C_3 
REMARK    3  A    between atoms: C_3  and  O_4 
REMARK    4  A    between atoms: C_3  and  C_5 
REMARK    5  A    between atoms: C_5  and  O_6 
REMARK    6  A    between atoms: C_5  and  C_7 
REMARK    7  A    between atoms: C_7  and  O_8 
REMARK    8  A    between atoms: C_7  and  C_9 
REMARK    9  A    between atoms: C_9  and  N_10 
REMARK   10  A    between atoms: N_13  and  C_14 
REMARK   11  A    between atoms: C_14  and  C_15 
REMARK   12  A    between atoms: C_15  and  C_16 
REMARK   13  A    between atoms: C_16  and  C_17 
REMARK   14  A    between atoms: C_17  and  O_18 
REMARK   15  A    between atoms: O_18  and  P_19 
REMARK   16  A    between atoms: P_19  and  O_20 
REMARK   17  A    between atoms: P_19  and  O_21 
ROOT
HETATM    1  N   UNK N   1      35.511  14.902  10.522  0.00  0.00    -0.280 N 
HETATM    2  C   UNK N   1      35.156  16.149  10.096  0.00  0.00     0.331 A 
HETATM    3  O   UNK N   1      35.682  17.178  10.482  0.00  0.00    -0.246 OA
HETATM    4  N   UNK N   1      34.093  16.108   9.242  0.00  0.00    -0.291 N 
HETATM    5  C   UNK N   1      33.795  14.797   9.122  0.00  0.00     0.152 A 
HETATM    6  C   UNK N   1      34.658  14.074   9.887  0.00  0.00     0.148 A 
HETATM    7  N   UNK N   1      34.578  12.728   9.997  0.00  0.00    -0.292 N 
HETATM    8  C   UNK N   1      33.600  12.068   9.287  0.00  0.00     0.328 A 
HETATM    9  O   UNK N   1      33.521  10.855   9.350  0.00  0.00    -0.247 OA
HETATM   10  N   UNK N   1      32.706  12.779   8.507  0.00  0.00    -0.273 N 
HETATM   11  C   UNK N   1      32.783  14.152   8.418  0.00  0.00     0.280 A 
HETATM   12  O   UNK N   1      31.977  14.771   7.749  0.00  0.00    -0.265 OA
HETATM   13  H   UNK N   1      35.204  12.233  10.572  0.00  0.00     0.172 HD
HETATM   14  H   UNK N   1      32.005  12.299   8.010  0.00  0.00     0.173 HD
ENDROOT
BRANCH   1  15
HETATM   15  C   UNK N   1      36.473  14.596  11.580  0.00  0.00     0.170 C 
BRANCH  15  16
HETATM   16  C   UNK N   1      35.958  14.571  13.020  0.00  0.00     0.168 C 
BRANCH  16  17
HETATM   17  C   UNK N   1      35.658  13.114  13.410  0.00  0.00     0.179 C 
BRANCH  17  18
HETATM   18  C   UNK N   1      36.660  12.041  12.930  0.00  0.00     0.173 C 
BRANCH  18  19
HETATM   19  C   UNK N   1      36.030  10.660  12.984  0.00  0.00     0.198 C 
BRANCH  19  20
HETATM   20  O   UNK N   1      35.436  10.349  11.758  0.00  0.00    -0.398 OA
HETATM   21  H   UNK N   1      35.502  10.394  10.791  0.00  0.00     0.209 HD
ENDBRANCH  19  20
ENDBRANCH  18  19
BRANCH  18  22
HETATM   22  O   UNK N   1      37.863  12.037  13.637  0.00  0.00    -0.391 OA
HETATM   23  H   UNK N   1      38.567  11.406  13.418  0.00  0.00     0.210 HD
ENDBRANCH  18  22
ENDBRANCH  17  18
BRANCH  17  24
HETATM   24  O   UNK N   1      34.376  12.754  12.988  0.00  0.00    -0.390 OA
HETATM   25  H   UNK N   1      34.133  11.857  12.709  0.00  0.00     0.210 HD
ENDBRANCH  17  24
ENDBRANCH  16  17
BRANCH  16  26
HETATM   26  O   UNK N   1      36.842  15.136  13.940  0.00  0.00    -0.391 OA
HETATM   27  H   UNK N   1      37.036  14.795  14.827  0.00  0.00     0.210 HD
ENDBRANCH  16  26
ENDBRANCH  15  16
ENDBRANCH   1  15
BRANCH   4  28
HETATM   28  C   UNK N   1      33.386  17.254   8.692  0.00  0.00     0.134 C 
BRANCH  28  29
HETATM   29  C   UNK N   1      34.184  17.792   7.511  0.00  0.00     0.022 C 
BRANCH  29  30
HETATM   30  C   UNK N   1      33.454  17.574   6.198  0.00  0.00     0.028 C 
BRANCH  30  31
HETATM   31  C   UNK N   1      33.954  16.317   5.511  0.00  0.00     0.180 C 
BRANCH  31  32
HETATM   32  O   UNK N   1      35.232  15.973   6.020  0.00  0.00    -0.297 OA
BRANCH  32  33
HETATM   33  P   UNK N   1      35.810  14.374   5.496  0.00  0.00     0.390 P 
HETATM   34  O   UNK N   1      36.459  14.350   6.910  0.00  0.00    -0.632 OA
BRANCH  33  35
HETATM   35  O   UNK N   1      35.129  13.017   6.336  0.00  0.00    -0.307 OA
HETATM   36  H   UNK N   1      34.345  12.886   6.891  0.00  0.00     0.222 HD
ENDBRANCH  33  35
BRANCH  33  37
HETATM   37  O   UNK N   1      34.080  14.225   5.352  0.00  0.00    -0.307 OA
HETATM   38  H   UNK N   1      33.431  14.877   5.658  0.00  0.00     0.222 HD
ENDBRANCH  33  37
ENDBRANCH  32  33
ENDBRANCH  31  32
ENDBRANCH  30  31
ENDBRANCH  29  30
ENDBRANCH  28  29
ENDBRANCH   4  28
TORSDOF 17
ENDMDL
MODEL 6
REMARK VINA RESULT:      -5.7      4.576      7.676
REMARK  17 active torsions:
REMARK  status: ('A' for Active; 'I' for Inactive)
REMARK    1  A    between atoms: O_1  and  C_2 
REMARK    2  A    between atoms: C_2  and  C_3 
REMARK    3  A    between atoms: C_3  and  O_4 
REMARK    4  A    between atoms: C_3  and  C_5 
REMARK    5  A    between atoms: C_5  and  O_6 
REMARK    6  A    between atoms: C_5  and  C_7 
REMARK    7  A    between atoms: C_7  and  O_8 
REMARK    8  A    between atoms: C_7  and  C_9 
REMARK    9  A    between atoms: C_9  and  N_10 
REMARK   10  A    between atoms: N_13  and  C_14 
REMARK   11  A    between atoms: C_14  and  C_15 
REMARK   12  A    between atoms: C_15  and  C_16 
REMARK   13  A    between atoms: C_16  and  C_17 
REMARK   14  A    between atoms: C_17  and  O_18 
REMARK   15  A    between atoms: O_18  and  P_19 
REMARK   16  A    between atoms: P_19  and  O_20 
REMARK   17  A    between atoms: P_19  and  O_21 
ROOT
HETATM    1  N   UNK N   1      35.369  14.573  11.864  0.00  0.00    -0.280 N 
HETATM    2  C   UNK N   1      35.048  13.396  11.254  0.00  0.00     0.331 A 
HETATM    3  O   UNK N   1      34.392  13.312  10.231  0.00  0.00    -0.246 OA
HETATM    4  N   UNK N   1      35.489  12.319  11.968  0.00  0.00    -0.291 N 
HETATM    5  C   UNK N   1      36.116  12.848  13.040  0.00  0.00     0.152 A 
HETATM    6  C   UNK N   1      36.050  14.206  12.968  0.00  0.00     0.148 A 
HETATM    7  N   UNK N   1      36.561  15.009  13.929  0.00  0.00    -0.292 N 
HETATM    8  C   UNK N   1      37.192  14.428  15.006  0.00  0.00     0.328 A 
HETATM    9  O   UNK N   1      37.681  15.129  15.872  0.00  0.00    -0.247 OA
HETATM   10  N   UNK N   1      37.268  13.050  15.107  0.00  0.00    -0.273 N 
HETATM   11  C   UNK N   1      36.726  12.239  14.133  0.00  0.00     0.280 A 
HETATM   12  O   UNK N   1      36.775  11.028  14.242  0.00  0.00    -0.265 OA
HETATM   13  H   UNK N   1      36.482  15.988  13.860  0.00  0.00     0.172 HD
HETATM   14  H   UNK N   1      37.714  12.643  15.885  0.00  0.00     0.173 HD
ENDROOT
BRANCH   1  15
HETATM   15  C   UNK N   1      34.890  15.900  11.479  0.00  0.00     0.170 C 
BRANCH  15  16
HETATM   16  C   UNK N   1      35.371  16.466  10.142  0.00  0.00     0.168 C 
BRANCH  16  17
HETATM   17  C   UNK N   1      34.198  16.447   9.149  0.00  0.00     0.179 C 
BRANCH  17  18
HETATM   18  C   UNK N   1      33.803  17.795   8.508  0.00  0.00     0.173 C 
BRANCH  18  19
HETATM   19  C   UNK N   1      32.375  17.743   7.992  0.00  0.00     0.198 C 
BRANCH  19  20
HETATM   20  O   UNK N   1      31.476  18.023   9.023  0.00  0.00    -0.398 OA
HETATM   21  H   UNK N   1      31.298  17.987   9.977  0.00  0.00     0.209 HD
ENDBRANCH  19  20
ENDBRANCH  18  19
BRANCH  18  22
HETATM   22  O   UNK N   1      34.658  18.204   7.484  0.00  0.00    -0.391 OA
HETATM   23  H   UNK N   1      35.391  18.815   7.662  0.00  0.00     0.210 HD
ENDBRANCH  18  22
ENDBRANCH  17  18
BRANCH  17  24
HETATM   24  O   UNK N   1      33.068  15.883   9.745  0.00  0.00    -0.390 OA
HETATM   25  H   UNK N   1      32.487  16.361  10.357  0.00  0.00     0.210 HD
ENDBRANCH  17  24
ENDBRANCH  16  17
BRANCH  16  26
HETATM   26  O   UNK N   1      35.893  17.757  10.236  0.00  0.00    -0.391 OA
HETATM   27  H   UNK N   1      35.794  18.461   9.576  0.00  0.00     0.210 HD
ENDBRANCH  16  26
ENDBRANCH  15  16
ENDBRANCH   1  15
BRANCH   4  28
HETATM   28  C   UNK N   1      35.222  10.921  11.672  0.00  0.00     0.134 C 
BRANCH  28  29
HETATM   29  C   UNK N   1      36.429  10.342  10.945  0.00  0.00     0.022 C 
BRANCH  29  30
HETATM   30  C   UNK N   1      36.222  10.329   9.441  0.00  0.00     0.028 C 
BRANCH  30  31
HETATM   31  C   UNK N   1      37.081  11.387   8.774  0.00  0.00     0.180 C 
BRANCH  31  32
HETATM   32  O   UNK N   1      37.947  11.971   9.732  0.00  0.00    -0.297 OA
BRANCH  32  33
HETATM   33  P   UNK N   1      38.697  13.492   9.195  0.00  0.00     0.390 P 
HETATM   34  O   UNK N   1      37.265  13.798   8.669  0.00  0.00    -0.632 OA
BRANCH  33  35
HETATM   35  O   UNK N   1      38.159  14.924  10.012  0.00  0.00    -0.307 OA
HETATM   36  H   UNK N   1      37.653  15.708   9.748  0.00  0.00     0.222 HD
ENDBRANCH  33  35
BRANCH  33  37
HETATM   37  O   UNK N   1      38.992  13.501  10.912  0.00  0.00    -0.307 OA
HETATM   38  H   UNK N   1      38.391  13.156  11.589  0.00  0.00     0.222 HD
ENDBRANCH  33  37
ENDBRANCH  32  33
ENDBRANCH  31  32
ENDBRANCH  30  31
ENDBRANCH  29  30
ENDBRANCH  28  29
ENDBRANCH   4  28
TORSDOF 17
ENDMDL
MODEL 7
REMARK VINA RESULT:      -5.7     11.056     12.296
REMARK  17 active torsions:
REMARK  status: ('A' for Active; 'I' for Inactive)
REMARK    1  A    between atoms: O_1  and  C_2 
REMARK    2  A    between atoms: C_2  and  C_3 
REMARK    3  A    between atoms: C_3  and  O_4 
REMARK    4  A    between atoms: C_3  and  C_5 
REMARK    5  A    between atoms: C_5  and  O_6 
REMARK    6  A    between atoms: C_5  and  C_7 
REMARK    7  A    between atoms: C_7  and  O_8 
REMARK    8  A    between atoms: C_7  and  C_9 
REMARK    9  A    between atoms: C_9  and  N_10 
REMARK   10  A    between atoms: N_13  and  C_14 
REMARK   11  A    between atoms: C_14  and  C_15 
REMARK   12  A    between atoms: C_15  and  C_16 
REMARK   13  A    between atoms: C_16  and  C_17 
REMARK   14  A    between atoms: C_17  and  O_18 
REMARK   15  A    between atoms: O_18  and  P_19 
REMARK   16  A    between atoms: P_19  and  O_20 
REMARK   17  A    between atoms: P_19  and  O_21 
ROOT
HETATM    1  N   UNK N   1      21.436  16.066   5.029  0.00  0.00    -0.280 N 
HETATM    2  C   UNK N   1      21.622  14.746   4.736  0.00  0.00     0.331 A 
HETATM    3  O   UNK N   1      21.951  14.329   3.639  0.00  0.00    -0.246 OA
HETATM    4  N   UNK N   1      21.323  13.944   5.799  0.00  0.00    -0.291 N 
HETATM    5  C   UNK N   1      20.960  14.794   6.783  0.00  0.00     0.152 A 
HETATM    6  C   UNK N   1      21.039  16.072   6.317  0.00  0.00     0.148 A 
HETATM    7  N   UNK N   1      20.697  17.141   7.072  0.00  0.00    -0.292 N 
HETATM    8  C   UNK N   1      20.277  16.927   8.365  0.00  0.00     0.328 A 
HETATM    9  O   UNK N   1      19.986  17.873   9.072  0.00  0.00    -0.247 OA
HETATM   10  N   UNK N   1      20.181  15.639   8.861  0.00  0.00    -0.273 N 
HETATM   11  C   UNK N   1      20.513  14.554   8.078  0.00  0.00     0.280 A 
HETATM   12  O   UNK N   1      20.402  13.423   8.514  0.00  0.00    -0.265 OA
HETATM   13  H   UNK N   1      20.746  18.053   6.703  0.00  0.00     0.172 HD
HETATM   14  H   UNK N   1      19.872  15.494   9.784  0.00  0.00     0.173 HD
ENDROOT
BRANCH   1  15
HETATM   15  C   UNK N   1      21.476  17.173   4.075  0.00  0.00     0.170 C 
BRANCH  15  16
HETATM   16  C   UNK N   1      20.141  17.753   3.606  0.00  0.00     0.168 C 
BRANCH  16  17
HETATM   17  C   UNK N   1      20.375  18.539   2.306  0.00  0.00     0.179 C 
BRANCH  17  18
HETATM   18  C   UNK N   1      20.147  20.065   2.361  0.00  0.00     0.173 C 
BRANCH  18  19
HETATM   19  C   UNK N   1      21.010  20.772   1.330  0.00  0.00     0.198 C 
BRANCH  19  20
HETATM   20  O   UNK N   1      20.553  20.491   0.040  0.00  0.00    -0.398 OA
HETATM   21  H   UNK N   1      20.783  20.390  -0.898  0.00  0.00     0.209 HD
ENDBRANCH  19  20
ENDBRANCH  18  19
BRANCH  18  22
HETATM   22  O   UNK N   1      20.368  20.623   3.621  0.00  0.00    -0.391 OA
HETATM   23  H   UNK N   1      21.200  21.080   3.823  0.00  0.00     0.210 HD
ENDBRANCH  18  22
ENDBRANCH  17  18
BRANCH  17  24
HETATM   24  O   UNK N   1      19.602  18.005   1.271  0.00  0.00    -0.390 OA
HETATM   25  H   UNK N   1      18.673  17.745   1.372  0.00  0.00     0.210 HD
ENDBRANCH  17  24
ENDBRANCH  16  17
BRANCH  16  26
HETATM   26  O   UNK N   1      19.152  16.788   3.406  0.00  0.00    -0.391 OA
HETATM   27  H   UNK N   1      18.750  16.234   4.093  0.00  0.00     0.210 HD
ENDBRANCH  16  26
ENDBRANCH  15  16
ENDBRANCH   1  15
BRANCH   4  28
HETATM   28  C   UNK N   1      21.298  12.491   5.801  0.00  0.00     0.134 C 
BRANCH  28  29
HETATM   29  C   UNK N   1      19.914  12.030   5.361  0.00  0.00     0.022 C 
BRANCH  29  30
HETATM   30  C   UNK N   1      19.977  11.220   4.079  0.00  0.00     0.028 C 
BRANCH  30  31
HETATM   31  C   UNK N   1      19.189  11.902   2.976  0.00  0.00     0.180 C 
BRANCH  31  32
HETATM   32  O   UNK N   1      20.054  12.215   1.898  0.00  0.00    -0.297 OA
BRANCH  32  33
HETATM   33  P   UNK N   1      19.513  13.597   0.916  0.00  0.00     0.390 P 
HETATM   34  O   UNK N   1      18.880  14.066   2.258  0.00  0.00    -0.632 OA
BRANCH  33  35
HETATM   35  O   UNK N   1      20.239  15.124   1.305  0.00  0.00    -0.307 OA
HETATM   36  H   UNK N   1      19.907  16.031   1.392  0.00  0.00     0.222 HD
ENDBRANCH  33  35
BRANCH  33  37
HETATM   37  O   UNK N   1      21.244  13.645   0.730  0.00  0.00    -0.307 OA
HETATM   38  H   UNK N   1      21.853  12.916   0.924  0.00  0.00     0.222 HD
ENDBRANCH  33  37
ENDBRANCH  32  33
ENDBRANCH  31  32
ENDBRANCH  30  31
ENDBRANCH  29  30
ENDBRANCH  28  29
ENDBRANCH   4  28
TORSDOF 17
ENDMDL
MODEL 8
REMARK VINA RESULT:      -5.6      9.579     11.154
REMARK  17 active torsions:
REMARK  status: ('A' for Active; 'I' for Inactive)
REMARK    1  A    between atoms: O_1  and  C_2 
REMARK    2  A    between atoms: C_2  and  C_3 
REMARK    3  A    between atoms: C_3  and  O_4 
REMARK    4  A    between atoms: C_3  and  C_5 
REMARK    5  A    between atoms: C_5  and  O_6 
REMARK    6  A    between atoms: C_5  and  C_7 
REMARK    7  A    between atoms: C_7  and  O_8 
REMARK    8  A    between atoms: C_7  and  C_9 
REMARK    9  A    between atoms: C_9  and  N_10 
REMARK   10  A    between atoms: N_13  and  C_14 
REMARK   11  A    between atoms: C_14  and  C_15 
REMARK   12  A    between atoms: C_15  and  C_16 
REMARK   13  A    between atoms: C_16  and  C_17 
REMARK   14  A    between atoms: C_17  and  O_18 
REMARK   15  A    between atoms: O_18  and  P_19 
REMARK   16  A    between atoms: P_19  and  O_20 
REMARK   17  A    between atoms: P_19  and  O_21 
ROOT
HETATM    1  N   UNK N   1      21.857  17.954   4.844  0.00  0.00    -0.280 N 
HETATM    2  C   UNK N   1      21.142  17.997   6.005  0.00  0.00     0.331 A 
HETATM    3  O   UNK N   1      21.175  18.924   6.795  0.00  0.00    -0.246 OA
HETATM    4  N   UNK N   1      20.441  16.843   6.211  0.00  0.00    -0.291 N 
HETATM    5  C   UNK N   1      20.717  16.074   5.136  0.00  0.00     0.152 A 
HETATM    6  C   UNK N   1      21.562  16.751   4.311  0.00  0.00     0.148 A 
HETATM    7  N   UNK N   1      22.046  16.213   3.168  0.00  0.00    -0.292 N 
HETATM    8  C   UNK N   1      21.646  14.943   2.818  0.00  0.00     0.328 A 
HETATM    9  O   UNK N   1      22.048  14.445   1.783  0.00  0.00    -0.247 OA
HETATM   10  N   UNK N   1      20.793  14.230   3.642  0.00  0.00    -0.273 N 
HETATM   11  C   UNK N   1      20.322  14.779   4.815  0.00  0.00     0.280 A 
HETATM   12  O   UNK N   1      19.592  14.136   5.546  0.00  0.00    -0.265 OA
HETATM   13  H   UNK N   1      22.670  16.719   2.600  0.00  0.00     0.172 HD
HETATM   14  H   UNK N   1      20.519  13.319   3.388  0.00  0.00     0.173 HD
ENDROOT
BRANCH   1  15
HETATM   15  C   UNK N   1      22.858  18.929   4.413  0.00  0.00     0.170 C 
BRANCH  15  16
HETATM   16  C   UNK N   1      22.596  19.683   3.109  0.00  0.00     0.168 C 
BRANCH  16  17
HETATM   17  C   UNK N   1      21.080  19.894   2.959  0.00  0.00     0.179 C 
BRANCH  17  18
HETATM   18  C   UNK N   1      20.503  19.817   1.529  0.00  0.00     0.173 C 
BRANCH  18  19
HETATM   19  C   UNK N   1      20.332  18.370   1.099  0.00  0.00     0.198 C 
BRANCH  19  20
HETATM   20  O   UNK N   1      19.181  17.826   1.673  0.00  0.00    -0.398 OA
HETATM   21  H   UNK N   1      18.802  17.330   2.416  0.00  0.00     0.209 HD
ENDBRANCH  19  20
ENDBRANCH  18  19
BRANCH  18  22
HETATM   22  O   UNK N   1      21.259  20.504   0.577  0.00  0.00    -0.391 OA
HETATM   23  H   UNK N   1      20.843  21.148  -0.017  0.00  0.00     0.210 HD
ENDBRANCH  18  22
ENDBRANCH  17  18
BRANCH  17  24
HETATM   24  O   UNK N   1      20.701  21.110   3.533  0.00  0.00    -0.390 OA
HETATM   25  H   UNK N   1      21.230  21.921   3.475  0.00  0.00     0.210 HD
ENDBRANCH  17  24
ENDBRANCH  16  17
BRANCH  16  26
HETATM   26  O   UNK N   1      23.256  20.911   3.030  0.00  0.00    -0.391 OA
HETATM   27  H   UNK N   1      23.938  21.150   2.383  0.00  0.00     0.210 HD
ENDBRANCH  16  26
ENDBRANCH  15  16
ENDBRANCH   1  15
BRANCH   4  28
HETATM   28  C   UNK N   1      19.670  16.504   7.396  0.00  0.00     0.134 C 
BRANCH  28  29
HETATM   29  C   UNK N   1      20.633  16.054   8.487  0.00  0.00     0.022 C 
BRANCH  29  30
HETATM   30  C   UNK N   1      20.382  14.613   8.894  0.00  0.00     0.028 C 
BRANCH  30  31
HETATM   31  C   UNK N   1      21.476  14.122   9.824  0.00  0.00     0.180 C 
BRANCH  31  32
HETATM   32  O   UNK N   1      21.246  12.763  10.152  0.00  0.00    -0.297 OA
BRANCH  32  33
HETATM   33  P   UNK N   1      22.730  11.843  10.497  0.00  0.00     0.390 P 
HETATM   34  O   UNK N   1      23.427  13.182  10.119  0.00  0.00    -0.632 OA
BRANCH  33  35
HETATM   35  O   UNK N   1      23.622  12.355  11.894  0.00  0.00    -0.307 OA
HETATM   36  H   UNK N   1      24.548  12.590  12.060  0.00  0.00     0.222 HD
ENDBRANCH  33  35
BRANCH  33  37
HETATM   37  O   UNK N   1      21.851  11.737  11.998  0.00  0.00    -0.307 OA
HETATM   38  H   UNK N   1      21.488  10.924  12.382  0.00  0.00     0.222 HD
ENDBRANCH  33  37
ENDBRANCH  32  33
ENDBRANCH  31  32
ENDBRANCH  30  31
ENDBRANCH  29  30
ENDBRANCH  28  29
ENDBRANCH   4  28
TORSDOF 17
ENDMDL
MODEL 9
REMARK VINA RESULT:      -5.6      4.933      7.475
REMARK  17 active torsions:
REMARK  status: ('A' for Active; 'I' for Inactive)
REMARK    1  A    between atoms: O_1  and  C_2 
REMARK    2  A    between atoms: C_2  and  C_3 
REMARK    3  A    between atoms: C_3  and  O_4 
REMARK    4  A    between atoms: C_3  and  C_5 
REMARK    5  A    between atoms: C_5  and  O_6 
REMARK    6  A    between atoms: C_5  and  C_7 
REMARK    7  A    between atoms: C_7  and  O_8 
REMARK    8  A    between atoms: C_7  and  C_9 
REMARK    9  A    between atoms: C_9  and  N_10 
REMARK   10  A    between atoms: N_13  and  C_14 
REMARK   11  A    between atoms: C_14  and  C_15 
REMARK   12  A    between atoms: C_15  and  C_16 
REMARK   13  A    between atoms: C_16  and  C_17 
REMARK   14  A    between atoms: C_17  and  O_18 
REMARK   15  A    between atoms: O_18  and  P_19 
REMARK   16  A    between atoms: P_19  and  O_20 
REMARK   17  A    between atoms: P_19  and  O_21 
ROOT
HETATM    1  N   UNK N   1      23.531  17.540   4.905  0.00  0.00    -0.280 N 
HETATM    2  C   UNK N   1      24.368  16.564   5.361  0.00  0.00     0.331 A 
HETATM    3  O   UNK N   1      24.009  15.617   6.038  0.00  0.00    -0.246 OA
HETATM    4  N   UNK N   1      25.668  16.815   5.029  0.00  0.00    -0.291 N 
HETATM    5  C   UNK N   1      25.630  17.971   4.332  0.00  0.00     0.152 A 
HETATM    6  C   UNK N   1      24.340  18.398   4.252  0.00  0.00     0.148 A 
HETATM    7  N   UNK N   1      23.996  19.556   3.642  0.00  0.00    -0.292 N 
HETATM    8  C   UNK N   1      24.988  20.314   3.061  0.00  0.00     0.328 A 
HETATM    9  O   UNK N   1      24.702  21.347   2.486  0.00  0.00    -0.247 OA
HETATM   10  N   UNK N   1      26.308  19.905   3.134  0.00  0.00    -0.273 N 
HETATM   11  C   UNK N   1      26.651  18.735   3.775  0.00  0.00     0.280 A 
HETATM   12  O   UNK N   1      27.817  18.396   3.856  0.00  0.00    -0.265 OA
HETATM   13  H   UNK N   1      23.057  19.850   3.615  0.00  0.00     0.172 HD
HETATM   14  H   UNK N   1      27.012  20.458   2.723  0.00  0.00     0.173 HD
ENDROOT
BRANCH   1  15
HETATM   15  C   UNK N   1      22.116  17.687   5.243  0.00  0.00     0.170 C 
BRANCH  15  16
HETATM   16  C   UNK N   1      21.094  17.433   4.134  0.00  0.00     0.168 C 
BRANCH  16  17
HETATM   17  C   UNK N   1      20.521  18.784   3.674  0.00  0.00     0.179 C 
BRANCH  17  18
HETATM   18  C   UNK N   1      20.869  19.238   2.239  0.00  0.00     0.173 C 
BRANCH  18  19
HETATM   19  C   UNK N   1      20.654  20.733   2.086  0.00  0.00     0.198 C 
BRANCH  19  20
HETATM   20  O   UNK N   1      21.746  21.436   2.602  0.00  0.00    -0.398 OA
HETATM   21  H   UNK N   1      22.143  22.305   2.775  0.00  0.00     0.209 HD
ENDBRANCH  19  20
ENDBRANCH  18  19
BRANCH  18  22
HETATM   22  O   UNK N   1      20.163  18.557   1.246  0.00  0.00    -0.391 OA
HETATM   23  H   UNK N   1      20.182  17.588   1.197  0.00  0.00     0.210 HD
ENDBRANCH  18  22
ENDBRANCH  17  18
BRANCH  17  24
HETATM   24  O   UNK N   1      20.886  19.794   4.567  0.00  0.00    -0.390 OA
HETATM   25  H   UNK N   1      21.364  19.634   5.396  0.00  0.00     0.210 HD
ENDBRANCH  17  24
ENDBRANCH  16  17
BRANCH  16  26
HETATM   26  O   UNK N   1      21.615  16.741   3.041  0.00  0.00    -0.391 OA
HETATM   27  H   UNK N   1      21.351  16.856   2.115  0.00  0.00     0.210 HD
ENDBRANCH  16  26
ENDBRANCH  15  16
ENDBRANCH   1  15
BRANCH   4  28
HETATM   28  C   UNK N   1      26.829  16.048   5.451  0.00  0.00     0.134 C 
BRANCH  28  29
HETATM   29  C   UNK N   1      27.253  16.533   6.832  0.00  0.00     0.022 C 
BRANCH  29  30
HETATM   30  C   UNK N   1      28.656  17.111   6.813  0.00  0.00     0.028 C 
BRANCH  30  31
HETATM   31  C   UNK N   1      29.638  16.112   6.228  0.00  0.00     0.180 C 
BRANCH  31  32
HETATM   32  O   UNK N   1      30.802  16.790   5.788  0.00  0.00    -0.297 OA
BRANCH  32  33
HETATM   33  P   UNK N   1      31.214  16.485   4.084  0.00  0.00     0.390 P 
HETATM   34  O   UNK N   1      30.115  15.390   4.206  0.00  0.00    -0.632 OA
BRANCH  33  35
HETATM   35  O   UNK N   1      29.981  16.883   2.930  0.00  0.00    -0.307 OA
HETATM   36  H   UNK N   1      29.129  17.343   2.978  0.00  0.00     0.222 HD
ENDBRANCH  33  35
BRANCH  33  37
HETATM   37  O   UNK N   1      30.746  18.163   4.073  0.00  0.00    -0.307 OA
HETATM   38  H   UNK N   1      30.433  18.666   4.840  0.00  0.00     0.222 HD
ENDBRANCH  33  37
ENDBRANCH  32  33
ENDBRANCH  31  32
ENDBRANCH  30  31
ENDBRANCH  29  30
ENDBRANCH  28  29
ENDBRANCH   4  28
TORSDOF 17
ENDMDL
