REMARK  12 active torsions:
REMARK  status: ('A' for Active; 'I' for Inactive)
REMARK    1  A    between atoms: C_2  and  C_1 
REMARK    2  A    between atoms: C_3  and  C_1 
REMARK    3  A    between atoms: C_4  and  C_2 
REMARK    4  A    between atoms: N_8  and  C_3 
REMARK    5  A    between atoms: C_5  and  C_4 
REMARK    6  A    between atoms: C_4  and  N_6 
REMARK    7  A    between atoms: O_11  and  C_5 
REMARK    8  A    between atoms: P_16  and  N_7 
REMARK    9  A    between atoms: P_16  and  N_8 
REMARK   10  A    between atoms: P_16  and  N_9 
REMARK   11  A    between atoms: S_17  and  N_9 
REMARK   12  A    between atoms: S_17  and  O_13 
ROOT
HETATM    1  N   UNK N   1       5.964  -0.909   1.031  0.00  0.00    -0.339 N 
HETATM    2  H   UNK N   1       6.571  -0.361   1.640  0.00  0.00     0.164 HD
ENDROOT
BRANCH   1   3
HETATM    3  C   UNK N   1       4.505  -0.941   1.096  0.00  0.00     0.124 C 
BRANCH   3   4
HETATM    4  C   UNK N   1       3.868  -0.210  -0.081  0.00  0.00     0.022 C 
BRANCH   4   5
HETATM    5  C   UNK N   1       2.715  -1.033  -0.654  0.00  0.00     0.037 C 
BRANCH   5   6
HETATM    6  C   UNK N   1       1.506  -1.091   0.281  0.00  0.00     0.173 C 
BRANCH   6   7
HETATM    7  C   UNK N   1       0.473  -2.030  -0.279  0.00  0.00     0.163 C 
HETATM    8  O   UNK N   1      -0.659  -1.630  -0.535  0.00  0.00    -0.648 OA
BRANCH   7   9
HETATM    9  O   UNK N   1       0.778  -3.322  -0.484  0.00  0.00    -0.775 OA
HETATM   10  H   UNK N   1       0.105  -3.957  -0.627  0.00  0.00     0.167 HD
ENDBRANCH   7   9
ENDBRANCH   6   7
BRANCH   6  11
HETATM   11  N   UNK N   1       0.957   0.246   0.451  0.00  0.00    -0.418 N 
HETATM   12  H   UNK N   1       1.576   1.048   0.571  0.00  0.00     0.150 HD
HETATM   13  H   UNK N   1      -0.054   0.382   0.451  0.00  0.00     0.150 HD
ENDBRANCH   6  11
ENDBRANCH   5   6
ENDBRANCH   4   5
ENDBRANCH   3   4
ENDBRANCH   1   3
BRANCH   1  14
HETATM   14  P   UNK N   1       6.521  -1.995  -0.303  0.00  0.00     0.354 P 
HETATM   15  O   UNK N   1       5.372  -2.988  -0.626  0.00  0.00    -0.249 OA
BRANCH  14  16
HETATM   16  N   UNK N   1       6.826  -1.057  -1.804  0.00  0.00    -0.348 N 
HETATM   17  H   UNK N   1       7.374  -0.941  -2.656  0.00  0.00     0.160 HD
HETATM   18  H   UNK N   1       6.144  -0.299  -1.804  0.00  0.00     0.160 HD
ENDBRANCH  14  16
BRANCH  14  19
HETATM   19  N   UNK N   1       7.937  -3.007   0.171  0.00  0.00    -0.220 N 
HETATM   20  H   UNK N   1       7.879  -3.991   0.430  0.00  0.00     0.185 HD
BRANCH  19  21
HETATM   21  S   UNK N   1       9.440  -2.071   0.127  0.00  0.00     0.202 S 
HETATM   22  O   UNK N   1      10.552  -3.022  -0.343  0.00  0.00    -0.585 OA
HETATM   23  O   UNK N   1       9.841  -1.695   1.560  0.00  0.00    -0.585 OA
BRANCH  21  24
HETATM   24  O   UNK N   1       9.447  -0.680  -0.880  0.00  0.00    -0.279 OA
HETATM   25  H   UNK N   1      10.130  -0.291  -1.449  0.00  0.00     0.234 HD
ENDBRANCH  21  24
ENDBRANCH  19  21
ENDBRANCH  14  19
ENDBRANCH   1  14
TORSDOF 12
