MODEL 1
REMARK VINA RESULT:      -3.9      0.000      0.000
REMARK  6 active torsions:
REMARK  status: ('A' for Active; 'I' for Inactive)
REMARK    1  A    between atoms: C_3  and  C_1 
REMARK    2  A    between atoms: C_4  and  C_1 
REMARK    3  A    between atoms: C_3  and  C_2 
REMARK    4  A    between atoms: S_8  and  C_2 
REMARK    5  A    between atoms: C_3  and  N_5 
REMARK    6  A    between atoms: O_7  and  C_4 
ROOT
HETATM    1  C   UNK N   1      34.750  16.394   9.712  0.00  0.00     0.092 C 
ENDROOT
BRANCH   1   2
HETATM    2  C   UNK N   1      33.813  17.243   8.852  0.00  0.00     0.135 C 
BRANCH   2   3
HETATM    3  C   UNK N   1      34.528  18.232   7.983  0.00  0.00     0.141 C 
HETATM    4  O   UNK N   1      34.395  18.186   6.771  0.00  0.00    -0.650 OA
BRANCH   3   5
HETATM    5  O   UNK N   1      35.277  19.205   8.537  0.00  0.00    -0.776 OA
HETATM    6  H   UNK N   1      35.441  19.207   9.460  0.00  0.00     0.167 HD
ENDBRANCH   3   5
ENDBRANCH   2   3
ENDBRANCH   1   2
BRANCH   1   7
HETATM    7  C   UNK N   1      33.982  15.159  10.159  0.00  0.00     0.095 C 
BRANCH   7   8
HETATM    8  S   UNK N   1      34.870  14.234  11.452  0.00  0.00    -0.180 SA
HETATM    9  H   UNK N   1      36.211  14.032  11.550  0.00  0.00     0.101 HD
ENDBRANCH   7   8
ENDBRANCH   1   7
BRANCH   1  10
HETATM   10  N   UNK N   1      35.183  17.147  10.881  0.00  0.00    -0.425 N 
HETATM   11  H   UNK N   1      35.194  16.715  11.805  0.00  0.00     0.150 HD
HETATM   12  H   UNK N   1      35.478  18.118  10.774  0.00  0.00     0.150 HD
ENDBRANCH   1  10
TORSDOF 6
ENDMDL
MODEL 2
REMARK VINA RESULT:      -3.7     12.904     13.465
REMARK  6 active torsions:
REMARK  status: ('A' for Active; 'I' for Inactive)
REMARK    1  A    between atoms: C_3  and  C_1 
REMARK    2  A    between atoms: C_4  and  C_1 
REMARK    3  A    between atoms: C_3  and  C_2 
REMARK    4  A    between atoms: S_8  and  C_2 
REMARK    5  A    between atoms: C_3  and  N_5 
REMARK    6  A    between atoms: O_7  and  C_4 
ROOT
HETATM    1  C   UNK N   1      22.385  12.596  10.562  0.00  0.00     0.092 C 
ENDROOT
BRANCH   1   2
HETATM    2  C   UNK N   1      22.329  11.965  11.953  0.00  0.00     0.135 C 
BRANCH   2   3
HETATM    3  C   UNK N   1      23.619  12.063  12.709  0.00  0.00     0.141 C 
HETATM    4  O   UNK N   1      23.616  12.012  13.928  0.00  0.00    -0.650 OA
BRANCH   3   5
HETATM    5  O   UNK N   1      24.788  12.157  12.046  0.00  0.00    -0.776 OA
HETATM    6  H   UNK N   1      25.540  12.528  12.465  0.00  0.00     0.167 HD
ENDBRANCH   3   5
ENDBRANCH   2   3
ENDBRANCH   1   2
BRANCH   1   7
HETATM    7  C   UNK N   1      20.966  12.979  10.166  0.00  0.00     0.095 C 
BRANCH   7   8
HETATM    8  S   UNK N   1      20.908  14.576   9.293  0.00  0.00    -0.180 SA
HETATM    9  H   UNK N   1      19.992  15.569   9.445  0.00  0.00     0.101 HD
ENDBRANCH   7   8
ENDBRANCH   1   7
BRANCH   1  10
HETATM   10  N   UNK N   1      22.918  11.646   9.597  0.00  0.00    -0.425 N 
HETATM   11  H   UNK N   1      23.041  10.664   9.843  0.00  0.00     0.150 HD
HETATM   12  H   UNK N   1      23.173  11.967   8.662  0.00  0.00     0.150 HD
ENDBRANCH   1  10
TORSDOF 6
ENDMDL
MODEL 3
REMARK VINA RESULT:      -3.6     15.808     16.090
REMARK  6 active torsions:
REMARK  status: ('A' for Active; 'I' for Inactive)
REMARK    1  A    between atoms: C_3  and  C_1 
REMARK    2  A    between atoms: C_4  and  C_1 
REMARK    3  A    between atoms: C_3  and  C_2 
REMARK    4  A    between atoms: S_8  and  C_2 
REMARK    5  A    between atoms: C_3  and  N_5 
REMARK    6  A    between atoms: O_7  and  C_4 
ROOT
HETATM    1  C   UNK N   1      19.995  18.222   3.036  0.00  0.00     0.092 C 
ENDROOT
BRANCH   1   2
HETATM    2  C   UNK N   1      21.308  18.995   2.915  0.00  0.00     0.135 C 
BRANCH   2   3
HETATM    3  C   UNK N   1      21.164  20.316   2.221  0.00  0.00     0.141 C 
HETATM    4  O   UNK N   1      21.307  20.388   1.012  0.00  0.00    -0.650 OA
BRANCH   3   5
HETATM    5  O   UNK N   1      20.827  21.417   2.921  0.00  0.00    -0.776 OA
HETATM    6  H   UNK N   1      20.625  22.216   2.476  0.00  0.00     0.167 HD
ENDBRANCH   3   5
ENDBRANCH   2   3
ENDBRANCH   1   2
BRANCH   1   7
HETATM    7  C   UNK N   1      20.204  16.848   2.415  0.00  0.00     0.095 C 
BRANCH   7   8
HETATM    8  S   UNK N   1      19.954  16.867   0.612  0.00  0.00    -0.180 SA
HETATM    9  H   UNK N   1      18.891  17.372  -0.069  0.00  0.00     0.101 HD
ENDBRANCH   7   8
ENDBRANCH   1   7
BRANCH   1  10
HETATM   10  N   UNK N   1      18.931  18.918   2.325  0.00  0.00    -0.425 N 
HETATM   11  H   UNK N   1      18.059  18.443   2.094  0.00  0.00     0.150 HD
HETATM   12  H   UNK N   1      19.060  19.894   2.056  0.00  0.00     0.150 HD
ENDBRANCH   1  10
TORSDOF 6
ENDMDL
MODEL 4
REMARK VINA RESULT:      -3.5      3.521      3.918
REMARK  6 active torsions:
REMARK  status: ('A' for Active; 'I' for Inactive)
REMARK    1  A    between atoms: C_3  and  C_1 
REMARK    2  A    between atoms: C_4  and  C_1 
REMARK    3  A    between atoms: C_3  and  C_2 
REMARK    4  A    between atoms: S_8  and  C_2 
REMARK    5  A    between atoms: C_3  and  N_5 
REMARK    6  A    between atoms: O_7  and  C_4 
ROOT
HETATM    1  C   UNK N   1      32.302  17.193   7.722  0.00  0.00     0.092 C 
ENDROOT
BRANCH   1   2
HETATM    2  C   UNK N   1      33.601  17.897   7.335  0.00  0.00     0.135 C 
BRANCH   2   3
HETATM    3  C   UNK N   1      34.492  18.197   8.502  0.00  0.00     0.141 C 
HETATM    4  O   UNK N   1      35.255  19.149   8.458  0.00  0.00    -0.650 OA
BRANCH   3   5
HETATM    5  O   UNK N   1      34.418  17.451   9.622  0.00  0.00    -0.776 OA
HETATM    6  H   UNK N   1      33.820  16.731   9.669  0.00  0.00     0.167 HD
ENDBRANCH   3   5
ENDBRANCH   2   3
ENDBRANCH   1   2
BRANCH   1   7
HETATM    7  C   UNK N   1      31.436  17.092   6.474  0.00  0.00     0.095 C 
BRANCH   7   8
HETATM    8  S   UNK N   1      32.409  17.304   4.950  0.00  0.00    -0.180 SA
HETATM    9  H   UNK N   1      32.106  18.083   3.878  0.00  0.00     0.101 HD
ENDBRANCH   7   8
ENDBRANCH   1   7
BRANCH   1  10
HETATM   10  N   UNK N   1      31.597  17.957   8.741  0.00  0.00    -0.425 N 
HETATM   11  H   UNK N   1      31.691  18.971   8.792  0.00  0.00     0.150 HD
HETATM   12  H   UNK N   1      31.001  17.472   9.412  0.00  0.00     0.150 HD
ENDBRANCH   1  10
TORSDOF 6
ENDMDL
MODEL 5
REMARK VINA RESULT:      -3.5      3.359      3.612
REMARK  6 active torsions:
REMARK  status: ('A' for Active; 'I' for Inactive)
REMARK    1  A    between atoms: C_3  and  C_1 
REMARK    2  A    between atoms: C_4  and  C_1 
REMARK    3  A    between atoms: C_3  and  C_2 
REMARK    4  A    between atoms: S_8  and  C_2 
REMARK    5  A    between atoms: C_3  and  N_5 
REMARK    6  A    between atoms: O_7  and  C_4 
ROOT
HETATM    1  C   UNK N   1      31.939  17.171   7.442  0.00  0.00     0.092 C 
ENDROOT
BRANCH   1   2
HETATM    2  C   UNK N   1      32.886  17.886   8.405  0.00  0.00     0.135 C 
BRANCH   2   3
HETATM    3  C   UNK N   1      34.193  18.276   7.782  0.00  0.00     0.141 C 
HETATM    4  O   UNK N   1      34.485  17.864   6.672  0.00  0.00    -0.650 OA
BRANCH   3   5
HETATM    5  O   UNK N   1      35.024  19.121   8.422  0.00  0.00    -0.776 OA
HETATM    6  H   UNK N   1      35.268  19.934   8.026  0.00  0.00     0.167 HD
ENDBRANCH   3   5
ENDBRANCH   2   3
ENDBRANCH   1   2
BRANCH   1   7
HETATM    7  C   UNK N   1      30.571  17.092   8.106  0.00  0.00     0.095 C 
BRANCH   7   8
HETATM    8  S   UNK N   1      30.207  18.575   9.097  0.00  0.00    -0.180 SA
HETATM    9  H   UNK N   1      31.031  19.205   9.977  0.00  0.00     0.101 HD
ENDBRANCH   7   8
ENDBRANCH   1   7
BRANCH   1  10
HETATM   10  N   UNK N   1      32.422  15.826   7.165  0.00  0.00    -0.425 N 
HETATM   11  H   UNK N   1      33.226  15.445   7.664  0.00  0.00     0.150 HD
HETATM   12  H   UNK N   1      31.950  15.256   6.461  0.00  0.00     0.150 HD
ENDBRANCH   1  10
TORSDOF 6
ENDMDL
MODEL 6
REMARK VINA RESULT:      -3.5      3.372      3.998
REMARK  6 active torsions:
REMARK  status: ('A' for Active; 'I' for Inactive)
REMARK    1  A    between atoms: C_3  and  C_1 
REMARK    2  A    between atoms: C_4  and  C_1 
REMARK    3  A    between atoms: C_3  and  C_2 
REMARK    4  A    between atoms: S_8  and  C_2 
REMARK    5  A    between atoms: C_3  and  N_5 
REMARK    6  A    between atoms: O_7  and  C_4 
ROOT
HETATM    1  C   UNK N   1      36.018  14.017  12.518  0.00  0.00     0.092 C 
ENDROOT
BRANCH   1   2
HETATM    2  C   UNK N   1      35.101  14.942  11.718  0.00  0.00     0.135 C 
BRANCH   2   3
HETATM    3  C   UNK N   1      35.819  16.093  11.081  0.00  0.00     0.141 C 
HETATM    4  O   UNK N   1      35.212  17.118  10.816  0.00  0.00    -0.650 OA
BRANCH   3   5
HETATM    5  O   UNK N   1      37.143  16.021  10.845  0.00  0.00    -0.776 OA
HETATM    6  H   UNK N   1      37.534  16.549  10.177  0.00  0.00     0.167 HD
ENDBRANCH   3   5
ENDBRANCH   2   3
ENDBRANCH   1   2
BRANCH   1   7
HETATM    7  C   UNK N   1      35.161  12.903  13.103  0.00  0.00     0.095 C 
BRANCH   7   8
HETATM    8  S   UNK N   1      35.287  12.827  14.917  0.00  0.00    -0.180 SA
HETATM    9  H   UNK N   1      34.267  12.808  15.817  0.00  0.00     0.101 HD
ENDBRANCH   7   8
ENDBRANCH   1   7
BRANCH   1  10
HETATM   10  N   UNK N   1      36.660  14.753  13.598  0.00  0.00    -0.425 N 
HETATM   11  H   UNK N   1      36.140  15.012  14.435  0.00  0.00     0.150 HD
HETATM   12  H   UNK N   1      37.643  15.013  13.514  0.00  0.00     0.150 HD
ENDBRANCH   1  10
TORSDOF 6
ENDMDL
MODEL 7
REMARK VINA RESULT:      -3.5     12.191     12.662
REMARK  6 active torsions:
REMARK  status: ('A' for Active; 'I' for Inactive)
REMARK    1  A    between atoms: C_3  and  C_1 
REMARK    2  A    between atoms: C_4  and  C_1 
REMARK    3  A    between atoms: C_3  and  C_2 
REMARK    4  A    between atoms: S_8  and  C_2 
REMARK    5  A    between atoms: C_3  and  N_5 
REMARK    6  A    between atoms: O_7  and  C_4 
ROOT
HETATM    1  C   UNK N   1      42.523  22.164   2.729  0.00  0.00     0.092 C 
ENDROOT
BRANCH   1   2
HETATM    2  C   UNK N   1      43.374  21.328   3.685  0.00  0.00     0.135 C 
BRANCH   2   3
HETATM    3  C   UNK N   1      44.310  22.145   4.524  0.00  0.00     0.141 C 
HETATM    4  O   UNK N   1      43.904  22.683   5.541  0.00  0.00    -0.650 OA
BRANCH   3   5
HETATM    5  O   UNK N   1      45.611  22.245   4.188  0.00  0.00    -0.776 OA
HETATM    6  H   UNK N   1      46.192  22.770   4.702  0.00  0.00     0.167 HD
ENDBRANCH   3   5
ENDBRANCH   2   3
ENDBRANCH   1   2
BRANCH   1   7
HETATM    7  C   UNK N   1      42.795  21.674   1.313  0.00  0.00     0.095 C 
BRANCH   7   8
HETATM    8  S   UNK N   1      44.385  22.287   0.672  0.00  0.00    -0.180 SA
HETATM    9  H   UNK N   1      44.582  23.179  -0.334  0.00  0.00     0.101 HD
ENDBRANCH   7   8
ENDBRANCH   1   7
BRANCH   1  10
HETATM   10  N   UNK N   1      42.882  23.571   2.832  0.00  0.00    -0.425 N 
HETATM   11  H   UNK N   1      42.765  24.200   2.038  0.00  0.00     0.150 HD
HETATM   12  H   UNK N   1      43.255  23.933   3.710  0.00  0.00     0.150 HD
ENDBRANCH   1  10
TORSDOF 6
ENDMDL
MODEL 8
REMARK VINA RESULT:      -3.3      2.691      3.153
REMARK  6 active torsions:
REMARK  status: ('A' for Active; 'I' for Inactive)
REMARK    1  A    between atoms: C_3  and  C_1 
REMARK    2  A    between atoms: C_4  and  C_1 
REMARK    3  A    between atoms: C_3  and  C_2 
REMARK    4  A    between atoms: S_8  and  C_2 
REMARK    5  A    between atoms: C_3  and  N_5 
REMARK    6  A    between atoms: O_7  and  C_4 
ROOT
HETATM    1  C   UNK N   1      34.507  14.267  10.101  0.00  0.00     0.092 C 
ENDROOT
BRANCH   1   2
HETATM    2  C   UNK N   1      34.712  15.387  11.120  0.00  0.00     0.135 C 
BRANCH   2   3
HETATM    3  C   UNK N   1      35.789  16.357  10.738  0.00  0.00     0.141 C 
HETATM    4  O   UNK N   1      35.491  17.462  10.315  0.00  0.00    -0.650 OA
BRANCH   3   5
HETATM    5  O   UNK N   1      37.085  16.033  10.907  0.00  0.00    -0.776 OA
HETATM    6  H   UNK N   1      37.337  15.137  11.017  0.00  0.00     0.167 HD
ENDBRANCH   3   5
ENDBRANCH   2   3
ENDBRANCH   1   2
BRANCH   1   7
HETATM    7  C   UNK N   1      35.108  12.994  10.680  0.00  0.00     0.095 C 
BRANCH   7   8
HETATM    8  S   UNK N   1      35.191  13.044  12.498  0.00  0.00    -0.180 SA
HETATM    9  H   UNK N   1      34.799  12.078  13.370  0.00  0.00     0.101 HD
ENDBRANCH   7   8
ENDBRANCH   1   7
BRANCH   1  10
HETATM   10  N   UNK N   1      35.176  14.594   8.850  0.00  0.00    -0.425 N 
HETATM   11  H   UNK N   1      35.065  14.002   8.027  0.00  0.00     0.150 HD
HETATM   12  H   UNK N   1      35.764  15.426   8.796  0.00  0.00     0.150 HD
ENDBRANCH   1  10
TORSDOF 6
ENDMDL
MODEL 9
REMARK VINA RESULT:      -3.3      5.020      5.468
REMARK  6 active torsions:
REMARK  status: ('A' for Active; 'I' for Inactive)
REMARK    1  A    between atoms: C_3  and  C_1 
REMARK    2  A    between atoms: C_4  and  C_1 
REMARK    3  A    between atoms: C_3  and  C_2 
REMARK    4  A    between atoms: S_8  and  C_2 
REMARK    5  A    between atoms: C_3  and  N_5 
REMARK    6  A    between atoms: O_7  and  C_4 
ROOT
HETATM    1  C   UNK N   1      31.063  17.662   8.169  0.00  0.00     0.092 C 
ENDROOT
BRANCH   1   2
HETATM    2  C   UNK N   1      29.563  17.382   8.257  0.00  0.00     0.135 C 
BRANCH   2   3
HETATM    3  C   UNK N   1      28.872  18.150   9.344  0.00  0.00     0.141 C 
HETATM    4  O   UNK N   1      29.530  18.759  10.171  0.00  0.00    -0.650 OA
BRANCH   3   5
HETATM    5  O   UNK N   1      27.527  18.212   9.381  0.00  0.00    -0.776 OA
HETATM    6  H   UNK N   1      27.079  18.254  10.203  0.00  0.00     0.167 HD
ENDBRANCH   3   5
ENDBRANCH   2   3
ENDBRANCH   1   2
BRANCH   1   7
HETATM    7  C   UNK N   1      31.543  17.205   6.798  0.00  0.00     0.095 C 
BRANCH   7   8
HETATM    8  S   UNK N   1      33.339  17.422   6.597  0.00  0.00    -0.180 SA
HETATM    9  H   UNK N   1      34.071  17.247   5.465  0.00  0.00     0.101 HD
ENDBRANCH   7   8
ENDBRANCH   1   7
BRANCH   1  10
HETATM   10  N   UNK N   1      31.775  16.925   9.203  0.00  0.00    -0.425 N 
HETATM   11  H   UNK N   1      32.155  15.997   9.016  0.00  0.00     0.150 HD
HETATM   12  H   UNK N   1      31.896  17.342  10.126  0.00  0.00     0.150 HD
ENDBRANCH   1  10
TORSDOF 6
ENDMDL
