MODEL 1
REMARK VINA RESULT:      -4.4      0.000      0.000
REMARK  9 active torsions:
REMARK  status: ('A' for Active; 'I' for Inactive)
REMARK    1  A    between atoms: C_3  and  C_1 
REMARK    2  A    between atoms: C_5  and  C_1 
REMARK    3  A    between atoms: C_4  and  C_2 
REMARK    4  A    between atoms: N_7  and  C_2 
REMARK    5  A    between atoms: O_11  and  C_3 
REMARK    6  A    between atoms: O_11  and  C_4 
REMARK    7  A    between atoms: C_6  and  C_5 
REMARK    8  A    between atoms: C_5  and  N_8 
REMARK    9  A    between atoms: O_10  and  C_6 
ROOT
HETATM    1  C   UNK N   1      32.129  17.611   8.546  0.00  0.00     0.061 C 
ENDROOT
BRANCH   1   2
HETATM    2  C   UNK N   1      31.356  16.961   7.410  0.00  0.00     0.170 C 
BRANCH   2   3
HETATM    3  O   UNK N   1      29.999  17.251   7.546  0.00  0.00    -0.389 OA
BRANCH   3   4
HETATM    4  C   UNK N   1      29.879  17.845   8.802  0.00  0.00     0.186 C 
BRANCH   4   5
HETATM    5  C   UNK N   1      28.513  17.535   9.381  0.00  0.00     0.137 C 
BRANCH   5   6
HETATM    6  N   UNK N   1      27.596  18.609   9.048  0.00  0.00    -0.428 N 
HETATM    7  H   UNK N   1      26.988  18.595   8.230  0.00  0.00     0.149 HD
HETATM    8  H   UNK N   1      27.558  19.420   9.665  0.00  0.00     0.149 HD
ENDBRANCH   5   6
ENDBRANCH   4   5
ENDBRANCH   3   4
ENDBRANCH   2   3
ENDBRANCH   1   2
BRANCH   1   9
HETATM    9  C   UNK N   1      33.585  17.162   8.544  0.00  0.00     0.175 C 
BRANCH   9  10
HETATM   10  C   UNK N   1      34.420  18.131   7.750  0.00  0.00     0.163 C 
HETATM   11  O   UNK N   1      34.510  18.029   6.537  0.00  0.00    -0.648 OA
BRANCH  10  12
HETATM   12  O   UNK N   1      35.061  19.134   8.382  0.00  0.00    -0.775 OA
HETATM   13  H   UNK N   1      34.782  20.020   8.260  0.00  0.00     0.167 HD
ENDBRANCH  10  12
ENDBRANCH   9  10
BRANCH   9  14
HETATM   14  N   UNK N   1      34.072  17.066   9.913  0.00  0.00    -0.417 N 
HETATM   15  H   UNK N   1      34.593  16.243  10.217  0.00  0.00     0.150 HD
HETATM   16  H   UNK N   1      33.892  17.825  10.572  0.00  0.00     0.150 HD
ENDBRANCH   9  14
ENDBRANCH   1   9
TORSDOF 9
ENDMDL
MODEL 2
REMARK VINA RESULT:      -4.3     10.759     11.449
REMARK  9 active torsions:
REMARK  status: ('A' for Active; 'I' for Inactive)
REMARK    1  A    between atoms: C_3  and  C_1 
REMARK    2  A    between atoms: C_5  and  C_1 
REMARK    3  A    between atoms: C_4  and  C_2 
REMARK    4  A    between atoms: N_7  and  C_2 
REMARK    5  A    between atoms: O_11  and  C_3 
REMARK    6  A    between atoms: O_11  and  C_4 
REMARK    7  A    between atoms: C_6  and  C_5 
REMARK    8  A    between atoms: C_5  and  N_8 
REMARK    9  A    between atoms: O_10  and  C_6 
ROOT
HETATM    1  C   UNK N   1      22.637  13.023  10.148  0.00  0.00     0.061 C 
ENDROOT
BRANCH   1   2
HETATM    2  C   UNK N   1      21.723  12.693   8.980  0.00  0.00     0.170 C 
BRANCH   2   3
HETATM    3  O   UNK N   1      20.434  13.146   9.256  0.00  0.00    -0.389 OA
BRANCH   3   4
HETATM    4  C   UNK N   1      20.577  14.509   9.518  0.00  0.00     0.186 C 
BRANCH   4   5
HETATM    5  C   UNK N   1      20.404  15.292   8.233  0.00  0.00     0.137 C 
BRANCH   5   6
HETATM    6  N   UNK N   1      20.258  16.702   8.545  0.00  0.00    -0.428 N 
HETATM    7  H   UNK N   1      20.118  17.421   7.836  0.00  0.00     0.149 HD
HETATM    8  H   UNK N   1      20.297  16.986   9.523  0.00  0.00     0.149 HD
ENDBRANCH   5   6
ENDBRANCH   4   5
ENDBRANCH   3   4
ENDBRANCH   2   3
ENDBRANCH   1   2
BRANCH   1   9
HETATM    9  C   UNK N   1      22.673  11.880  11.155  0.00  0.00     0.175 C 
BRANCH   9  10
HETATM   10  C   UNK N   1      23.776  12.110  12.154  0.00  0.00     0.163 C 
HETATM   11  O   UNK N   1      23.542  12.108  13.352  0.00  0.00    -0.648 OA
BRANCH  10  12
HETATM   12  O   UNK N   1      25.037  12.303  11.723  0.00  0.00    -0.775 OA
HETATM   13  H   UNK N   1      25.284  12.037  10.858  0.00  0.00     0.167 HD
ENDBRANCH  10  12
ENDBRANCH   9  10
BRANCH   9  14
HETATM   14  N   UNK N   1      21.384  11.777  11.828  0.00  0.00    -0.417 N 
HETATM   15  H   UNK N   1      20.665  11.151  11.466  0.00  0.00     0.150 HD
HETATM   16  H   UNK N   1      21.201  12.334  12.664  0.00  0.00     0.150 HD
ENDBRANCH   9  14
ENDBRANCH   1   9
TORSDOF 9
ENDMDL
MODEL 3
REMARK VINA RESULT:      -4.3      5.561      7.265
REMARK  9 active torsions:
REMARK  status: ('A' for Active; 'I' for Inactive)
REMARK    1  A    between atoms: C_3  and  C_1 
REMARK    2  A    between atoms: C_5  and  C_1 
REMARK    3  A    between atoms: C_4  and  C_2 
REMARK    4  A    between atoms: N_7  and  C_2 
REMARK    5  A    between atoms: O_11  and  C_3 
REMARK    6  A    between atoms: O_11  and  C_4 
REMARK    7  A    between atoms: C_6  and  C_5 
REMARK    8  A    between atoms: C_5  and  N_8 
REMARK    9  A    between atoms: O_10  and  C_6 
ROOT
HETATM    1  C   UNK N   1      35.502  13.719  11.188  0.00  0.00     0.061 C 
ENDROOT
BRANCH   1   2
HETATM    2  C   UNK N   1      35.403  12.790  12.387  0.00  0.00     0.170 C 
BRANCH   2   3
HETATM    3  O   UNK N   1      34.750  13.445  13.430  0.00  0.00    -0.389 OA
BRANCH   3   4
HETATM    4  C   UNK N   1      35.246  12.859  14.595  0.00  0.00     0.186 C 
BRANCH   4   5
HETATM    5  C   UNK N   1      36.748  13.052  14.658  0.00  0.00     0.137 C 
BRANCH   5   6
HETATM    6  N   UNK N   1      37.040  14.424  15.026  0.00  0.00    -0.428 N 
HETATM    7  H   UNK N   1      36.385  15.022  15.528  0.00  0.00     0.149 HD
HETATM    8  H   UNK N   1      37.949  14.810  14.770  0.00  0.00     0.149 HD
ENDBRANCH   5   6
ENDBRANCH   4   5
ENDBRANCH   3   4
ENDBRANCH   2   3
ENDBRANCH   1   2
BRANCH   1   9
HETATM    9  C   UNK N   1      34.853  15.066  11.485  0.00  0.00     0.175 C 
BRANCH   9  10
HETATM   10  C   UNK N   1      35.684  16.176  10.898  0.00  0.00     0.163 C 
HETATM   11  O   UNK N   1      35.158  17.201  10.494  0.00  0.00    -0.648 OA
BRANCH  10  12
HETATM   12  O   UNK N   1      37.023  16.045  10.833  0.00  0.00    -0.775 OA
HETATM   13  H   UNK N   1      37.419  15.202  10.940  0.00  0.00     0.167 HD
ENDBRANCH  10  12
ENDBRANCH   9  10
BRANCH   9  14
HETATM   14  N   UNK N   1      33.502  15.091  10.940  0.00  0.00    -0.417 N 
HETATM   15  H   UNK N   1      32.978  15.965  10.908  0.00  0.00     0.150 HD
HETATM   16  H   UNK N   1      33.079  14.231  10.589  0.00  0.00     0.150 HD
ENDBRANCH   9  14
ENDBRANCH   1   9
TORSDOF 9
ENDMDL
MODEL 4
REMARK VINA RESULT:      -4.3      3.206      4.920
REMARK  9 active torsions:
REMARK  status: ('A' for Active; 'I' for Inactive)
REMARK    1  A    between atoms: C_3  and  C_1 
REMARK    2  A    between atoms: C_5  and  C_1 
REMARK    3  A    between atoms: C_4  and  C_2 
REMARK    4  A    between atoms: N_7  and  C_2 
REMARK    5  A    between atoms: O_11  and  C_3 
REMARK    6  A    between atoms: O_11  and  C_4 
REMARK    7  A    between atoms: C_6  and  C_5 
REMARK    8  A    between atoms: C_5  and  N_8 
REMARK    9  A    between atoms: O_10  and  C_6 
ROOT
HETATM    1  C   UNK N   1      34.463  15.806   8.577  0.00  0.00     0.061 C 
ENDROOT
BRANCH   1   2
HETATM    2  C   UNK N   1      33.768  14.737   9.406  0.00  0.00     0.170 C 
BRANCH   2   3
HETATM    3  O   UNK N   1      33.832  15.082  10.755  0.00  0.00    -0.389 OA
BRANCH   3   4
HETATM    4  C   UNK N   1      34.805  14.242  11.298  0.00  0.00     0.186 C 
BRANCH   4   5
HETATM    5  C   UNK N   1      35.807  15.067  12.079  0.00  0.00     0.137 C 
BRANCH   5   6
HETATM    6  N   UNK N   1      36.834  15.555  11.177  0.00  0.00    -0.428 N 
HETATM    7  H   UNK N   1      37.800  15.717  11.461  0.00  0.00     0.149 HD
HETATM    8  H   UNK N   1      36.576  15.746  10.209  0.00  0.00     0.149 HD
ENDBRANCH   5   6
ENDBRANCH   4   5
ENDBRANCH   3   4
ENDBRANCH   2   3
ENDBRANCH   1   2
BRANCH   1   9
HETATM    9  C   UNK N   1      34.023  17.201   9.004  0.00  0.00     0.175 C 
BRANCH   9  10
HETATM   10  C   UNK N   1      34.600  18.230   8.068  0.00  0.00     0.163 C 
HETATM   11  O   UNK N   1      34.417  18.150   6.864  0.00  0.00    -0.648 OA
BRANCH  10  12
HETATM   12  O   UNK N   1      35.312  19.260   8.565  0.00  0.00    -0.775 OA
HETATM   13  H   UNK N   1      36.228  19.332   8.378  0.00  0.00     0.167 HD
ENDBRANCH  10  12
ENDBRANCH   9  10
BRANCH   9  14
HETATM   14  N   UNK N   1      32.568  17.276   9.016  0.00  0.00    -0.417 N 
HETATM   15  H   UNK N   1      32.098  18.170   8.875  0.00  0.00     0.150 HD
HETATM   16  H   UNK N   1      32.016  16.430   9.166  0.00  0.00     0.150 HD
ENDBRANCH   9  14
ENDBRANCH   1   9
TORSDOF 9
ENDMDL
MODEL 5
REMARK VINA RESULT:      -4.1      2.643      3.225
REMARK  9 active torsions:
REMARK  status: ('A' for Active; 'I' for Inactive)
REMARK    1  A    between atoms: C_3  and  C_1 
REMARK    2  A    between atoms: C_5  and  C_1 
REMARK    3  A    between atoms: C_4  and  C_2 
REMARK    4  A    between atoms: N_7  and  C_2 
REMARK    5  A    between atoms: O_11  and  C_3 
REMARK    6  A    between atoms: O_11  and  C_4 
REMARK    7  A    between atoms: C_6  and  C_5 
REMARK    8  A    between atoms: C_5  and  N_8 
REMARK    9  A    between atoms: O_10  and  C_6 
ROOT
HETATM    1  C   UNK N   1      32.431  17.148   8.862  0.00  0.00     0.061 C 
ENDROOT
BRANCH   1   2
HETATM    2  C   UNK N   1      31.751  16.371   7.745  0.00  0.00     0.170 C 
BRANCH   2   3
HETATM    3  O   UNK N   1      31.338  17.255   6.750  0.00  0.00    -0.389 OA
BRANCH   3   4
HETATM    4  C   UNK N   1      31.284  16.489   5.584  0.00  0.00     0.186 C 
BRANCH   4   5
HETATM    5  C   UNK N   1      31.444  17.392   4.378  0.00  0.00     0.137 C 
BRANCH   5   6
HETATM    6  N   UNK N   1      32.857  17.617   4.131  0.00  0.00    -0.428 N 
HETATM    7  H   UNK N   1      33.389  18.369   4.568  0.00  0.00     0.149 HD
HETATM    8  H   UNK N   1      33.341  16.991   3.489  0.00  0.00     0.149 HD
ENDBRANCH   5   6
ENDBRANCH   4   5
ENDBRANCH   3   4
ENDBRANCH   2   3
ENDBRANCH   1   2
BRANCH   1   9
HETATM    9  C   UNK N   1      33.948  17.043   8.754  0.00  0.00     0.175 C 
BRANCH   9  10
HETATM   10  C   UNK N   1      34.480  18.164   7.902  0.00  0.00     0.163 C 
HETATM   11  O   UNK N   1      35.036  19.124   8.411  0.00  0.00    -0.648 OA
BRANCH  10  12
HETATM   12  O   UNK N   1      34.358  18.100   6.562  0.00  0.00    -0.775 OA
HETATM   13  H   UNK N   1      35.109  17.926   6.029  0.00  0.00     0.167 HD
ENDBRANCH  10  12
ENDBRANCH   9  10
BRANCH   9  14
HETATM   14  N   UNK N   1      34.539  17.084  10.085  0.00  0.00    -0.417 N 
HETATM   15  H   UNK N   1      34.809  17.976  10.500  0.00  0.00     0.150 HD
HETATM   16  H   UNK N   1      34.683  16.217  10.605  0.00  0.00     0.150 HD
ENDBRANCH   9  14
ENDBRANCH   1   9
TORSDOF 9
ENDMDL
MODEL 6
REMARK VINA RESULT:      -4.1      5.833      7.103
REMARK  9 active torsions:
REMARK  status: ('A' for Active; 'I' for Inactive)
REMARK    1  A    between atoms: C_3  and  C_1 
REMARK    2  A    between atoms: C_5  and  C_1 
REMARK    3  A    between atoms: C_4  and  C_2 
REMARK    4  A    between atoms: N_7  and  C_2 
REMARK    5  A    between atoms: O_11  and  C_3 
REMARK    6  A    between atoms: O_11  and  C_4 
REMARK    7  A    between atoms: C_6  and  C_5 
REMARK    8  A    between atoms: C_5  and  N_8 
REMARK    9  A    between atoms: O_10  and  C_6 
ROOT
HETATM    1  C   UNK N   1      35.516  13.919  11.777  0.00  0.00     0.061 C 
ENDROOT
BRANCH   1   2
HETATM    2  C   UNK N   1      35.792  13.645  13.247  0.00  0.00     0.170 C 
BRANCH   2   3
HETATM    3  O   UNK N   1      34.647  13.123  13.846  0.00  0.00    -0.389 OA
BRANCH   3   4
HETATM    4  C   UNK N   1      35.018  11.853  14.291  0.00  0.00     0.186 C 
BRANCH   4   5
HETATM    5  C   UNK N   1      33.833  10.914  14.184  0.00  0.00     0.137 C 
BRANCH   5   6
HETATM    6  N   UNK N   1      33.683  10.487  12.805  0.00  0.00    -0.428 N 
HETATM    7  H   UNK N   1      32.796  10.517  12.303  0.00  0.00     0.149 HD
HETATM    8  H   UNK N   1      34.506  10.139  12.314  0.00  0.00     0.149 HD
ENDBRANCH   5   6
ENDBRANCH   4   5
ENDBRANCH   3   4
ENDBRANCH   2   3
ENDBRANCH   1   2
BRANCH   1   9
HETATM    9  C   UNK N   1      34.749  15.224  11.600  0.00  0.00     0.175 C 
BRANCH   9  10
HETATM   10  C   UNK N   1      35.638  16.259  10.963  0.00  0.00     0.163 C 
HETATM   11  O   UNK N   1      35.175  17.310  10.549  0.00  0.00    -0.648 OA
BRANCH  10  12
HETATM   12  O   UNK N   1      36.963  16.032  10.865  0.00  0.00    -0.775 OA
HETATM   13  H   UNK N   1      37.405  16.174  10.051  0.00  0.00     0.167 HD
ENDBRANCH  10  12
ENDBRANCH   9  10
BRANCH   9  14
HETATM   14  N   UNK N   1      33.565  14.992  10.783  0.00  0.00    -0.417 N 
HETATM   15  H   UNK N   1      33.020  15.779  10.432  0.00  0.00     0.150 HD
HETATM   16  H   UNK N   1      33.280  14.037  10.560  0.00  0.00     0.150 HD
ENDBRANCH   9  14
ENDBRANCH   1   9
TORSDOF 9
ENDMDL
MODEL 7
REMARK VINA RESULT:      -4.0     13.409     15.526
REMARK  9 active torsions:
REMARK  status: ('A' for Active; 'I' for Inactive)
REMARK    1  A    between atoms: C_3  and  C_1 
REMARK    2  A    between atoms: C_5  and  C_1 
REMARK    3  A    between atoms: C_4  and  C_2 
REMARK    4  A    between atoms: N_7  and  C_2 
REMARK    5  A    between atoms: O_11  and  C_3 
REMARK    6  A    between atoms: O_11  and  C_4 
REMARK    7  A    between atoms: C_6  and  C_5 
REMARK    8  A    between atoms: C_5  and  N_8 
REMARK    9  A    between atoms: O_10  and  C_6 
ROOT
HETATM    1  C   UNK N   1      43.512  22.840   0.973  0.00  0.00     0.061 C 
ENDROOT
BRANCH   1   2
HETATM    2  C   UNK N   1      43.511  24.235   0.369  0.00  0.00     0.170 C 
BRANCH   2   3
HETATM    3  O   UNK N   1      44.128  25.122   1.249  0.00  0.00    -0.389 OA
BRANCH   3   4
HETATM    4  C   UNK N   1      45.234  25.613   0.553  0.00  0.00     0.186 C 
BRANCH   4   5
HETATM    5  C   UNK N   1      46.506  25.150   1.234  0.00  0.00     0.137 C 
BRANCH   5   6
HETATM    6  N   UNK N   1      46.200  24.731   2.589  0.00  0.00    -0.428 N 
HETATM    7  H   UNK N   1      45.491  25.179   3.168  0.00  0.00     0.149 HD
HETATM    8  H   UNK N   1      46.722  23.947   2.981  0.00  0.00     0.149 HD
ENDBRANCH   5   6
ENDBRANCH   4   5
ENDBRANCH   3   4
ENDBRANCH   2   3
ENDBRANCH   1   2
BRANCH   1   9
HETATM    9  C   UNK N   1      42.501  22.735   2.109  0.00  0.00     0.175 C 
BRANCH   9  10
HETATM   10  C   UNK N   1      43.214  22.748   3.434  0.00  0.00     0.163 C 
HETATM   11  O   UNK N   1      43.472  21.705   4.014  0.00  0.00    -0.648 OA
BRANCH  10  12
HETATM   12  O   UNK N   1      43.589  23.922   3.979  0.00  0.00    -0.775 OA
HETATM   13  H   UNK N   1      43.000  24.651   3.976  0.00  0.00     0.167 HD
ENDBRANCH  10  12
ENDBRANCH   9  10
BRANCH   9  14
HETATM   14  N   UNK N   1      41.551  23.837   2.025  0.00  0.00    -0.417 N 
HETATM   15  H   UNK N   1      41.859  24.758   1.714  0.00  0.00     0.150 HD
HETATM   16  H   UNK N   1      40.574  23.686   2.279  0.00  0.00     0.150 HD
ENDBRANCH   9  14
ENDBRANCH   1   9
TORSDOF 9
ENDMDL
MODEL 8
REMARK VINA RESULT:      -4.0      3.218      4.491
REMARK  9 active torsions:
REMARK  status: ('A' for Active; 'I' for Inactive)
REMARK    1  A    between atoms: C_3  and  C_1 
REMARK    2  A    between atoms: C_5  and  C_1 
REMARK    3  A    between atoms: C_4  and  C_2 
REMARK    4  A    between atoms: N_7  and  C_2 
REMARK    5  A    between atoms: O_11  and  C_3 
REMARK    6  A    between atoms: O_11  and  C_4 
REMARK    7  A    between atoms: C_6  and  C_5 
REMARK    8  A    between atoms: C_5  and  N_8 
REMARK    9  A    between atoms: O_10  and  C_6 
ROOT
HETATM    1  C   UNK N   1      34.565  15.895   8.681  0.00  0.00     0.061 C 
ENDROOT
BRANCH   1   2
HETATM    2  C   UNK N   1      34.077  14.861   9.683  0.00  0.00     0.170 C 
BRANCH   2   3
HETATM    3  O   UNK N   1      32.967  14.199   9.162  0.00  0.00    -0.389 OA
BRANCH   3   4
HETATM    4  C   UNK N   1      33.466  13.419   8.118  0.00  0.00     0.186 C 
BRANCH   4   5
HETATM    5  C   UNK N   1      33.553  11.973   8.564  0.00  0.00     0.137 C 
BRANCH   5   6
HETATM    6  N   UNK N   1      32.413  11.661   9.406  0.00  0.00    -0.428 N 
HETATM    7  H   UNK N   1      31.788  12.370   9.789  0.00  0.00     0.149 HD
HETATM    8  H   UNK N   1      32.229  10.683   9.627  0.00  0.00     0.149 HD
ENDBRANCH   5   6
ENDBRANCH   4   5
ENDBRANCH   3   4
ENDBRANCH   2   3
ENDBRANCH   1   2
BRANCH   1   9
HETATM    9  C   UNK N   1      34.047  17.285   9.033  0.00  0.00     0.175 C 
BRANCH   9  10
HETATM   10  C   UNK N   1      34.627  18.303   8.088  0.00  0.00     0.163 C 
HETATM   11  O   UNK N   1      35.274  19.248   8.509  0.00  0.00    -0.648 OA
BRANCH  10  12
HETATM   12  O   UNK N   1      34.445  18.161   6.760  0.00  0.00    -0.775 OA
HETATM   13  H   UNK N   1      34.393  18.918   6.209  0.00  0.00     0.167 HD
ENDBRANCH  10  12
ENDBRANCH   9  10
BRANCH   9  14
HETATM   14  N   UNK N   1      32.592  17.297   8.972  0.00  0.00    -0.417 N 
HETATM   15  H   UNK N   1      32.043  16.846   9.703  0.00  0.00     0.150 HD
HETATM   16  H   UNK N   1      32.120  17.759   8.193  0.00  0.00     0.150 HD
ENDBRANCH   9  14
ENDBRANCH   1   9
TORSDOF 9
ENDMDL
MODEL 9
REMARK VINA RESULT:      -3.9      2.417      2.836
REMARK  9 active torsions:
REMARK  status: ('A' for Active; 'I' for Inactive)
REMARK    1  A    between atoms: C_3  and  C_1 
REMARK    2  A    between atoms: C_5  and  C_1 
REMARK    3  A    between atoms: C_4  and  C_2 
REMARK    4  A    between atoms: N_7  and  C_2 
REMARK    5  A    between atoms: O_11  and  C_3 
REMARK    6  A    between atoms: O_11  and  C_4 
REMARK    7  A    between atoms: C_6  and  C_5 
REMARK    8  A    between atoms: C_5  and  N_8 
REMARK    9  A    between atoms: O_10  and  C_6 
ROOT
HETATM    1  C   UNK N   1      34.141  15.381   8.511  0.00  0.00     0.061 C 
ENDROOT
BRANCH   1   2
HETATM    2  C   UNK N   1      32.667  15.754   8.522  0.00  0.00     0.170 C 
BRANCH   2   3
HETATM    3  O   UNK N   1      32.537  17.126   8.728  0.00  0.00    -0.389 OA
BRANCH   3   4
HETATM    4  C   UNK N   1      31.355  17.481   8.078  0.00  0.00     0.186 C 
BRANCH   4   5
HETATM    5  C   UNK N   1      30.186  17.318   9.029  0.00  0.00     0.137 C 
BRANCH   5   6
HETATM    6  N   UNK N   1      30.046  18.522   9.827  0.00  0.00    -0.428 N 
HETATM    7  H   UNK N   1      30.801  19.192   9.970  0.00  0.00     0.149 HD
HETATM    8  H   UNK N   1      29.145  18.707  10.268  0.00  0.00     0.149 HD
ENDBRANCH   5   6
ENDBRANCH   4   5
ENDBRANCH   3   4
ENDBRANCH   2   3
ENDBRANCH   1   2
BRANCH   1   9
HETATM    9  C   UNK N   1      34.668  15.191   9.928  0.00  0.00     0.175 C 
BRANCH   9  10
HETATM   10  C   UNK N   1      35.582  16.330  10.292  0.00  0.00     0.163 C 
HETATM   11  O   UNK N   1      36.656  16.119  10.833  0.00  0.00    -0.648 OA
BRANCH  10  12
HETATM   12  O   UNK N   1      35.221  17.596  10.003  0.00  0.00    -0.775 OA
HETATM   13  H   UNK N   1      34.800  17.790   9.188  0.00  0.00     0.167 HD
ENDBRANCH  10  12
ENDBRANCH   9  10
BRANCH   9  14
HETATM   14  N   UNK N   1      33.551  15.111  10.861  0.00  0.00    -0.417 N 
HETATM   15  H   UNK N   1      32.837  14.392  10.747  0.00  0.00     0.150 HD
HETATM   16  H   UNK N   1      33.484  15.776  11.632  0.00  0.00     0.150 HD
ENDBRANCH   9  14
ENDBRANCH   1   9
TORSDOF 9
ENDMDL
