MODEL 1
REMARK VINA RESULT:      -9.0      0.000      0.000
REMARK  19 active torsions:
REMARK  status: ('A' for Active; 'I' for Inactive)
REMARK    1  A    between atoms: C_21  and  C_19 
REMARK    2  A    between atoms: C_25  and  C_19 
REMARK    3  A    between atoms: C_22  and  C_20 
REMARK    4  A    between atoms: C_26  and  C_20 
REMARK    5  A    between atoms: C_31  and  C_21 
REMARK    6  A    between atoms: C_32  and  C_22 
REMARK    7  A    between atoms: C_37  and  C_31 
REMARK    8  A    between atoms: C_31  and  C_39 
REMARK    9  A    between atoms: C_38  and  C_32 
REMARK   10  A    between atoms: C_32  and  C_40 
REMARK   11  A    between atoms: C_33  and  O_45 
REMARK   12  A    between atoms: C_34  and  O_46 
REMARK   13  A    between atoms: C_35  and  N_41 
REMARK   14  A    between atoms: C_36  and  N_43 
REMARK   15  A    between atoms: C_38  and  C_37 
REMARK   16  A    between atoms: C_37  and  O_47 
REMARK   17  A    between atoms: C_38  and  O_48 
REMARK   18  A    between atoms: C_39  and  O_49 
REMARK   19  A    between atoms: C_40  and  O_50 
ROOT
HETATM    1  C   UNK N   1      34.580  16.099   9.758  0.00  0.00     0.159 C 
ENDROOT
BRANCH   1   2
HETATM    2  C   UNK N   1      33.272  16.044   8.913  0.00  0.00     0.091 C 
BRANCH   2   3
HETATM    3  C   UNK N   1      33.346  15.272   7.584  0.00  0.00     0.020 C 
BRANCH   3   4
HETATM    4  C   UNK N   1      34.416  15.716   6.593  0.00  0.00     0.039 C 
BRANCH   4   5
HETATM    5  C   UNK N   1      33.763  16.088   5.297  0.00  0.00    -0.058 A 
HETATM    6  C   UNK N   1      33.334  17.404   5.089  0.00  0.00     0.007 A 
HETATM    7  C   UNK N   1      32.732  17.764   3.877  0.00  0.00     0.001 A 
HETATM    8  C   UNK N   1      32.558  16.810   2.871  0.00  0.00     0.000 A 
HETATM    9  C   UNK N   1      32.985  15.494   3.075  0.00  0.00     0.001 A 
HETATM   10  C   UNK N   1      33.585  15.132   4.286  0.00  0.00     0.007 A 
ENDBRANCH   4   5
ENDBRANCH   3   4
ENDBRANCH   2   3
BRANCH   2  11
HETATM   11  C   UNK N   1      32.835  17.478   8.600  0.00  0.00     0.118 C 
HETATM   12  N   UNK N   1      31.615  17.889   8.643  0.00  0.00    -0.363 N 
ATOM     13  HN  UNK N   1      31.472  18.891   8.516  1.00  0.00     0.162 HD
BRANCH  12  14
HETATM   14  C   UNK N   1      30.426  17.093   8.849  0.00  0.00     0.146 C 
HETATM   15  C   UNK N   1      29.814  16.956   7.517  0.00  0.00    -0.027 A 
HETATM   16  C   UNK N   1      30.322  16.209   6.451  0.00  0.00     0.010 A 
HETATM   17  C   UNK N   1      28.741  17.790   7.356  0.00  0.00    -0.047 A 
HETATM   18  C   UNK N   1      29.680  16.291   5.208  0.00  0.00     0.001 A 
HETATM   19  C   UNK N   1      28.566  17.133   5.045  0.00  0.00     0.001 A 
HETATM   20  C   UNK N   1      28.098  17.902   6.123  0.00  0.00     0.008 A 
HETATM   21  C   UNK N   1      28.463  18.594   8.569  0.00  0.00     0.073 C 
HETATM   22  C   UNK N   1      29.330  17.870   9.614  0.00  0.00     0.149 C 
BRANCH  22  23
HETATM   23  O   UNK N   1      29.849  18.735  10.579  0.00  0.00    -0.393 OA
HETATM   24  H   UNK N   1      29.413  19.530  10.926  0.00  0.00     0.210 HD
ENDBRANCH  22  23
ENDBRANCH  12  14
BRANCH  11  25
HETATM   25  O   UNK N   1      33.783  18.371   8.243  0.00  0.00    -0.349 OA
HETATM   26  H   UNK N   1      34.319  19.138   8.230  0.00  0.00     0.219 HD
ENDBRANCH  11  25
ENDBRANCH   2  11
ENDBRANCH   1   2
BRANCH   1  27
HETATM   27  C   UNK N   1      34.965  14.825  10.606  0.00  0.00     0.159 C 
BRANCH  27  28
HETATM   28  C   UNK N   1      36.310  14.200  11.128  0.00  0.00     0.091 C 
BRANCH  28  29
HETATM   29  C   UNK N   1      36.891  12.963  10.422  0.00  0.00     0.020 C 
BRANCH  29  30
HETATM   30  C   UNK N   1      36.006  12.087   9.557  0.00  0.00     0.039 C 
BRANCH  30  31
HETATM   31  C   UNK N   1      35.545  10.941  10.417  0.00  0.00    -0.058 A 
HETATM   32  C   UNK N   1      36.411   9.872  10.678  0.00  0.00     0.007 A 
HETATM   33  C   UNK N   1      36.018   8.832  11.528  0.00  0.00     0.001 A 
HETATM   34  C   UNK N   1      34.752   8.854  12.118  0.00  0.00     0.000 A 
HETATM   35  C   UNK N   1      33.878   9.912  11.858  0.00  0.00     0.001 A 
HETATM   36  C   UNK N   1      34.274  10.958  11.014  0.00  0.00     0.007 A 
ENDBRANCH  30  31
ENDBRANCH  29  30
ENDBRANCH  28  29
BRANCH  28  37
HETATM   37  C   UNK N   1      36.208  14.091  12.675  0.00  0.00     0.118 C 
HETATM   38  N   UNK N   1      35.985  12.978  13.267  0.00  0.00    -0.363 N 
ATOM     39  HN  UNK N   1      35.725  12.180  12.685  1.00  0.00     0.162 HD
BRANCH  38  40
HETATM   40  C   UNK N   1      36.073  12.756  14.723  0.00  0.00     0.146 C 
HETATM   41  C   UNK N   1      36.497  11.420  15.181  0.00  0.00    -0.027 A 
HETATM   42  C   UNK N   1      37.192  10.434  14.482  0.00  0.00     0.010 A 
HETATM   43  C   UNK N   1      36.165  11.257  16.507  0.00  0.00    -0.047 A 
HETATM   44  C   UNK N   1      37.554   9.262  15.167  0.00  0.00     0.001 A 
HETATM   45  C   UNK N   1      37.230   9.106  16.530  0.00  0.00     0.001 A 
HETATM   46  C   UNK N   1      36.521  10.109  17.208  0.00  0.00     0.008 A 
HETATM   47  C   UNK N   1      35.379  12.408  17.029  0.00  0.00     0.073 C 
HETATM   48  C   UNK N   1      34.878  13.014  15.702  0.00  0.00     0.149 C 
BRANCH  48  49
HETATM   49  O   UNK N   1      33.744  12.268  15.349  0.00  0.00    -0.393 OA
HETATM   50  H   UNK N   1      33.128  11.538  15.175  0.00  0.00     0.210 HD
ENDBRANCH  48  49
ENDBRANCH  38  40
BRANCH  37  51
HETATM   51  O   UNK N   1      36.478  15.197  13.408  0.00  0.00    -0.349 OA
HETATM   52  H   UNK N   1      36.709  16.063  13.131  0.00  0.00     0.219 HD
ENDBRANCH  37  51
ENDBRANCH  28  37
ENDBRANCH  27  28
BRANCH  27  53
HETATM   53  O   UNK N   1      33.958  14.450  11.500  0.00  0.00    -0.392 OA
HETATM   54  H   UNK N   1      33.308  13.737  11.402  0.00  0.00     0.210 HD
ENDBRANCH  27  53
ENDBRANCH   1  27
BRANCH   1  55
HETATM   55  O   UNK N   1      34.591  17.259  10.523  0.00  0.00    -0.392 OA
HETATM   56  H   UNK N   1      34.189  17.265  11.405  0.00  0.00     0.210 HD
ENDBRANCH   1  55
TORSDOF 19
ENDMDL
MODEL 2
REMARK VINA RESULT:      -9.0      6.784     11.936
REMARK  19 active torsions:
REMARK  status: ('A' for Active; 'I' for Inactive)
REMARK    1  A    between atoms: C_21  and  C_19 
REMARK    2  A    between atoms: C_25  and  C_19 
REMARK    3  A    between atoms: C_22  and  C_20 
REMARK    4  A    between atoms: C_26  and  C_20 
REMARK    5  A    between atoms: C_31  and  C_21 
REMARK    6  A    between atoms: C_32  and  C_22 
REMARK    7  A    between atoms: C_37  and  C_31 
REMARK    8  A    between atoms: C_31  and  C_39 
REMARK    9  A    between atoms: C_38  and  C_32 
REMARK   10  A    between atoms: C_32  and  C_40 
REMARK   11  A    between atoms: C_33  and  O_45 
REMARK   12  A    between atoms: C_34  and  O_46 
REMARK   13  A    between atoms: C_35  and  N_41 
REMARK   14  A    between atoms: C_36  and  N_43 
REMARK   15  A    between atoms: C_38  and  C_37 
REMARK   16  A    between atoms: C_37  and  O_47 
REMARK   17  A    between atoms: C_38  and  O_48 
REMARK   18  A    between atoms: C_39  and  O_49 
REMARK   19  A    between atoms: C_40  and  O_50 
ROOT
HETATM    1  C   UNK N   1      23.459  18.555   3.708  0.00  0.00     0.159 C 
ENDROOT
BRANCH   1   2
HETATM    2  C   UNK N   1      22.583  17.381   4.239  0.00  0.00     0.091 C 
BRANCH   2   3
HETATM    3  C   UNK N   1      21.088  17.421   3.874  0.00  0.00     0.020 C 
BRANCH   3   4
HETATM    4  C   UNK N   1      20.740  17.275   2.398  0.00  0.00     0.039 C 
BRANCH   4   5
HETATM    5  C   UNK N   1      20.234  15.888   2.145  0.00  0.00    -0.058 A 
HETATM    6  C   UNK N   1      19.731  15.128   3.207  0.00  0.00     0.007 A 
HETATM    7  C   UNK N   1      19.248  13.834   2.980  0.00  0.00     0.001 A 
HETATM    8  C   UNK N   1      19.265  13.297   1.689  0.00  0.00     0.000 A 
HETATM    9  C   UNK N   1      19.767  14.053   0.625  0.00  0.00     0.001 A 
HETATM   10  C   UNK N   1      20.253  15.345   0.852  0.00  0.00     0.007 A 
ENDBRANCH   4   5
ENDBRANCH   3   4
ENDBRANCH   2   3
BRANCH   2  11
HETATM   11  C   UNK N   1      22.694  17.343   5.765  0.00  0.00     0.118 C 
HETATM   12  N   UNK N   1      23.318  16.428   6.424  0.00  0.00    -0.363 N 
ATOM     13  HN  UNK N   1      23.406  16.577   7.429  1.00  0.00     0.162 HD
BRANCH  12  14
HETATM   14  C   UNK N   1      23.905  15.215   5.902  0.00  0.00     0.146 C 
HETATM   15  C   UNK N   1      22.981  14.137   6.292  0.00  0.00    -0.027 A 
HETATM   16  C   UNK N   1      21.699  13.926   5.778  0.00  0.00     0.010 A 
HETATM   17  C   UNK N   1      23.446  13.424   7.363  0.00  0.00    -0.047 A 
HETATM   18  C   UNK N   1      20.901  12.928   6.353  0.00  0.00     0.001 A 
HETATM   19  C   UNK N   1      21.384  12.182   7.443  0.00  0.00     0.001 A 
HETATM   20  C   UNK N   1      22.663  12.439   7.965  0.00  0.00     0.008 A 
HETATM   21  C   UNK N   1      24.764  13.908   7.836  0.00  0.00     0.073 C 
HETATM   22  C   UNK N   1      25.188  14.813   6.666  0.00  0.00     0.149 C 
BRANCH  22  23
HETATM   23  O   UNK N   1      25.943  15.914   7.078  0.00  0.00    -0.393 OA
HETATM   24  H   UNK N   1      26.878  15.898   7.338  0.00  0.00     0.210 HD
ENDBRANCH  22  23
ENDBRANCH  12  14
BRANCH  11  25
HETATM   25  O   UNK N   1      22.090  18.321   6.473  0.00  0.00    -0.349 OA
HETATM   26  H   UNK N   1      21.434  18.819   6.918  0.00  0.00     0.219 HD
ENDBRANCH  11  25
ENDBRANCH   2  11
ENDBRANCH   1   2
BRANCH   1  27
HETATM   27  C   UNK N   1      24.940  18.670   4.240  0.00  0.00     0.159 C 
BRANCH  27  28
HETATM   28  C   UNK N   1      26.314  18.009   3.858  0.00  0.00     0.091 C 
BRANCH  28  29
HETATM   29  C   UNK N   1      26.365  16.505   3.539  0.00  0.00     0.020 C 
BRANCH  29  30
HETATM   30  C   UNK N   1      25.877  15.987   2.201  0.00  0.00     0.039 C 
BRANCH  30  31
HETATM   31  C   UNK N   1      25.111  14.720   2.471  0.00  0.00    -0.058 A 
HETATM   32  C   UNK N   1      25.726  13.666   3.158  0.00  0.00     0.007 A 
HETATM   33  C   UNK N   1      25.006  12.509   3.473  0.00  0.00     0.001 A 
HETATM   34  C   UNK N   1      23.666  12.396   3.095  0.00  0.00     0.000 A 
HETATM   35  C   UNK N   1      23.045  13.439   2.402  0.00  0.00     0.001 A 
HETATM   36  C   UNK N   1      23.763  14.602   2.095  0.00  0.00     0.007 A 
ENDBRANCH  30  31
ENDBRANCH  29  30
ENDBRANCH  28  29
BRANCH  28  37
HETATM   37  C   UNK N   1      27.374  18.503   4.882  0.00  0.00     0.118 C 
HETATM   38  N   UNK N   1      27.378  18.113   6.101  0.00  0.00    -0.363 N 
ATOM     39  HN  UNK N   1      26.572  17.578   6.426  1.00  0.00     0.162 HD
BRANCH  38  40
HETATM   40  C   UNK N   1      28.456  18.374   7.075  0.00  0.00     0.146 C 
HETATM   41  C   UNK N   1      29.543  17.383   7.167  0.00  0.00    -0.027 A 
HETATM   42  C   UNK N   1      29.935  16.423   6.234  0.00  0.00     0.010 A 
HETATM   43  C   UNK N   1      30.236  17.560   8.342  0.00  0.00    -0.047 A 
HETATM   44  C   UNK N   1      31.064  15.638   6.520  0.00  0.00     0.001 A 
HETATM   45  C   UNK N   1      31.782  15.834   7.716  0.00  0.00     0.001 A 
HETATM   46  C   UNK N   1      31.362  16.800   8.643  0.00  0.00     0.008 A 
HETATM   47  C   UNK N   1      29.608  18.596   9.207  0.00  0.00     0.073 C 
HETATM   48  C   UNK N   1      28.191  18.630   8.597  0.00  0.00     0.149 C 
BRANCH  48  49
HETATM   49  O   UNK N   1      27.496  17.567   9.192  0.00  0.00    -0.393 OA
HETATM   50  H   UNK N   1      27.274  16.769   9.698  0.00  0.00     0.210 HD
ENDBRANCH  48  49
ENDBRANCH  38  40
BRANCH  37  51
HETATM   51  O   UNK N   1      28.382  19.283   4.425  0.00  0.00    -0.349 OA
HETATM   52  H   UNK N   1      29.260  19.057   4.187  0.00  0.00     0.219 HD
ENDBRANCH  37  51
ENDBRANCH  28  37
ENDBRANCH  27  28
BRANCH  27  53
HETATM   53  O   UNK N   1      25.220  19.928   4.782  0.00  0.00    -0.392 OA
HETATM   54  H   UNK N   1      25.051  20.798   4.390  0.00  0.00     0.210 HD
ENDBRANCH  27  53
ENDBRANCH   1  27
BRANCH   1  55
HETATM   55  O   UNK N   1      22.762  19.751   3.838  0.00  0.00    -0.392 OA
HETATM   56  H   UNK N   1      21.887  19.852   3.433  0.00  0.00     0.210 HD
ENDBRANCH   1  55
TORSDOF 19
ENDMDL
MODEL 3
REMARK VINA RESULT:      -9.0      1.419      2.615
REMARK  19 active torsions:
REMARK  status: ('A' for Active; 'I' for Inactive)
REMARK    1  A    between atoms: C_21  and  C_19 
REMARK    2  A    between atoms: C_25  and  C_19 
REMARK    3  A    between atoms: C_22  and  C_20 
REMARK    4  A    between atoms: C_26  and  C_20 
REMARK    5  A    between atoms: C_31  and  C_21 
REMARK    6  A    between atoms: C_32  and  C_22 
REMARK    7  A    between atoms: C_37  and  C_31 
REMARK    8  A    between atoms: C_31  and  C_39 
REMARK    9  A    between atoms: C_38  and  C_32 
REMARK   10  A    between atoms: C_32  and  C_40 
REMARK   11  A    between atoms: C_33  and  O_45 
REMARK   12  A    between atoms: C_34  and  O_46 
REMARK   13  A    between atoms: C_35  and  N_41 
REMARK   14  A    between atoms: C_36  and  N_43 
REMARK   15  A    between atoms: C_38  and  C_37 
REMARK   16  A    between atoms: C_37  and  O_47 
REMARK   17  A    between atoms: C_38  and  O_48 
REMARK   18  A    between atoms: C_39  and  O_49 
REMARK   19  A    between atoms: C_40  and  O_50 
ROOT
HETATM    1  C   UNK N   1      34.602  16.077   9.740  0.00  0.00     0.159 C 
ENDROOT
BRANCH   1   2
HETATM    2  C   UNK N   1      33.305  16.040   8.878  0.00  0.00     0.091 C 
BRANCH   2   3
HETATM    3  C   UNK N   1      33.402  15.319   7.523  0.00  0.00     0.020 C 
BRANCH   3   4
HETATM    4  C   UNK N   1      34.438  15.847   6.539  0.00  0.00     0.039 C 
BRANCH   4   5
HETATM    5  C   UNK N   1      33.762  16.192   5.248  0.00  0.00    -0.058 A 
HETATM    6  C   UNK N   1      33.566  15.200   4.279  0.00  0.00     0.007 A 
HETATM    7  C   UNK N   1      32.926  15.511   3.074  0.00  0.00     0.001 A 
HETATM    8  C   UNK N   1      32.479  16.814   2.834  0.00  0.00     0.000 A 
HETATM    9  C   UNK N   1      32.673  17.808   3.798  0.00  0.00     0.001 A 
HETATM   10  C   UNK N   1      33.314  17.499   5.002  0.00  0.00     0.007 A 
ENDBRANCH   4   5
ENDBRANCH   3   4
ENDBRANCH   2   3
BRANCH   2  11
HETATM   11  C   UNK N   1      32.857  17.480   8.614  0.00  0.00     0.118 C 
HETATM   12  N   UNK N   1      31.635  17.884   8.682  0.00  0.00    -0.363 N 
ATOM     13  HN  UNK N   1      31.486  18.888   8.587  1.00  0.00     0.162 HD
BRANCH  12  14
HETATM   14  C   UNK N   1      30.452  17.076   8.878  0.00  0.00     0.146 C 
HETATM   15  C   UNK N   1      29.852  16.935   7.541  0.00  0.00    -0.027 A 
HETATM   16  C   UNK N   1      30.375  16.196   6.477  0.00  0.00     0.010 A 
HETATM   17  C   UNK N   1      28.772  17.759   7.374  0.00  0.00    -0.047 A 
HETATM   18  C   UNK N   1      29.741  16.274   5.230  0.00  0.00     0.001 A 
HETATM   19  C   UNK N   1      28.620  17.105   5.061  0.00  0.00     0.001 A 
HETATM   20  C   UNK N   1      28.136  17.868   6.137  0.00  0.00     0.008 A 
HETATM   21  C   UNK N   1      28.477  18.558   8.587  0.00  0.00     0.073 C 
HETATM   22  C   UNK N   1      29.343  17.840   9.637  0.00  0.00     0.149 C 
BRANCH  22  23
HETATM   23  O   UNK N   1      29.847  18.708  10.608  0.00  0.00    -0.393 OA
HETATM   24  H   UNK N   1      30.692  19.184  10.563  0.00  0.00     0.210 HD
ENDBRANCH  22  23
ENDBRANCH  12  14
BRANCH  11  25
HETATM   25  O   UNK N   1      33.796  18.389   8.273  0.00  0.00    -0.349 OA
HETATM   26  H   UNK N   1      34.591  18.883   8.265  0.00  0.00     0.219 HD
ENDBRANCH  11  25
ENDBRANCH   2  11
ENDBRANCH   1   2
BRANCH   1  27
HETATM   27  C   UNK N   1      35.017  14.760  10.506  0.00  0.00     0.159 C 
BRANCH  27  28
HETATM   28  C   UNK N   1      36.360  13.970  10.714  0.00  0.00     0.091 C 
BRANCH  28  29
HETATM   29  C   UNK N   1      36.914  13.108   9.567  0.00  0.00     0.020 C 
BRANCH  29  30
HETATM   30  C   UNK N   1      35.970  12.387   8.624  0.00  0.00     0.039 C 
BRANCH  30  31
HETATM   31  C   UNK N   1      36.309  12.841   7.229  0.00  0.00    -0.058 A 
HETATM   32  C   UNK N   1      37.329  13.780   7.030  0.00  0.00     0.007 A 
HETATM   33  C   UNK N   1      37.698  14.162   5.735  0.00  0.00     0.001 A 
HETATM   34  C   UNK N   1      37.044  13.610   4.631  0.00  0.00     0.000 A 
HETATM   35  C   UNK N   1      36.019  12.678   4.821  0.00  0.00     0.001 A 
HETATM   36  C   UNK N   1      35.656  12.288   6.116  0.00  0.00     0.007 A 
ENDBRANCH  30  31
ENDBRANCH  29  30
ENDBRANCH  28  29
BRANCH  28  37
HETATM   37  C   UNK N   1      36.277  13.260  12.094  0.00  0.00     0.118 C 
HETATM   38  N   UNK N   1      36.823  13.745  13.145  0.00  0.00    -0.363 N 
ATOM     39  HN  UNK N   1      37.448  14.544  13.024  1.00  0.00     0.162 HD
BRANCH  38  40
HETATM   40  C   UNK N   1      36.624  13.243  14.518  0.00  0.00     0.146 C 
HETATM   41  C   UNK N   1      37.024  11.851  14.796  0.00  0.00    -0.027 A 
HETATM   42  C   UNK N   1      37.905  11.035  14.088  0.00  0.00     0.010 A 
HETATM   43  C   UNK N   1      36.438  11.424  15.966  0.00  0.00    -0.047 A 
HETATM   44  C   UNK N   1      38.188   9.759  14.602  0.00  0.00     0.001 A 
HETATM   45  C   UNK N   1      37.602   9.331  15.810  0.00  0.00     0.001 A 
HETATM   46  C   UNK N   1      36.710  10.167  16.498  0.00  0.00     0.008 A 
HETATM   47  C   UNK N   1      35.494  12.435  16.516  0.00  0.00     0.073 C 
HETATM   48  C   UNK N   1      35.241  13.281  15.251  0.00  0.00     0.149 C 
BRANCH  48  49
HETATM   49  O   UNK N   1      34.249  12.598  14.531  0.00  0.00    -0.393 OA
HETATM   50  H   UNK N   1      33.493  12.390  13.959  0.00  0.00     0.210 HD
ENDBRANCH  48  49
ENDBRANCH  38  40
BRANCH  37  51
HETATM   51  O   UNK N   1      35.504  12.152  12.192  0.00  0.00    -0.349 OA
HETATM   52  H   UNK N   1      34.619  12.058  12.485  0.00  0.00     0.219 HD
ENDBRANCH  37  51
ENDBRANCH  28  37
ENDBRANCH  27  28
BRANCH  27  53
HETATM   53  O   UNK N   1      34.210  14.509  11.619  0.00  0.00    -0.392 OA
HETATM   54  H   UNK N   1      34.372  13.888  12.346  0.00  0.00     0.210 HD
ENDBRANCH  27  53
ENDBRANCH   1  27
BRANCH   1  55
HETATM   55  O   UNK N   1      34.571  17.183  10.582  0.00  0.00    -0.392 OA
HETATM   56  H   UNK N   1      35.360  17.433  11.086  0.00  0.00     0.210 HD
ENDBRANCH   1  55
TORSDOF 19
ENDMDL
MODEL 4
REMARK VINA RESULT:      -8.8     10.680     14.461
REMARK  19 active torsions:
REMARK  status: ('A' for Active; 'I' for Inactive)
REMARK    1  A    between atoms: C_21  and  C_19 
REMARK    2  A    between atoms: C_25  and  C_19 
REMARK    3  A    between atoms: C_22  and  C_20 
REMARK    4  A    between atoms: C_26  and  C_20 
REMARK    5  A    between atoms: C_31  and  C_21 
REMARK    6  A    between atoms: C_32  and  C_22 
REMARK    7  A    between atoms: C_37  and  C_31 
REMARK    8  A    between atoms: C_31  and  C_39 
REMARK    9  A    between atoms: C_38  and  C_32 
REMARK   10  A    between atoms: C_32  and  C_40 
REMARK   11  A    between atoms: C_33  and  O_45 
REMARK   12  A    between atoms: C_34  and  O_46 
REMARK   13  A    between atoms: C_35  and  N_41 
REMARK   14  A    between atoms: C_36  and  N_43 
REMARK   15  A    between atoms: C_38  and  C_37 
REMARK   16  A    between atoms: C_37  and  O_47 
REMARK   17  A    between atoms: C_38  and  O_48 
REMARK   18  A    between atoms: C_39  and  O_49 
REMARK   19  A    between atoms: C_40  and  O_50 
ROOT
HETATM    1  C   UNK N   1      19.884  14.563   6.430  0.00  0.00     0.159 C 
ENDROOT
BRANCH   1   2
HETATM    2  C   UNK N   1      21.294  15.220   6.528  0.00  0.00     0.091 C 
BRANCH   2   3
HETATM    3  C   UNK N   1      22.183  14.765   7.699  0.00  0.00     0.020 C 
BRANCH   3   4
HETATM    4  C   UNK N   1      21.479  14.090   8.870  0.00  0.00     0.039 C 
BRANCH   4   5
HETATM    5  C   UNK N   1      22.490  13.355   9.695  0.00  0.00    -0.058 A 
HETATM    6  C   UNK N   1      22.081  12.659  10.838  0.00  0.00     0.007 A 
HETATM    7  C   UNK N   1      23.017  11.960  11.610  0.00  0.00     0.001 A 
HETATM    8  C   UNK N   1      24.365  11.955  11.240  0.00  0.00     0.000 A 
HETATM    9  C   UNK N   1      24.779  12.650  10.099  0.00  0.00     0.001 A 
HETATM   10  C   UNK N   1      23.844  13.350   9.328  0.00  0.00     0.007 A 
ENDBRANCH   4   5
ENDBRANCH   3   4
ENDBRANCH   2   3
BRANCH   2  11
HETATM   11  C   UNK N   1      21.117  16.737   6.633  0.00  0.00     0.118 C 
HETATM   12  N   UNK N   1      21.092  17.536   5.623  0.00  0.00    -0.363 N 
ATOM     13  HN  UNK N   1      20.862  18.509   5.823  1.00  0.00     0.162 HD
BRANCH  12  14
HETATM   14  C   UNK N   1      21.354  17.211   4.239  0.00  0.00     0.146 C 
HETATM   15  C   UNK N   1      22.180  18.318   3.729  0.00  0.00    -0.027 A 
HETATM   16  C   UNK N   1      23.505  18.587   4.082  0.00  0.00     0.010 A 
HETATM   17  C   UNK N   1      21.453  19.193   2.968  0.00  0.00    -0.047 A 
HETATM   18  C   UNK N   1      24.103  19.758   3.600  0.00  0.00     0.001 A 
HETATM   19  C   UNK N   1      23.364  20.650   2.803  0.00  0.00     0.001 A 
HETATM   20  C   UNK N   1      22.021  20.375   2.493  0.00  0.00     0.008 A 
HETATM   21  C   UNK N   1      20.034  18.786   2.838  0.00  0.00     0.073 C 
HETATM   22  C   UNK N   1      20.088  17.340   3.361  0.00  0.00     0.149 C 
BRANCH  22  23
HETATM   23  O   UNK N   1      18.921  16.962   4.029  0.00  0.00    -0.393 OA
HETATM   24  H   UNK N   1      18.852  16.270   4.706  0.00  0.00     0.210 HD
ENDBRANCH  22  23
ENDBRANCH  12  14
BRANCH  11  25
HETATM   25  O   UNK N   1      20.991  17.281   7.863  0.00  0.00    -0.349 OA
HETATM   26  H   UNK N   1      20.744  17.859   8.556  0.00  0.00     0.219 HD
ENDBRANCH  11  25
ENDBRANCH   2  11
ENDBRANCH   1   2
BRANCH   1  27
HETATM   27  C   UNK N   1      19.567  13.681   5.160  0.00  0.00     0.159 C 
BRANCH  27  28
HETATM   28  C   UNK N   1      19.938  12.226   4.695  0.00  0.00     0.091 C 
BRANCH  28  29
HETATM   29  C   UNK N   1      20.300  11.166   5.750  0.00  0.00     0.020 C 
BRANCH  29  30
HETATM   30  C   UNK N   1      21.427  11.416   6.733  0.00  0.00     0.039 C 
BRANCH  30  31
HETATM   31  C   UNK N   1      22.702  10.985   6.060  0.00  0.00    -0.058 A 
HETATM   32  C   UNK N   1      22.780   9.725   5.453  0.00  0.00     0.007 A 
HETATM   33  C   UNK N   1      23.937   9.337   4.769  0.00  0.00     0.001 A 
HETATM   34  C   UNK N   1      25.027  10.207   4.691  0.00  0.00     0.000 A 
HETATM   35  C   UNK N   1      24.962  11.463   5.300  0.00  0.00     0.001 A 
HETATM   36  C   UNK N   1      23.801  11.855   5.978  0.00  0.00     0.007 A 
ENDBRANCH  30  31
ENDBRANCH  29  30
ENDBRANCH  28  29
BRANCH  28  37
HETATM   37  C   UNK N   1      20.940  12.352   3.513  0.00  0.00     0.118 C 
HETATM   38  N   UNK N   1      21.709  13.366   3.376  0.00  0.00    -0.363 N 
ATOM     39  HN  UNK N   1      21.542  14.168   3.984  1.00  0.00     0.162 HD
BRANCH  38  40
HETATM   40  C   UNK N   1      22.817  13.469   2.407  0.00  0.00     0.146 C 
HETATM   41  C   UNK N   1      23.928  14.379   2.742  0.00  0.00    -0.027 A 
HETATM   42  C   UNK N   1      24.304  14.882   3.986  0.00  0.00     0.010 A 
HETATM   43  C   UNK N   1      24.662  14.652   1.610  0.00  0.00    -0.047 A 
HETATM   44  C   UNK N   1      25.460  15.677   4.062  0.00  0.00     0.001 A 
HETATM   45  C   UNK N   1      26.220  15.939   2.904  0.00  0.00     0.001 A 
HETATM   46  C   UNK N   1      25.815  15.429   1.662  0.00  0.00     0.008 A 
HETATM   47  C   UNK N   1      24.045  14.059   0.391  0.00  0.00     0.073 C 
HETATM   48  C   UNK N   1      22.606  13.839   0.900  0.00  0.00     0.149 C 
BRANCH  48  49
HETATM   49  O   UNK N   1      21.958  15.073   0.752  0.00  0.00    -0.393 OA
HETATM   50  H   UNK N   1      21.731  16.016   0.800  0.00  0.00     0.210 HD
ENDBRANCH  48  49
ENDBRANCH  38  40
BRANCH  37  51
HETATM   51  O   UNK N   1      21.070  11.294   2.677  0.00  0.00    -0.349 OA
HETATM   52  H   UNK N   1      21.318  10.409   2.858  0.00  0.00     0.219 HD
ENDBRANCH  37  51
ENDBRANCH  28  37
ENDBRANCH  27  28
BRANCH  27  53
HETATM   53  O   UNK N   1      18.341  14.006   4.572  0.00  0.00    -0.392 OA
HETATM   54  H   UNK N   1      17.986  14.888   4.381  0.00  0.00     0.210 HD
ENDBRANCH  27  53
ENDBRANCH   1  27
BRANCH   1  55
HETATM   55  O   UNK N   1      18.906  15.525   6.655  0.00  0.00    -0.392 OA
HETATM   56  H   UNK N   1      19.095  16.461   6.487  0.00  0.00     0.210 HD
ENDBRANCH   1  55
TORSDOF 19
ENDMDL
MODEL 5
REMARK VINA RESULT:      -8.8      1.611      2.957
REMARK  19 active torsions:
REMARK  status: ('A' for Active; 'I' for Inactive)
REMARK    1  A    between atoms: C_21  and  C_19 
REMARK    2  A    between atoms: C_25  and  C_19 
REMARK    3  A    between atoms: C_22  and  C_20 
REMARK    4  A    between atoms: C_26  and  C_20 
REMARK    5  A    between atoms: C_31  and  C_21 
REMARK    6  A    between atoms: C_32  and  C_22 
REMARK    7  A    between atoms: C_37  and  C_31 
REMARK    8  A    between atoms: C_31  and  C_39 
REMARK    9  A    between atoms: C_38  and  C_32 
REMARK   10  A    between atoms: C_32  and  C_40 
REMARK   11  A    between atoms: C_33  and  O_45 
REMARK   12  A    between atoms: C_34  and  O_46 
REMARK   13  A    between atoms: C_35  and  N_41 
REMARK   14  A    between atoms: C_36  and  N_43 
REMARK   15  A    between atoms: C_38  and  C_37 
REMARK   16  A    between atoms: C_37  and  O_47 
REMARK   17  A    between atoms: C_38  and  O_48 
REMARK   18  A    between atoms: C_39  and  O_49 
REMARK   19  A    between atoms: C_40  and  O_50 
ROOT
HETATM    1  C   UNK N   1      34.500  15.821   9.814  0.00  0.00     0.159 C 
ENDROOT
BRANCH   1   2
HETATM    2  C   UNK N   1      33.269  15.881   8.861  0.00  0.00     0.091 C 
BRANCH   2   3
HETATM    3  C   UNK N   1      33.439  15.227   7.478  0.00  0.00     0.020 C 
BRANCH   3   4
HETATM    4  C   UNK N   1      34.451  15.870   6.537  0.00  0.00     0.039 C 
BRANCH   4   5
HETATM    5  C   UNK N   1      33.780  16.193   5.238  0.00  0.00    -0.058 A 
HETATM    6  C   UNK N   1      33.308  17.490   5.003  0.00  0.00     0.007 A 
HETATM    7  C   UNK N   1      32.688  17.803   3.788  0.00  0.00     0.001 A 
HETATM    8  C   UNK N   1      32.540  16.822   2.803  0.00  0.00     0.000 A 
HETATM    9  C   UNK N   1      33.009  15.525   3.034  0.00  0.00     0.001 A 
HETATM   10  C   UNK N   1      33.627  15.210   4.249  0.00  0.00     0.007 A 
ENDBRANCH   4   5
ENDBRANCH   3   4
ENDBRANCH   2   3
BRANCH   2  11
HETATM   11  C   UNK N   1      32.893  17.349   8.644  0.00  0.00     0.118 C 
HETATM   12  N   UNK N   1      31.693  17.810   8.725  0.00  0.00    -0.363 N 
ATOM     13  HN  UNK N   1      31.593  18.823   8.663  1.00  0.00     0.162 HD
BRANCH  12  14
HETATM   14  C   UNK N   1      30.471  17.056   8.894  0.00  0.00     0.146 C 
HETATM   15  C   UNK N   1      29.892  16.948   7.545  0.00  0.00    -0.027 A 
HETATM   16  C   UNK N   1      30.402  16.190   6.487  0.00  0.00     0.010 A 
HETATM   17  C   UNK N   1      28.854  17.820   7.360  0.00  0.00    -0.047 A 
HETATM   18  C   UNK N   1      29.797  16.301   5.229  0.00  0.00     0.001 A 
HETATM   19  C   UNK N   1      28.719  17.184   5.042  0.00  0.00     0.001 A 
HETATM   20  C   UNK N   1      28.248  17.963   6.112  0.00  0.00     0.008 A 
HETATM   21  C   UNK N   1      28.571  18.627   8.571  0.00  0.00     0.073 C 
HETATM   22  C   UNK N   1      29.383  17.866   9.634  0.00  0.00     0.149 C 
BRANCH  22  23
HETATM   23  O   UNK N   1      29.906  18.707  10.619  0.00  0.00    -0.393 OA
HETATM   24  H   UNK N   1      30.578  19.394  10.483  0.00  0.00     0.210 HD
ENDBRANCH  22  23
ENDBRANCH  12  14
BRANCH  11  25
HETATM   25  O   UNK N   1      33.877  18.221   8.333  0.00  0.00    -0.349 OA
HETATM   26  H   UNK N   1      34.708  18.652   8.316  0.00  0.00     0.219 HD
ENDBRANCH  11  25
ENDBRANCH   2  11
ENDBRANCH   1   2
BRANCH   1  27
HETATM   27  C   UNK N   1      34.715  14.506  10.661  0.00  0.00     0.159 C 
BRANCH  27  28
HETATM   28  C   UNK N   1      35.879  13.463  10.820  0.00  0.00     0.091 C 
BRANCH  28  29
HETATM   29  C   UNK N   1      36.585  12.923   9.563  0.00  0.00     0.020 C 
BRANCH  29  30
HETATM   30  C   UNK N   1      37.408  13.847   8.688  0.00  0.00     0.039 C 
BRANCH  30  31
HETATM   31  C   UNK N   1      37.031  13.554   7.261  0.00  0.00    -0.058 A 
HETATM   32  C   UNK N   1      37.703  14.199   6.215  0.00  0.00     0.007 A 
HETATM   33  C   UNK N   1      37.408  13.889   4.883  0.00  0.00     0.001 A 
HETATM   34  C   UNK N   1      36.432  12.934   4.589  0.00  0.00     0.000 A 
HETATM   35  C   UNK N   1      35.750  12.290   5.626  0.00  0.00     0.001 A 
HETATM   36  C   UNK N   1      36.052  12.594   6.959  0.00  0.00     0.007 A 
ENDBRANCH  30  31
ENDBRANCH  29  30
ENDBRANCH  28  29
BRANCH  28  37
HETATM   37  C   UNK N   1      35.405  12.380  11.828  0.00  0.00     0.118 C 
HETATM   38  N   UNK N   1      35.990  12.191  12.951  0.00  0.00    -0.363 N 
ATOM     39  HN  UNK N   1      36.875  12.674  13.107  1.00  0.00     0.162 HD
BRANCH  38  40
HETATM   40  C   UNK N   1      35.486  11.332  14.040  0.00  0.00     0.146 C 
HETATM   41  C   UNK N   1      35.448  11.907  15.397  0.00  0.00    -0.027 A 
HETATM   42  C   UNK N   1      35.454  13.247  15.781  0.00  0.00     0.010 A 
HETATM   43  C   UNK N   1      35.329  10.898  16.326  0.00  0.00    -0.047 A 
HETATM   44  C   UNK N   1      35.331  13.549  17.147  0.00  0.00     0.001 A 
HETATM   45  C   UNK N   1      35.190  12.514  18.095  0.00  0.00     0.001 A 
HETATM   46  C   UNK N   1      35.197  11.173  17.684  0.00  0.00     0.008 A 
HETATM   47  C   UNK N   1      35.403   9.551  15.696  0.00  0.00     0.073 C 
HETATM   48  C   UNK N   1      36.078   9.918  14.359  0.00  0.00     0.149 C 
BRANCH  48  49
HETATM   49  O   UNK N   1      37.453   9.978  14.631  0.00  0.00    -0.393 OA
HETATM   50  H   UNK N   1      38.308  10.093  15.075  0.00  0.00     0.210 HD
ENDBRANCH  48  49
ENDBRANCH  38  40
BRANCH  37  51
HETATM   51  O   UNK N   1      34.268  11.701  11.542  0.00  0.00    -0.349 OA
HETATM   52  H   UNK N   1      34.150  10.872  11.123  0.00  0.00     0.219 HD
ENDBRANCH  37  51
ENDBRANCH  28  37
ENDBRANCH  27  28
BRANCH  27  53
HETATM   53  O   UNK N   1      34.000  14.519  11.863  0.00  0.00    -0.392 OA
HETATM   54  H   UNK N   1      33.588  13.769  12.320  0.00  0.00     0.210 HD
ENDBRANCH  27  53
ENDBRANCH   1  27
BRANCH   1  55
HETATM   55  O   UNK N   1      34.531  16.963  10.606  0.00  0.00    -0.392 OA
HETATM   56  H   UNK N   1      35.272  17.585  10.535  0.00  0.00     0.210 HD
ENDBRANCH   1  55
TORSDOF 19
ENDMDL
MODEL 6
REMARK VINA RESULT:      -8.6      2.428      4.552
REMARK  19 active torsions:
REMARK  status: ('A' for Active; 'I' for Inactive)
REMARK    1  A    between atoms: C_21  and  C_19 
REMARK    2  A    between atoms: C_25  and  C_19 
REMARK    3  A    between atoms: C_22  and  C_20 
REMARK    4  A    between atoms: C_26  and  C_20 
REMARK    5  A    between atoms: C_31  and  C_21 
REMARK    6  A    between atoms: C_32  and  C_22 
REMARK    7  A    between atoms: C_37  and  C_31 
REMARK    8  A    between atoms: C_31  and  C_39 
REMARK    9  A    between atoms: C_38  and  C_32 
REMARK   10  A    between atoms: C_32  and  C_40 
REMARK   11  A    between atoms: C_33  and  O_45 
REMARK   12  A    between atoms: C_34  and  O_46 
REMARK   13  A    between atoms: C_35  and  N_41 
REMARK   14  A    between atoms: C_36  and  N_43 
REMARK   15  A    between atoms: C_38  and  C_37 
REMARK   16  A    between atoms: C_37  and  O_47 
REMARK   17  A    between atoms: C_38  and  O_48 
REMARK   18  A    between atoms: C_39  and  O_49 
REMARK   19  A    between atoms: C_40  and  O_50 
ROOT
HETATM    1  C   UNK N   1      34.568  15.472  10.848  0.00  0.00     0.159 C 
ENDROOT
BRANCH   1   2
HETATM    2  C   UNK N   1      33.918  15.584   9.436  0.00  0.00     0.091 C 
BRANCH   2   3
HETATM    3  C   UNK N   1      33.496  16.994   8.986  0.00  0.00     0.020 C 
BRANCH   3   4
HETATM    4  C   UNK N   1      34.137  17.525   7.709  0.00  0.00     0.039 C 
BRANCH   4   5
HETATM    5  C   UNK N   1      33.154  17.421   6.584  0.00  0.00    -0.058 A 
HETATM    6  C   UNK N   1      31.802  17.189   6.862  0.00  0.00     0.007 A 
HETATM    7  C   UNK N   1      30.874  17.100   5.818  0.00  0.00     0.001 A 
HETATM    8  C   UNK N   1      31.295  17.244   4.492  0.00  0.00     0.000 A 
HETATM    9  C   UNK N   1      32.645  17.475   4.210  0.00  0.00     0.001 A 
HETATM   10  C   UNK N   1      33.574  17.562   5.253  0.00  0.00     0.007 A 
ENDBRANCH   4   5
ENDBRANCH   3   4
ENDBRANCH   2   3
BRANCH   2  11
HETATM   11  C   UNK N   1      32.677  14.687   9.400  0.00  0.00     0.118 C 
HETATM   12  N   UNK N   1      32.680  13.462   9.001  0.00  0.00    -0.363 N 
ATOM     13  HN  UNK N   1      31.810  12.945   9.126  1.00  0.00     0.162 HD
BRANCH  12  14
HETATM   14  C   UNK N   1      33.775  12.737   8.396  0.00  0.00     0.146 C 
HETATM   15  C   UNK N   1      33.519  12.786   6.947  0.00  0.00    -0.027 A 
HETATM   16  C   UNK N   1      33.609  13.918   6.132  0.00  0.00     0.010 A 
HETATM   17  C   UNK N   1      33.007  11.608   6.475  0.00  0.00    -0.047 A 
HETATM   18  C   UNK N   1      33.206  13.816   4.794  0.00  0.00     0.001 A 
HETATM   19  C   UNK N   1      32.697  12.601   4.303  0.00  0.00     0.001 A 
HETATM   20  C   UNK N   1      32.582  11.488   5.152  0.00  0.00     0.008 A 
HETATM   21  C   UNK N   1      32.865  10.587   7.540  0.00  0.00     0.073 C 
HETATM   22  C   UNK N   1      33.692  11.219   8.673  0.00  0.00     0.149 C 
BRANCH  22  23
HETATM   23  O   UNK N   1      33.186  10.924   9.941  0.00  0.00    -0.393 OA
HETATM   24  H   UNK N   1      32.405  11.330  10.351  0.00  0.00     0.210 HD
ENDBRANCH  22  23
ENDBRANCH  12  14
BRANCH  11  25
HETATM   25  O   UNK N   1      31.499  15.212   9.797  0.00  0.00    -0.349 OA
HETATM   26  H   UNK N   1      30.586  15.420   9.831  0.00  0.00     0.219 HD
ENDBRANCH  11  25
ENDBRANCH   2  11
ENDBRANCH   1   2
BRANCH   1  27
HETATM   27  C   UNK N   1      36.122  15.204  10.926  0.00  0.00     0.159 C 
BRANCH  27  28
HETATM   28  C   UNK N   1      37.069  14.019  10.513  0.00  0.00     0.091 C 
BRANCH  28  29
HETATM   29  C   UNK N   1      37.253  13.685   9.022  0.00  0.00     0.020 C 
BRANCH  29  30
HETATM   30  C   UNK N   1      37.601  12.275   8.590  0.00  0.00     0.039 C 
BRANCH  30  31
HETATM   31  C   UNK N   1      37.165  12.133   7.156  0.00  0.00    -0.058 A 
HETATM   32  C   UNK N   1      37.259  13.226   6.287  0.00  0.00     0.007 A 
HETATM   33  C   UNK N   1      36.917  13.091   4.937  0.00  0.00     0.001 A 
HETATM   34  C   UNK N   1      36.474  11.859   4.449  0.00  0.00     0.000 A 
HETATM   35  C   UNK N   1      36.370  10.764   5.311  0.00  0.00     0.001 A 
HETATM   36  C   UNK N   1      36.720  10.897   6.661  0.00  0.00     0.007 A 
ENDBRANCH  30  31
ENDBRANCH  29  30
ENDBRANCH  28  29
BRANCH  28  37
HETATM   37  C   UNK N   1      36.729  12.807  11.425  0.00  0.00     0.118 C 
HETATM   38  N   UNK N   1      37.465  12.474  12.417  0.00  0.00    -0.363 N 
ATOM     39  HN  UNK N   1      38.369  12.937  12.509  1.00  0.00     0.162 HD
BRANCH  38  40
HETATM   40  C   UNK N   1      37.109  11.472  13.441  0.00  0.00     0.146 C 
HETATM   41  C   UNK N   1      36.472  11.961  14.677  0.00  0.00    -0.027 A 
HETATM   42  C   UNK N   1      35.801  13.163  14.900  0.00  0.00     0.010 A 
HETATM   43  C   UNK N   1      36.555  10.998  15.656  0.00  0.00    -0.047 A 
HETATM   44  C   UNK N   1      35.204  13.369  16.155  0.00  0.00     0.001 A 
HETATM   45  C   UNK N   1      35.275  12.373  17.149  0.00  0.00     0.001 A 
HETATM   46  C   UNK N   1      35.964  11.176  16.903  0.00  0.00     0.008 A 
HETATM   47  C   UNK N   1      37.362   9.826  15.216  0.00  0.00     0.073 C 
HETATM   48  C   UNK N   1      38.142  10.463  14.048  0.00  0.00     0.149 C 
BRANCH  48  49
HETATM   49  O   UNK N   1      39.233  11.123  14.634  0.00  0.00    -0.393 OA
HETATM   50  H   UNK N   1      40.122  11.464  14.821  0.00  0.00     0.210 HD
ENDBRANCH  48  49
ENDBRANCH  38  40
BRANCH  37  51
HETATM   51  O   UNK N   1      35.555  12.165  11.214  0.00  0.00    -0.349 OA
HETATM   52  H   UNK N   1      35.351  11.454  10.640  0.00  0.00     0.219 HD
ENDBRANCH  37  51
ENDBRANCH  28  37
ENDBRANCH  27  28
BRANCH  27  53
HETATM   53  O   UNK N   1      36.874  16.381  10.859  0.00  0.00    -0.392 OA
HETATM   54  H   UNK N   1      37.722  16.522  10.411  0.00  0.00     0.210 HD
ENDBRANCH  27  53
ENDBRANCH   1  27
BRANCH   1  55
HETATM   55  O   UNK N   1      33.844  14.574  11.623  0.00  0.00    -0.392 OA
HETATM   56  H   UNK N   1      34.274  13.783  11.984  0.00  0.00     0.210 HD
ENDBRANCH   1  55
TORSDOF 19
ENDMDL
MODEL 7
REMARK VINA RESULT:      -8.4      1.604      9.905
REMARK  19 active torsions:
REMARK  status: ('A' for Active; 'I' for Inactive)
REMARK    1  A    between atoms: C_21  and  C_19 
REMARK    2  A    between atoms: C_25  and  C_19 
REMARK    3  A    between atoms: C_22  and  C_20 
REMARK    4  A    between atoms: C_26  and  C_20 
REMARK    5  A    between atoms: C_31  and  C_21 
REMARK    6  A    between atoms: C_32  and  C_22 
REMARK    7  A    between atoms: C_37  and  C_31 
REMARK    8  A    between atoms: C_31  and  C_39 
REMARK    9  A    between atoms: C_38  and  C_32 
REMARK   10  A    between atoms: C_32  and  C_40 
REMARK   11  A    between atoms: C_33  and  O_45 
REMARK   12  A    between atoms: C_34  and  O_46 
REMARK   13  A    between atoms: C_35  and  N_41 
REMARK   14  A    between atoms: C_36  and  N_43 
REMARK   15  A    between atoms: C_38  and  C_37 
REMARK   16  A    between atoms: C_37  and  O_47 
REMARK   17  A    between atoms: C_38  and  O_48 
REMARK   18  A    between atoms: C_39  and  O_49 
REMARK   19  A    between atoms: C_40  and  O_50 
ROOT
HETATM    1  C   UNK N   1      35.985  15.406  11.000  0.00  0.00     0.159 C 
ENDROOT
BRANCH   1   2
HETATM    2  C   UNK N   1      35.821  13.927  11.464  0.00  0.00     0.091 C 
BRANCH   2   3
HETATM    3  C   UNK N   1      36.768  13.449  12.579  0.00  0.00     0.020 C 
BRANCH   3   4
HETATM    4  C   UNK N   1      36.297  13.657  14.013  0.00  0.00     0.039 C 
BRANCH   4   5
HETATM    5  C   UNK N   1      35.769  12.362  14.550  0.00  0.00    -0.058 A 
HETATM    6  C   UNK N   1      34.408  12.059  14.419  0.00  0.00     0.007 A 
HETATM    7  C   UNK N   1      33.907  10.848  14.909  0.00  0.00     0.001 A 
HETATM    8  C   UNK N   1      34.765   9.935  15.531  0.00  0.00     0.000 A 
HETATM    9  C   UNK N   1      36.124  10.235  15.666  0.00  0.00     0.001 A 
HETATM   10  C   UNK N   1      36.626  11.446  15.178  0.00  0.00     0.007 A 
ENDBRANCH   4   5
ENDBRANCH   3   4
ENDBRANCH   2   3
BRANCH   2  11
HETATM   11  C   UNK N   1      36.019  13.012  10.253  0.00  0.00     0.118 C 
HETATM   12  N   UNK N   1      35.289  11.983   9.995  0.00  0.00    -0.363 N 
ATOM     13  HN  UNK N   1      35.460  11.521   9.102  1.00  0.00     0.162 HD
BRANCH  12  14
HETATM   14  C   UNK N   1      34.257  11.406  10.827  0.00  0.00     0.146 C 
HETATM   15  C   UNK N   1      34.720  10.043  11.133  0.00  0.00    -0.027 A 
HETATM   16  C   UNK N   1      35.796   9.704  11.958  0.00  0.00     0.010 A 
HETATM   17  C   UNK N   1      34.077   9.100  10.378  0.00  0.00    -0.047 A 
HETATM   18  C   UNK N   1      36.183   8.360  12.039  0.00  0.00     0.001 A 
HETATM   19  C   UNK N   1      35.511   7.387  11.278  0.00  0.00     0.001 A 
HETATM   20  C   UNK N   1      34.456   7.759  10.427  0.00  0.00     0.008 A 
HETATM   21  C   UNK N   1      33.069   9.695   9.469  0.00  0.00     0.073 C 
HETATM   22  C   UNK N   1      32.961  11.122  10.035  0.00  0.00     0.149 C 
BRANCH  22  23
HETATM   23  O   UNK N   1      32.705  12.077   9.049  0.00  0.00    -0.393 OA
HETATM   24  H   UNK N   1      32.019  12.763   9.084  0.00  0.00     0.210 HD
ENDBRANCH  22  23
ENDBRANCH  12  14
BRANCH  11  25
HETATM   25  O   UNK N   1      37.031  13.289   9.403  0.00  0.00    -0.349 OA
HETATM   26  H   UNK N   1      37.810  13.663   9.042  0.00  0.00     0.219 HD
ENDBRANCH  11  25
ENDBRANCH   2  11
ENDBRANCH   1   2
BRANCH   1  27
HETATM   27  C   UNK N   1      34.996  15.947   9.895  0.00  0.00     0.159 C 
BRANCH  27  28
HETATM   28  C   UNK N   1      34.083  15.287   8.799  0.00  0.00     0.091 C 
BRANCH  28  29
HETATM   29  C   UNK N   1      34.472  15.415   7.316  0.00  0.00     0.020 C 
BRANCH  29  30
HETATM   30  C   UNK N   1      33.843  14.508   6.277  0.00  0.00     0.039 C 
BRANCH  30  31
HETATM   31  C   UNK N   1      33.375  15.388   5.149  0.00  0.00    -0.058 A 
HETATM   32  C   UNK N   1      32.632  14.837   4.097  0.00  0.00     0.007 A 
HETATM   33  C   UNK N   1      32.136  15.655   3.076  0.00  0.00     0.001 A 
HETATM   34  C   UNK N   1      32.385  17.029   3.098  0.00  0.00     0.000 A 
HETATM   35  C   UNK N   1      33.131  17.586   4.140  0.00  0.00     0.001 A 
HETATM   36  C   UNK N   1      33.621  16.770   5.167  0.00  0.00     0.007 A 
ENDBRANCH  30  31
ENDBRANCH  29  30
ENDBRANCH  28  29
BRANCH  28  37
HETATM   37  C   UNK N   1      32.610  15.656   9.130  0.00  0.00     0.118 C 
HETATM   38  N   UNK N   1      31.958  16.528   8.457  0.00  0.00    -0.363 N 
ATOM     39  HN  UNK N   1      32.481  17.089   7.784  1.00  0.00     0.162 HD
BRANCH  38  40
HETATM   40  C   UNK N   1      30.510  16.788   8.578  0.00  0.00     0.146 C 
HETATM   41  C   UNK N   1      29.806  17.273   7.377  0.00  0.00    -0.027 A 
HETATM   42  C   UNK N   1      30.187  17.178   6.039  0.00  0.00     0.010 A 
HETATM   43  C   UNK N   1      28.595  17.819   7.737  0.00  0.00    -0.047 A 
HETATM   44  C   UNK N   1      29.299  17.651   5.059  0.00  0.00     0.001 A 
HETATM   45  C   UNK N   1      28.052  18.193   5.429  0.00  0.00     0.001 A 
HETATM   46  C   UNK N   1      27.696  18.287   6.783  0.00  0.00     0.008 A 
HETATM   47  C   UNK N   1      28.426  17.869   9.215  0.00  0.00     0.073 C 
HETATM   48  C   UNK N   1      29.898  17.742   9.658  0.00  0.00     0.149 C 
BRANCH  48  49
HETATM   49  O   UNK N   1      30.432  19.036   9.573  0.00  0.00    -0.393 OA
HETATM   50  H   UNK N   1      31.045  19.787   9.512  0.00  0.00     0.210 HD
ENDBRANCH  48  49
ENDBRANCH  38  40
BRANCH  37  51
HETATM   51  O   UNK N   1      31.978  14.942  10.092  0.00  0.00    -0.349 OA
HETATM   52  H   UNK N   1      31.075  14.932  10.341  0.00  0.00     0.219 HD
ENDBRANCH  37  51
ENDBRANCH  28  37
ENDBRANCH  27  28
BRANCH  27  53
HETATM   53  O   UNK N   1      34.404  17.162  10.253  0.00  0.00    -0.392 OA
HETATM   54  H   UNK N   1      33.472  17.417  10.176  0.00  0.00     0.210 HD
ENDBRANCH  27  53
ENDBRANCH   1  27
BRANCH   1  55
HETATM   55  O   UNK N   1      37.315  15.645  10.673  0.00  0.00    -0.392 OA
HETATM   56  H   UNK N   1      37.650  15.412   9.793  0.00  0.00     0.210 HD
ENDBRANCH   1  55
TORSDOF 19
ENDMDL
MODEL 8
REMARK VINA RESULT:      -8.3     11.686     14.762
REMARK  19 active torsions:
REMARK  status: ('A' for Active; 'I' for Inactive)
REMARK    1  A    between atoms: C_21  and  C_19 
REMARK    2  A    between atoms: C_25  and  C_19 
REMARK    3  A    between atoms: C_22  and  C_20 
REMARK    4  A    between atoms: C_26  and  C_20 
REMARK    5  A    between atoms: C_31  and  C_21 
REMARK    6  A    between atoms: C_32  and  C_22 
REMARK    7  A    between atoms: C_37  and  C_31 
REMARK    8  A    between atoms: C_31  and  C_39 
REMARK    9  A    between atoms: C_38  and  C_32 
REMARK   10  A    between atoms: C_32  and  C_40 
REMARK   11  A    between atoms: C_33  and  O_45 
REMARK   12  A    between atoms: C_34  and  O_46 
REMARK   13  A    between atoms: C_35  and  N_41 
REMARK   14  A    between atoms: C_36  and  N_43 
REMARK   15  A    between atoms: C_38  and  C_37 
REMARK   16  A    between atoms: C_37  and  O_47 
REMARK   17  A    between atoms: C_38  and  O_48 
REMARK   18  A    between atoms: C_39  and  O_49 
REMARK   19  A    between atoms: C_40  and  O_50 
ROOT
HETATM    1  C   UNK N   1      19.601  15.037   6.127  0.00  0.00     0.159 C 
ENDROOT
BRANCH   1   2
HETATM    2  C   UNK N   1      20.971  15.658   6.532  0.00  0.00     0.091 C 
BRANCH   2   3
HETATM    3  C   UNK N   1      21.541  15.231   7.897  0.00  0.00     0.020 C 
BRANCH   3   4
HETATM    4  C   UNK N   1      20.629  14.399   8.789  0.00  0.00     0.039 C 
BRANCH   4   5
HETATM    5  C   UNK N   1      21.465  13.507   9.654  0.00  0.00    -0.058 A 
HETATM    6  C   UNK N   1      20.863  12.770  10.681  0.00  0.00     0.007 A 
HETATM    7  C   UNK N   1      21.634  11.926  11.488  0.00  0.00     0.001 A 
HETATM    8  C   UNK N   1      23.011  11.816  11.270  0.00  0.00     0.000 A 
HETATM    9  C   UNK N   1      23.618  12.551  10.247  0.00  0.00     0.001 A 
HETATM   10  C   UNK N   1      22.847  13.396   9.441  0.00  0.00     0.007 A 
ENDBRANCH   4   5
ENDBRANCH   3   4
ENDBRANCH   2   3
BRANCH   2  11
HETATM   11  C   UNK N   1      20.831  17.182   6.537  0.00  0.00     0.118 C 
HETATM   12  N   UNK N   1      20.974  17.927   5.496  0.00  0.00    -0.363 N 
ATOM     13  HN  UNK N   1      20.751  18.915   5.613  1.00  0.00     0.162 HD
BRANCH  12  14
HETATM   14  C   UNK N   1      21.416  17.522   4.180  0.00  0.00     0.146 C 
HETATM   15  C   UNK N   1      22.432  18.513   3.789  0.00  0.00    -0.027 A 
HETATM   16  C   UNK N   1      23.706  18.651   4.348  0.00  0.00     0.010 A 
HETATM   17  C   UNK N   1      21.940  19.430   2.901  0.00  0.00    -0.047 A 
HETATM   18  C   UNK N   1      24.501  19.731   3.946  0.00  0.00     0.001 A 
HETATM   19  C   UNK N   1      24.005  20.666   3.020  0.00  0.00     0.001 A 
HETATM   20  C   UNK N   1      22.707  20.525   2.501  0.00  0.00     0.008 A 
HETATM   21  C   UNK N   1      20.523  19.174   2.550  0.00  0.00     0.073 C 
HETATM   22  C   UNK N   1      20.330  17.752   3.104  0.00  0.00     0.149 C 
BRANCH  22  23
HETATM   23  O   UNK N   1      19.036  17.528   3.580  0.00  0.00    -0.393 OA
HETATM   24  H   UNK N   1      18.542  18.110   4.180  0.00  0.00     0.210 HD
ENDBRANCH  22  23
ENDBRANCH  12  14
BRANCH  11  25
HETATM   25  O   UNK N   1      20.553  17.794   7.708  0.00  0.00    -0.349 OA
HETATM   26  H   UNK N   1      20.079  18.157   8.429  0.00  0.00     0.219 HD
ENDBRANCH  11  25
ENDBRANCH   2  11
ENDBRANCH   1   2
BRANCH   1  27
HETATM   27  C   UNK N   1      19.575  14.038   4.905  0.00  0.00     0.159 C 
BRANCH  27  28
HETATM   28  C   UNK N   1      19.706  12.480   4.739  0.00  0.00     0.091 C 
BRANCH  28  29
HETATM   29  C   UNK N   1      20.281  11.643   5.894  0.00  0.00     0.020 C 
BRANCH  29  30
HETATM   30  C   UNK N   1      21.717  11.835   6.340  0.00  0.00     0.039 C 
BRANCH  30  31
HETATM   31  C   UNK N   1      22.365  10.476   6.337  0.00  0.00    -0.058 A 
HETATM   32  C   UNK N   1      23.470  10.229   7.161  0.00  0.00     0.007 A 
HETATM   33  C   UNK N   1      24.042   8.953   7.216  0.00  0.00     0.001 A 
HETATM   34  C   UNK N   1      23.513   7.917   6.443  0.00  0.00     0.000 A 
HETATM   35  C   UNK N   1      22.415   8.156   5.612  0.00  0.00     0.001 A 
HETATM   36  C   UNK N   1      21.837   9.431   5.562  0.00  0.00     0.007 A 
ENDBRANCH  30  31
ENDBRANCH  29  30
ENDBRANCH  28  29
BRANCH  28  37
HETATM   37  C   UNK N   1      20.341  12.209   3.346  0.00  0.00     0.118 C 
HETATM   38  N   UNK N   1      21.372  12.844   2.931  0.00  0.00    -0.363 N 
ATOM     39  HN  UNK N   1      21.681  13.647   3.480  1.00  0.00     0.162 HD
BRANCH  38  40
HETATM   40  C   UNK N   1      22.148  12.510   1.721  0.00  0.00     0.146 C 
HETATM   41  C   UNK N   1      23.412  11.775   1.908  0.00  0.00    -0.027 A 
HETATM   42  C   UNK N   1      23.827  11.008   2.996  0.00  0.00     0.010 A 
HETATM   43  C   UNK N   1      24.181  11.877   0.771  0.00  0.00    -0.047 A 
HETATM   44  C   UNK N   1      25.056  10.333   2.904  0.00  0.00     0.001 A 
HETATM   45  C   UNK N   1      25.832  10.425   1.731  0.00  0.00     0.001 A 
HETATM   46  C   UNK N   1      25.397  11.211   0.654  0.00  0.00     0.008 A 
HETATM   47  C   UNK N   1      23.569  12.789  -0.234  0.00  0.00     0.073 C 
HETATM   48  C   UNK N   1      22.606  13.581   0.675  0.00  0.00     0.149 C 
BRANCH  48  49
HETATM   49  O   UNK N   1      23.383  14.588   1.265  0.00  0.00    -0.393 OA
HETATM   50  H   UNK N   1      23.823  15.433   1.455  0.00  0.00     0.210 HD
ENDBRANCH  48  49
ENDBRANCH  38  40
BRANCH  37  51
HETATM   51  O   UNK N   1      19.843  11.186   2.611  0.00  0.00    -0.349 OA
HETATM   52  H   UNK N   1      18.955  10.962   2.412  0.00  0.00     0.219 HD
ENDBRANCH  37  51
ENDBRANCH  28  37
ENDBRANCH  27  28
BRANCH  27  53
HETATM   53  O   UNK N   1      18.794  14.506   3.845  0.00  0.00    -0.392 OA
HETATM   54  H   UNK N   1      19.094  14.890   3.007  0.00  0.00     0.210 HD
ENDBRANCH  27  53
ENDBRANCH   1  27
BRANCH   1  55
HETATM   55  O   UNK N   1      18.653  16.045   5.997  0.00  0.00    -0.392 OA
HETATM   56  H   UNK N   1      18.926  16.976   6.016  0.00  0.00     0.210 HD
ENDBRANCH   1  55
TORSDOF 19
ENDMDL
MODEL 9
REMARK VINA RESULT:      -8.2     10.526     13.671
REMARK  19 active torsions:
REMARK  status: ('A' for Active; 'I' for Inactive)
REMARK    1  A    between atoms: C_21  and  C_19 
REMARK    2  A    between atoms: C_25  and  C_19 
REMARK    3  A    between atoms: C_22  and  C_20 
REMARK    4  A    between atoms: C_26  and  C_20 
REMARK    5  A    between atoms: C_31  and  C_21 
REMARK    6  A    between atoms: C_32  and  C_22 
REMARK    7  A    between atoms: C_37  and  C_31 
REMARK    8  A    between atoms: C_31  and  C_39 
REMARK    9  A    between atoms: C_38  and  C_32 
REMARK   10  A    between atoms: C_32  and  C_40 
REMARK   11  A    between atoms: C_33  and  O_45 
REMARK   12  A    between atoms: C_34  and  O_46 
REMARK   13  A    between atoms: C_35  and  N_41 
REMARK   14  A    between atoms: C_36  and  N_43 
REMARK   15  A    between atoms: C_38  and  C_37 
REMARK   16  A    between atoms: C_37  and  O_47 
REMARK   17  A    between atoms: C_38  and  O_48 
REMARK   18  A    between atoms: C_39  and  O_49 
REMARK   19  A    between atoms: C_40  and  O_50 
ROOT
HETATM    1  C   UNK N   1      20.371  15.396   6.310  0.00  0.00     0.159 C 
ENDROOT
BRANCH   1   2
HETATM    2  C   UNK N   1      21.608  16.194   5.798  0.00  0.00     0.091 C 
BRANCH   2   3
HETATM    3  C   UNK N   1      22.957  15.871   6.465  0.00  0.00     0.020 C 
BRANCH   3   4
HETATM    4  C   UNK N   1      23.660  14.600   6.007  0.00  0.00     0.039 C 
BRANCH   4   5
HETATM    5  C   UNK N   1      24.575  14.927   4.867  0.00  0.00    -0.058 A 
HETATM    6  C   UNK N   1      24.059  15.036   3.570  0.00  0.00     0.007 A 
HETATM    7  C   UNK N   1      24.904  15.351   2.500  0.00  0.00     0.001 A 
HETATM    8  C   UNK N   1      26.269  15.559   2.723  0.00  0.00     0.000 A 
HETATM    9  C   UNK N   1      26.789  15.450   4.017  0.00  0.00     0.001 A 
HETATM   10  C   UNK N   1      25.945  15.133   5.087  0.00  0.00     0.007 A 
ENDBRANCH   4   5
ENDBRANCH   3   4
ENDBRANCH   2   3
BRANCH   2  11
HETATM   11  C   UNK N   1      21.335  17.688   5.988  0.00  0.00     0.118 C 
HETATM   12  N   UNK N   1      21.381  18.560   5.041  0.00  0.00    -0.363 N 
ATOM     13  HN  UNK N   1      21.075  19.503   5.280  1.00  0.00     0.162 HD
BRANCH  12  14
HETATM   14  C   UNK N   1      21.817  18.354   3.678  0.00  0.00     0.146 C 
HETATM   15  C   UNK N   1      23.170  18.930   3.612  0.00  0.00    -0.027 A 
HETATM   16  C   UNK N   1      24.315  18.414   4.224  0.00  0.00     0.010 A 
HETATM   17  C   UNK N   1      23.177  20.156   3.004  0.00  0.00    -0.047 A 
HETATM   18  C   UNK N   1      25.501  19.158   4.166  0.00  0.00     0.001 A 
HETATM   19  C   UNK N   1      25.515  20.410   3.526  0.00  0.00     0.001 A 
HETATM   20  C   UNK N   1      24.340  20.924   2.950  0.00  0.00     0.008 A 
HETATM   21  C   UNK N   1      21.828  20.572   2.553  0.00  0.00     0.073 C 
HETATM   22  C   UNK N   1      21.050  19.251   2.679  0.00  0.00     0.149 C 
BRANCH  22  23
HETATM   23  O   UNK N   1      19.713  19.442   3.035  0.00  0.00    -0.393 OA
HETATM   24  H   UNK N   1      18.999  19.721   2.439  0.00  0.00     0.210 HD
ENDBRANCH  22  23
ENDBRANCH  12  14
BRANCH  11  25
HETATM   25  O   UNK N   1      21.039  18.130   7.229  0.00  0.00    -0.349 OA
HETATM   26  H   UNK N   1      21.069  18.617   8.029  0.00  0.00     0.219 HD
ENDBRANCH  11  25
ENDBRANCH   2  11
ENDBRANCH   1   2
BRANCH   1  27
HETATM   27  C   UNK N   1      20.119  13.959   5.708  0.00  0.00     0.159 C 
BRANCH  27  28
HETATM   28  C   UNK N   1      20.565  12.500   6.087  0.00  0.00     0.091 C 
BRANCH  28  29
HETATM   29  C   UNK N   1      21.488  12.284   7.299  0.00  0.00     0.020 C 
BRANCH  29  30
HETATM   30  C   UNK N   1      21.176  12.943   8.628  0.00  0.00     0.039 C 
BRANCH  30  31
HETATM   31  C   UNK N   1      22.294  12.585   9.571  0.00  0.00    -0.058 A 
HETATM   32  C   UNK N   1      23.624  12.671   9.140  0.00  0.00     0.007 A 
HETATM   33  C   UNK N   1      24.674  12.403  10.025  0.00  0.00     0.001 A 
HETATM   34  C   UNK N   1      24.399  12.043  11.346  0.00  0.00     0.000 A 
HETATM   35  C   UNK N   1      23.075  11.948  11.783  0.00  0.00     0.001 A 
HETATM   36  C   UNK N   1      22.023  12.224  10.900  0.00  0.00     0.007 A 
ENDBRANCH  30  31
ENDBRANCH  29  30
ENDBRANCH  28  29
BRANCH  28  37
HETATM   37  C   UNK N   1      21.016  11.792   4.779  0.00  0.00     0.118 C 
HETATM   38  N   UNK N   1      21.391  12.445   3.744  0.00  0.00    -0.363 N 
ATOM     39  HN  UNK N   1      21.245  13.456   3.748  1.00  0.00     0.162 HD
BRANCH  38  40
HETATM   40  C   UNK N   1      22.018  11.855   2.546  0.00  0.00     0.146 C 
HETATM   41  C   UNK N   1      23.489  11.747   2.533  0.00  0.00    -0.027 A 
HETATM   42  C   UNK N   1      24.378  11.760   3.607  0.00  0.00     0.010 A 
HETATM   43  C   UNK N   1      23.929  11.548   1.245  0.00  0.00    -0.047 A 
HETATM   44  C   UNK N   1      25.743  11.559   3.344  0.00  0.00     0.001 A 
HETATM   45  C   UNK N   1      26.188  11.337   2.026  0.00  0.00     0.001 A 
HETATM   46  C   UNK N   1      25.275  11.338   0.961  0.00  0.00     0.008 A 
HETATM   47  C   UNK N   1      22.816  11.629   0.258  0.00  0.00     0.073 C 
HETATM   48  C   UNK N   1      21.772  12.394   1.097  0.00  0.00     0.149 C 
BRANCH  48  49
HETATM   49  O   UNK N   1      22.110  13.750   0.980  0.00  0.00    -0.393 OA
HETATM   50  H   UNK N   1      22.599  14.589   0.972  0.00  0.00     0.210 HD
ENDBRANCH  48  49
ENDBRANCH  38  40
BRANCH  37  51
HETATM   51  O   UNK N   1      21.115  10.441   4.791  0.00  0.00    -0.349 OA
HETATM   52  H   UNK N   1      21.131   9.844   5.513  0.00  0.00     0.219 HD
ENDBRANCH  37  51
ENDBRANCH  28  37
ENDBRANCH  27  28
BRANCH  27  53
HETATM   53  O   UNK N   1      18.890  13.860   5.049  0.00  0.00    -0.392 OA
HETATM   54  H   UNK N   1      18.730  13.715   4.104  0.00  0.00     0.210 HD
ENDBRANCH  27  53
ENDBRANCH   1  27
BRANCH   1  55
HETATM   55  O   UNK N   1      19.238  16.198   6.240  0.00  0.00    -0.392 OA
HETATM   56  H   UNK N   1      18.563  16.150   6.934  0.00  0.00     0.210 HD
ENDBRANCH   1  55
TORSDOF 19
ENDMDL
