MODEL 1
REMARK VINA RESULT:      -6.4      0.000      0.000
REMARK  8 active torsions:
REMARK  status: ('A' for Active; 'I' for Inactive)
REMARK    1  A    between atoms: C_9  and  C_6 
REMARK    2  A    between atoms: C_14  and  C_6 
REMARK    3  A    between atoms: C_8  and  C_7 
REMARK    4  A    between atoms: N_19  and  C_7 
REMARK    5  A    between atoms: S_25  and  C_9 
REMARK    6  A    between atoms: C_11  and  C_10 
REMARK    7  A    between atoms: O_21  and  C_12 
REMARK    8  A    between atoms: C_15  and  C_14 
ROOT
HETATM    1  C   UNK N   1      22.028  16.921   4.290  0.00  0.00     0.046 C 
HETATM    2  C   UNK N   1      21.626  16.652   5.553  0.00  0.00     0.103 A 
HETATM    3  C   UNK N   1      21.203  15.386   7.295  0.00  0.00     0.158 A 
HETATM    4  C   UNK N   1      20.992  17.480   6.585  0.00  0.00     0.276 A 
HETATM    5  N   UNK N   1      21.735  15.353   6.118  0.00  0.00    -0.335 N 
ATOM      6  HN  UNK N   1      22.160  14.539   5.674  1.00  0.00     0.168 HD
HETATM    7  N   UNK N   1      20.741  16.689   7.635  0.00  0.00    -0.289 N 
HETATM    8  O   UNK N   1      20.755  18.677   6.570  0.00  0.00    -0.265 OA
ENDROOT
BRANCH   1   9
HETATM    9  C   UNK N   1      21.835  18.195   3.544  0.00  0.00    -0.034 A 
HETATM   10  C   UNK N   1      20.604  18.427   2.912  0.00  0.00     0.014 A 
HETATM   11  C   UNK N   1      20.351  19.648   2.276  0.00  0.00     0.037 A 
HETATM   12  C   UNK N   1      21.321  20.654   2.283  0.00  0.00     0.065 A 
HETATM   13  C   UNK N   1      22.543  20.436   2.915  0.00  0.00     0.037 A 
HETATM   14  C   UNK N   1      22.793  19.215   3.541  0.00  0.00     0.014 A 
BRANCH  12  15
HETATM   15  O   UNK N   1      21.076  21.833   1.689  0.00  0.00    -0.361 OA
ATOM     16  HO  UNK N   1      20.990  22.621   2.211  1.00  0.00     0.217 HD
ENDBRANCH  12  15
ENDBRANCH   1   9
BRANCH   7  17
HETATM   17  C   UNK N   1      20.140  17.121   8.875  0.00  0.00     0.203 C 
BRANCH  17  18
HETATM   18  C   UNK N   1      18.669  16.873   8.846  0.00  0.00     0.251 C 
HETATM   19  O   UNK N   1      18.207  15.872   9.370  0.00  0.00    -0.305 OA
ENDBRANCH  17  18
ENDBRANCH   7  17
BRANCH   3  20
HETATM   20  C   UNK N   1      21.079  14.184   8.151  0.00  0.00     0.194 C 
HETATM   21  O   UNK N   1      20.378  13.250   7.791  0.00  0.00    -0.289 OA
BRANCH  20  22
HETATM   22  C   UNK N   1      21.763  14.118   9.476  0.00  0.00     0.097 C 
BRANCH  22  23
HETATM   23  C   UNK N   1      21.205  12.981  10.306  0.00  0.00     0.081 C 
BRANCH  23  24
HETATM   24  S   UNK N   1      22.572  12.124  11.130  0.00  0.00    -0.173 SA
HETATM   25  C   UNK N   1      23.193  11.475   9.555  0.00  0.00     0.089 C 
ENDBRANCH  23  24
ENDBRANCH  22  23
ENDBRANCH  20  22
ENDBRANCH   3  20
TORSDOF 8
ENDMDL
MODEL 2
REMARK VINA RESULT:      -6.4      3.108      7.966
REMARK  8 active torsions:
REMARK  status: ('A' for Active; 'I' for Inactive)
REMARK    1  A    between atoms: C_9  and  C_6 
REMARK    2  A    between atoms: C_14  and  C_6 
REMARK    3  A    between atoms: C_8  and  C_7 
REMARK    4  A    between atoms: N_19  and  C_7 
REMARK    5  A    between atoms: S_25  and  C_9 
REMARK    6  A    between atoms: C_11  and  C_10 
REMARK    7  A    between atoms: O_21  and  C_12 
REMARK    8  A    between atoms: C_15  and  C_14 
ROOT
HETATM    1  C   UNK N   1      21.705  12.223   8.136  0.00  0.00     0.046 C 
HETATM    2  C   UNK N   1      21.107  13.306   7.589  0.00  0.00     0.103 A 
HETATM    3  C   UNK N   1      20.231  14.513   5.978  0.00  0.00     0.158 A 
HETATM    4  C   UNK N   1      20.783  14.633   8.126  0.00  0.00     0.276 A 
HETATM    5  N   UNK N   1      20.691  13.332   6.230  0.00  0.00    -0.335 N 
ATOM      6  HN  UNK N   1      20.745  12.555   5.572  1.00  0.00     0.168 HD
HETATM    7  N   UNK N   1      20.254  15.351   7.129  0.00  0.00    -0.289 N 
HETATM    8  O   UNK N   1      20.904  15.048   9.267  0.00  0.00    -0.265 OA
ENDROOT
BRANCH   1   9
HETATM    9  C   UNK N   1      22.309  12.128   9.494  0.00  0.00    -0.034 A 
HETATM   10  C   UNK N   1      23.706  12.180   9.617  0.00  0.00     0.014 A 
HETATM   11  C   UNK N   1      24.308  12.182  10.880  0.00  0.00     0.037 A 
HETATM   12  C   UNK N   1      23.517  12.151  12.032  0.00  0.00     0.065 A 
HETATM   13  C   UNK N   1      22.129  12.107  11.920  0.00  0.00     0.037 A 
HETATM   14  C   UNK N   1      21.534  12.099  10.659  0.00  0.00     0.014 A 
BRANCH  12  15
HETATM   15  O   UNK N   1      24.090  12.171  13.246  0.00  0.00    -0.361 OA
ATOM     16  HO  UNK N   1      24.226  12.996  13.695  1.00  0.00     0.217 HD
ENDBRANCH  12  15
ENDBRANCH   1   9
BRANCH   7  17
HETATM   17  C   UNK N   1      19.778  16.709   7.245  0.00  0.00     0.203 C 
BRANCH  17  18
HETATM   18  C   UNK N   1      20.901  17.667   7.022  0.00  0.00     0.251 C 
HETATM   19  O   UNK N   1      20.799  18.826   7.391  0.00  0.00    -0.305 OA
ENDBRANCH  17  18
ENDBRANCH   7  17
BRANCH   3  20
HETATM   20  C   UNK N   1      19.769  14.920   4.631  0.00  0.00     0.194 C 
HETATM   21  O   UNK N   1      18.702  14.507   4.203  0.00  0.00    -0.289 OA
BRANCH  20  22
HETATM   22  C   UNK N   1      20.618  15.790   3.766  0.00  0.00     0.097 C 
BRANCH  22  23
HETATM   23  C   UNK N   1      19.913  17.098   3.473  0.00  0.00     0.081 C 
BRANCH  23  24
HETATM   24  S   UNK N   1      21.153  18.403   3.261  0.00  0.00    -0.173 SA
HETATM   25  C   UNK N   1      19.890  19.604   2.763  0.00  0.00     0.089 C 
ENDBRANCH  23  24
ENDBRANCH  22  23
ENDBRANCH  20  22
ENDBRANCH   3  20
TORSDOF 8
ENDMDL
MODEL 3
REMARK VINA RESULT:      -6.2      3.290      7.642
REMARK  8 active torsions:
REMARK  status: ('A' for Active; 'I' for Inactive)
REMARK    1  A    between atoms: C_9  and  C_6 
REMARK    2  A    between atoms: C_14  and  C_6 
REMARK    3  A    between atoms: C_8  and  C_7 
REMARK    4  A    between atoms: N_19  and  C_7 
REMARK    5  A    between atoms: S_25  and  C_9 
REMARK    6  A    between atoms: C_11  and  C_10 
REMARK    7  A    between atoms: O_21  and  C_12 
REMARK    8  A    between atoms: C_15  and  C_14 
ROOT
HETATM    1  C   UNK N   1      21.697  12.630   7.760  0.00  0.00     0.046 C 
HETATM    2  C   UNK N   1      20.975  13.745   7.505  0.00  0.00     0.103 A 
HETATM    3  C   UNK N   1      19.737  15.101   6.304  0.00  0.00     0.158 A 
HETATM    4  C   UNK N   1      20.768  14.983   8.267  0.00  0.00     0.276 A 
HETATM    5  N   UNK N   1      20.257  13.919   6.292  0.00  0.00    -0.335 N 
ATOM      6  HN  UNK N   1      20.167  13.230   5.545  1.00  0.00     0.168 HD
HETATM    7  N   UNK N   1      20.015  15.794   7.516  0.00  0.00    -0.289 N 
HETATM    8  O   UNK N   1      21.143  15.261   9.394  0.00  0.00    -0.265 OA
ENDROOT
BRANCH   1   9
HETATM    9  C   UNK N   1      22.599  12.396   8.922  0.00  0.00    -0.034 A 
HETATM   10  C   UNK N   1      23.953  12.745   8.806  0.00  0.00     0.014 A 
HETATM   11  C   UNK N   1      24.814  12.623   9.902  0.00  0.00     0.037 A 
HETATM   12  C   UNK N   1      24.323  12.168  11.129  0.00  0.00     0.065 A 
HETATM   13  C   UNK N   1      22.979  11.826  11.256  0.00  0.00     0.037 A 
HETATM   14  C   UNK N   1      22.126  11.943  10.158  0.00  0.00     0.014 A 
BRANCH  12  15
HETATM   15  O   UNK N   1      25.142  12.066  12.188  0.00  0.00    -0.361 OA
ATOM     16  HO  UNK N   1      25.723  11.320  12.272  1.00  0.00     0.217 HD
ENDBRANCH  12  15
ENDBRANCH   1   9
BRANCH   7  17
HETATM   17  C   UNK N   1      19.561  17.107   7.910  0.00  0.00     0.203 C 
BRANCH  17  18
HETATM   18  C   UNK N   1      18.364  16.992   8.794  0.00  0.00     0.251 C 
HETATM   19  O   UNK N   1      17.285  16.672   8.323  0.00  0.00    -0.305 OA
ENDBRANCH  17  18
ENDBRANCH   7  17
BRANCH   3  20
HETATM   20  C   UNK N   1      18.971  15.649   5.160  0.00  0.00     0.194 C 
HETATM   21  O   UNK N   1      17.754  15.728   5.224  0.00  0.00    -0.289 OA
BRANCH  20  22
HETATM   22  C   UNK N   1      19.667  16.062   3.906  0.00  0.00     0.097 C 
BRANCH  22  23
HETATM   23  C   UNK N   1      20.312  17.421   4.076  0.00  0.00     0.081 C 
BRANCH  23  24
HETATM   24  S   UNK N   1      19.589  18.573   2.879  0.00  0.00    -0.173 SA
HETATM   25  C   UNK N   1      21.192  19.365   2.583  0.00  0.00     0.089 C 
ENDBRANCH  23  24
ENDBRANCH  22  23
ENDBRANCH  20  22
ENDBRANCH   3  20
TORSDOF 8
ENDMDL
MODEL 4
REMARK VINA RESULT:      -6.0      7.670      8.454
REMARK  8 active torsions:
REMARK  status: ('A' for Active; 'I' for Inactive)
REMARK    1  A    between atoms: C_9  and  C_6 
REMARK    2  A    between atoms: C_14  and  C_6 
REMARK    3  A    between atoms: C_8  and  C_7 
REMARK    4  A    between atoms: N_19  and  C_7 
REMARK    5  A    between atoms: S_25  and  C_9 
REMARK    6  A    between atoms: C_11  and  C_10 
REMARK    7  A    between atoms: O_21  and  C_12 
REMARK    8  A    between atoms: C_15  and  C_14 
ROOT
HETATM    1  C   UNK N   1      27.937  18.303   4.057  0.00  0.00     0.046 C 
HETATM    2  C   UNK N   1      28.618  18.176   5.219  0.00  0.00     0.103 A 
HETATM    3  C   UNK N   1      30.171  17.393   6.558  0.00  0.00     0.158 A 
HETATM    4  C   UNK N   1      28.373  18.697   6.569  0.00  0.00     0.276 A 
HETATM    5  N   UNK N   1      29.795  17.386   5.322  0.00  0.00    -0.335 N 
ATOM      6  HN  UNK N   1      30.260  16.901   4.555  1.00  0.00     0.168 HD
HETATM    7  N   UNK N   1      29.327  18.206   7.368  0.00  0.00    -0.289 N 
HETATM    8  O   UNK N   1      27.509  19.471   6.947  0.00  0.00    -0.265 OA
ENDROOT
BRANCH   1   9
HETATM    9  C   UNK N   1      26.625  18.979   3.860  0.00  0.00    -0.034 A 
HETATM   10  C   UNK N   1      26.606  20.263   3.294  0.00  0.00     0.014 A 
HETATM   11  C   UNK N   1      25.391  20.896   3.011  0.00  0.00     0.037 A 
HETATM   12  C   UNK N   1      24.184  20.242   3.275  0.00  0.00     0.065 A 
HETATM   13  C   UNK N   1      24.193  18.964   3.830  0.00  0.00     0.037 A 
HETATM   14  C   UNK N   1      25.407  18.341   4.116  0.00  0.00     0.014 A 
BRANCH  12  15
HETATM   15  O   UNK N   1      23.016  20.839   2.988  0.00  0.00    -0.361 OA
ATOM     16  HO  UNK N   1      22.745  20.949   2.085  1.00  0.00     0.217 HD
ENDBRANCH  12  15
ENDBRANCH   1   9
BRANCH   7  17
HETATM   17  C   UNK N   1      29.462  18.494   8.776  0.00  0.00     0.203 C 
BRANCH  17  18
HETATM   18  C   UNK N   1      28.791  17.432   9.583  0.00  0.00     0.251 C 
HETATM   19  O   UNK N   1      27.580  17.294   9.524  0.00  0.00    -0.305 OA
ENDBRANCH  17  18
ENDBRANCH   7  17
BRANCH   3  20
HETATM   20  C   UNK N   1      31.332  16.613   7.044  0.00  0.00     0.194 C 
HETATM   21  O   UNK N   1      31.184  15.447   7.382  0.00  0.00    -0.289 OA
BRANCH  20  22
HETATM   22  C   UNK N   1      32.676  17.248   7.177  0.00  0.00     0.097 C 
BRANCH  22  23
HETATM   23  C   UNK N   1      33.102  17.293   8.629  0.00  0.00     0.081 C 
BRANCH  23  24
HETATM   24  S   UNK N   1      34.566  16.247   8.848  0.00  0.00    -0.173 SA
HETATM   25  C   UNK N   1      33.667  15.114   9.940  0.00  0.00     0.089 C 
ENDBRANCH  23  24
ENDBRANCH  22  23
ENDBRANCH  20  22
ENDBRANCH   3  20
TORSDOF 8
ENDMDL
MODEL 5
REMARK VINA RESULT:      -5.9     14.412     18.005
REMARK  8 active torsions:
REMARK  status: ('A' for Active; 'I' for Inactive)
REMARK    1  A    between atoms: C_9  and  C_6 
REMARK    2  A    between atoms: C_14  and  C_6 
REMARK    3  A    between atoms: C_8  and  C_7 
REMARK    4  A    between atoms: N_19  and  C_7 
REMARK    5  A    between atoms: S_25  and  C_9 
REMARK    6  A    between atoms: C_11  and  C_10 
REMARK    7  A    between atoms: O_21  and  C_12 
REMARK    8  A    between atoms: C_15  and  C_14 
ROOT
HETATM    1  C   UNK N   1      36.571  13.769  15.207  0.00  0.00     0.046 C 
HETATM    2  C   UNK N   1      36.192  13.806  13.909  0.00  0.00     0.103 A 
HETATM    3  C   UNK N   1      36.069  14.630  11.878  0.00  0.00     0.158 A 
HETATM    4  C   UNK N   1      35.269  12.975  13.126  0.00  0.00     0.276 A 
HETATM    5  N   UNK N   1      36.659  14.805  13.014  0.00  0.00    -0.335 N 
ATOM      6  HN  UNK N   1      37.341  15.532  13.230  1.00  0.00     0.168 HD
HETATM    7  N   UNK N   1      35.207  13.496  11.895  0.00  0.00    -0.289 N 
HETATM    8  O   UNK N   1      34.677  11.962  13.460  0.00  0.00    -0.265 OA
ENDROOT
BRANCH   1   9
HETATM    9  C   UNK N   1      36.043  12.866  16.266  0.00  0.00    -0.034 A 
HETATM   10  C   UNK N   1      36.319  11.492  16.181  0.00  0.00     0.014 A 
HETATM   11  C   UNK N   1      35.917  10.623  17.201  0.00  0.00     0.037 A 
HETATM   12  C   UNK N   1      35.251  11.123  18.324  0.00  0.00     0.065 A 
HETATM   13  C   UNK N   1      34.980  12.486  18.421  0.00  0.00     0.037 A 
HETATM   14  C   UNK N   1      35.378  13.347  17.399  0.00  0.00     0.014 A 
BRANCH  12  15
HETATM   15  O   UNK N   1      34.879  10.294  19.313  0.00  0.00    -0.361 OA
ATOM     16  HO  UNK N   1      35.526   9.955  19.919  1.00  0.00     0.217 HD
ENDBRANCH  12  15
ENDBRANCH   1   9
BRANCH   7  17
HETATM   17  C   UNK N   1      34.426  12.962  10.805  0.00  0.00     0.203 C 
BRANCH  17  18
HETATM   18  C   UNK N   1      35.177  11.865  10.126  0.00  0.00     0.251 C 
HETATM   19  O   UNK N   1      36.346  12.027   9.813  0.00  0.00    -0.305 OA
ENDBRANCH  17  18
ENDBRANCH   7  17
BRANCH   3  20
HETATM   20  C   UNK N   1      36.267  15.538  10.725  0.00  0.00     0.194 C 
HETATM   21  O   UNK N   1      37.170  15.325   9.930  0.00  0.00    -0.289 OA
BRANCH  20  22
HETATM   22  C   UNK N   1      35.406  16.744  10.548  0.00  0.00     0.097 C 
BRANCH  22  23
HETATM   23  C   UNK N   1      34.379  16.510   9.461  0.00  0.00     0.081 C 
BRANCH  23  24
HETATM   24  S   UNK N   1      34.398  17.915   8.317  0.00  0.00    -0.173 SA
HETATM   25  C   UNK N   1      32.593  17.884   8.154  0.00  0.00     0.089 C 
ENDBRANCH  23  24
ENDBRANCH  22  23
ENDBRANCH  20  22
ENDBRANCH   3  20
TORSDOF 8
ENDMDL
MODEL 6
REMARK VINA RESULT:      -5.9      8.711      9.795
REMARK  8 active torsions:
REMARK  status: ('A' for Active; 'I' for Inactive)
REMARK    1  A    between atoms: C_9  and  C_6 
REMARK    2  A    between atoms: C_14  and  C_6 
REMARK    3  A    between atoms: C_8  and  C_7 
REMARK    4  A    between atoms: N_19  and  C_7 
REMARK    5  A    between atoms: S_25  and  C_9 
REMARK    6  A    between atoms: C_11  and  C_10 
REMARK    7  A    between atoms: O_21  and  C_12 
REMARK    8  A    between atoms: C_15  and  C_14 
ROOT
HETATM    1  C   UNK N   1      27.658  18.724   6.279  0.00  0.00     0.046 C 
HETATM    2  C   UNK N   1      28.827  18.044   6.258  0.00  0.00     0.103 A 
HETATM    3  C   UNK N   1      30.660  17.181   7.101  0.00  0.00     0.158 A 
HETATM    4  C   UNK N   1      29.629  17.493   5.159  0.00  0.00     0.276 A 
HETATM    5  N   UNK N   1      29.561  17.767   7.442  0.00  0.00    -0.335 N 
ATOM      6  HN  UNK N   1      29.271  17.991   8.394  1.00  0.00     0.168 HD
HETATM    7  N   UNK N   1      30.741  16.975   5.694  0.00  0.00    -0.289 N 
HETATM    8  O   UNK N   1      29.366  17.441   3.969  0.00  0.00    -0.265 OA
ENDROOT
BRANCH   1   9
HETATM    9  C   UNK N   1      26.878  19.196   5.102  0.00  0.00    -0.034 A 
HETATM   10  C   UNK N   1      25.583  18.692   4.905  0.00  0.00     0.014 A 
HETATM   11  C   UNK N   1      24.784  19.174   3.862  0.00  0.00     0.037 A 
HETATM   12  C   UNK N   1      25.268  20.179   3.019  0.00  0.00     0.065 A 
HETATM   13  C   UNK N   1      26.548  20.691   3.212  0.00  0.00     0.037 A 
HETATM   14  C   UNK N   1      27.343  20.202   4.248  0.00  0.00     0.014 A 
BRANCH  12  15
HETATM   15  O   UNK N   1      24.497  20.657   2.028  0.00  0.00    -0.361 OA
ATOM     16  HO  UNK N   1      24.732  21.466   1.590  1.00  0.00     0.217 HD
ENDBRANCH  12  15
ENDBRANCH   1   9
BRANCH   7  17
HETATM   17  C   UNK N   1      31.788  16.312   4.954  0.00  0.00     0.203 C 
BRANCH  17  18
HETATM   18  C   UNK N   1      32.691  17.322   4.326  0.00  0.00     0.251 C 
HETATM   19  O   UNK N   1      33.542  17.881   4.998  0.00  0.00    -0.305 OA
ENDBRANCH  17  18
ENDBRANCH   7  17
BRANCH   3  20
HETATM   20  C   UNK N   1      31.705  16.806   8.082  0.00  0.00     0.194 C 
HETATM   21  O   UNK N   1      31.682  15.702   8.605  0.00  0.00    -0.289 OA
BRANCH  20  22
HETATM   22  C   UNK N   1      32.762  17.782   8.480  0.00  0.00     0.097 C 
BRANCH  22  23
HETATM   23  C   UNK N   1      34.139  17.215   8.210  0.00  0.00     0.081 C 
BRANCH  23  24
HETATM   24  S   UNK N   1      34.912  16.764   9.786  0.00  0.00    -0.173 SA
HETATM   25  C   UNK N   1      35.270  15.087   9.200  0.00  0.00     0.089 C 
ENDBRANCH  23  24
ENDBRANCH  22  23
ENDBRANCH  20  22
ENDBRANCH   3  20
TORSDOF 8
ENDMDL
MODEL 7
REMARK VINA RESULT:      -5.7     14.592     17.799
REMARK  8 active torsions:
REMARK  status: ('A' for Active; 'I' for Inactive)
REMARK    1  A    between atoms: C_9  and  C_6 
REMARK    2  A    between atoms: C_14  and  C_6 
REMARK    3  A    between atoms: C_8  and  C_7 
REMARK    4  A    between atoms: N_19  and  C_7 
REMARK    5  A    between atoms: S_25  and  C_9 
REMARK    6  A    between atoms: C_11  and  C_10 
REMARK    7  A    between atoms: O_21  and  C_12 
REMARK    8  A    between atoms: C_15  and  C_14 
ROOT
HETATM    1  C   UNK N   1      34.291  11.603  14.893  0.00  0.00     0.046 C 
HETATM    2  C   UNK N   1      34.746  12.153  13.744  0.00  0.00     0.103 A 
HETATM    3  C   UNK N   1      34.974  12.354  11.570  0.00  0.00     0.158 A 
HETATM    4  C   UNK N   1      35.728  13.210  13.476  0.00  0.00     0.276 A 
HETATM    5  N   UNK N   1      34.315  11.700  12.468  0.00  0.00    -0.335 N 
ATOM      6  HN  UNK N   1      33.609  10.985  12.293  1.00  0.00     0.168 HD
HETATM    7  N   UNK N   1      35.854  13.313  12.148  0.00  0.00    -0.289 N 
HETATM    8  O   UNK N   1      36.317  13.928  14.267  0.00  0.00    -0.265 OA
ENDROOT
BRANCH   1   9
HETATM    9  C   UNK N   1      34.772  11.892  16.272  0.00  0.00    -0.034 A 
HETATM   10  C   UNK N   1      34.651  13.199  16.769  0.00  0.00     0.014 A 
HETATM   11  C   UNK N   1      35.009  13.493  18.089  0.00  0.00     0.037 A 
HETATM   12  C   UNK N   1      35.473  12.477  18.930  0.00  0.00     0.065 A 
HETATM   13  C   UNK N   1      35.589  11.175  18.449  0.00  0.00     0.037 A 
HETATM   14  C   UNK N   1      35.237  10.889  17.130  0.00  0.00     0.014 A 
BRANCH  12  15
HETATM   15  O   UNK N   1      35.801  12.752  20.203  0.00  0.00    -0.361 OA
ATOM     16  HO  UNK N   1      35.918  12.047  20.828  1.00  0.00     0.217 HD
ENDBRANCH  12  15
ENDBRANCH   1   9
BRANCH   7  17
HETATM   17  C   UNK N   1      36.707  14.256  11.464  0.00  0.00     0.203 C 
BRANCH  17  18
HETATM   18  C   UNK N   1      35.986  15.548  11.263  0.00  0.00     0.251 C 
HETATM   19  O   UNK N   1      36.547  16.481  10.712  0.00  0.00    -0.305 OA
ENDBRANCH  17  18
ENDBRANCH   7  17
BRANCH   3  20
HETATM   20  C   UNK N   1      34.828  12.089  10.120  0.00  0.00     0.194 C 
HETATM   21  O   UNK N   1      35.429  11.156   9.608  0.00  0.00    -0.289 OA
BRANCH  20  22
HETATM   22  C   UNK N   1      33.993  12.981   9.263  0.00  0.00     0.097 C 
BRANCH  22  23
HETATM   23  C   UNK N   1      34.527  13.009   7.846  0.00  0.00     0.081 C 
BRANCH  23  24
HETATM   24  S   UNK N   1      35.861  14.231   7.742  0.00  0.00    -0.173 SA
HETATM   25  C   UNK N   1      35.100  15.029   6.304  0.00  0.00     0.089 C 
ENDBRANCH  23  24
ENDBRANCH  22  23
ENDBRANCH  20  22
ENDBRANCH   3  20
TORSDOF 8
ENDMDL
MODEL 8
REMARK VINA RESULT:      -5.7     15.410     18.016
REMARK  8 active torsions:
REMARK  status: ('A' for Active; 'I' for Inactive)
REMARK    1  A    between atoms: C_9  and  C_6 
REMARK    2  A    between atoms: C_14  and  C_6 
REMARK    3  A    between atoms: C_8  and  C_7 
REMARK    4  A    between atoms: N_19  and  C_7 
REMARK    5  A    between atoms: S_25  and  C_9 
REMARK    6  A    between atoms: C_11  and  C_10 
REMARK    7  A    between atoms: O_21  and  C_12 
REMARK    8  A    between atoms: C_15  and  C_14 
ROOT
HETATM    1  C   UNK N   1      34.276  11.621  15.003  0.00  0.00     0.046 C 
HETATM    2  C   UNK N   1      34.735  12.165  13.853  0.00  0.00     0.103 A 
HETATM    3  C   UNK N   1      34.965  12.362  11.679  0.00  0.00     0.158 A 
HETATM    4  C   UNK N   1      35.727  13.212  13.584  0.00  0.00     0.276 A 
HETATM    5  N   UNK N   1      34.299  11.715  12.578  0.00  0.00    -0.335 N 
ATOM      6  HN  UNK N   1      33.586  11.007  12.404  1.00  0.00     0.168 HD
HETATM    7  N   UNK N   1      35.854  13.313  12.256  0.00  0.00    -0.289 N 
HETATM    8  O   UNK N   1      36.324  13.925  14.374  0.00  0.00    -0.265 OA
ENDROOT
BRANCH   1   9
HETATM    9  C   UNK N   1      34.759  11.906  16.382  0.00  0.00    -0.034 A 
HETATM   10  C   UNK N   1      34.659  13.216  16.875  0.00  0.00     0.014 A 
HETATM   11  C   UNK N   1      35.020  13.508  18.194  0.00  0.00     0.037 A 
HETATM   12  C   UNK N   1      35.468  12.487  19.039  0.00  0.00     0.065 A 
HETATM   13  C   UNK N   1      35.563  11.182  18.561  0.00  0.00     0.037 A 
HETATM   14  C   UNK N   1      35.208  10.898  17.243  0.00  0.00     0.014 A 
BRANCH  12  15
HETATM   15  O   UNK N   1      35.798  12.760  20.311  0.00  0.00    -0.361 OA
ATOM     16  HO  UNK N   1      35.507  13.567  20.717  1.00  0.00     0.217 HD
ENDBRANCH  12  15
ENDBRANCH   1   9
BRANCH   7  17
HETATM   17  C   UNK N   1      36.717  14.247  11.571  0.00  0.00     0.203 C 
BRANCH  17  18
HETATM   18  C   UNK N   1      36.015  15.552  11.388  0.00  0.00     0.251 C 
HETATM   19  O   UNK N   1      36.507  16.416  10.680  0.00  0.00    -0.305 OA
ENDBRANCH  17  18
ENDBRANCH   7  17
BRANCH   3  20
HETATM   20  C   UNK N   1      34.816  12.097  10.229  0.00  0.00     0.194 C 
HETATM   21  O   UNK N   1      34.163  12.862   9.535  0.00  0.00    -0.289 OA
BRANCH  20  22
HETATM   22  C   UNK N   1      35.413  10.877   9.612  0.00  0.00     0.097 C 
BRANCH  22  23
HETATM   23  C   UNK N   1      36.838  10.684  10.085  0.00  0.00     0.081 C 
BRANCH  23  24
HETATM   24  S   UNK N   1      36.973   9.078  10.915  0.00  0.00    -0.173 SA
HETATM   25  C   UNK N   1      37.557   9.851  12.447  0.00  0.00     0.089 C 
ENDBRANCH  23  24
ENDBRANCH  22  23
ENDBRANCH  20  22
ENDBRANCH   3  20
TORSDOF 8
ENDMDL
MODEL 9
REMARK VINA RESULT:      -5.7     15.325     17.040
REMARK  8 active torsions:
REMARK  status: ('A' for Active; 'I' for Inactive)
REMARK    1  A    between atoms: C_9  and  C_6 
REMARK    2  A    between atoms: C_14  and  C_6 
REMARK    3  A    between atoms: C_8  and  C_7 
REMARK    4  A    between atoms: N_19  and  C_7 
REMARK    5  A    between atoms: S_25  and  C_9 
REMARK    6  A    between atoms: C_11  and  C_10 
REMARK    7  A    between atoms: O_21  and  C_12 
REMARK    8  A    between atoms: C_15  and  C_14 
ROOT
HETATM    1  C   UNK N   1      30.467  25.312  -3.603  0.00  0.00     0.046 C 
HETATM    2  C   UNK N   1      29.180  25.577  -3.925  0.00  0.00     0.103 A 
HETATM    3  C   UNK N   1      27.343  26.775  -4.020  0.00  0.00     0.158 A 
HETATM    4  C   UNK N   1      28.113  24.747  -4.496  0.00  0.00     0.276 A 
HETATM    5  N   UNK N   1      28.589  26.847  -3.686  0.00  0.00    -0.335 N 
ATOM      6  HN  UNK N   1      29.066  27.670  -3.318  1.00  0.00     0.168 HD
HETATM    7  N   UNK N   1      27.005  25.494  -4.542  0.00  0.00    -0.289 N 
HETATM    8  O   UNK N   1      28.173  23.602  -4.913  0.00  0.00    -0.265 OA
ENDROOT
BRANCH   1   9
HETATM    9  C   UNK N   1      31.150  23.990  -3.671  0.00  0.00    -0.034 A 
HETATM   10  C   UNK N   1      30.841  23.020  -2.706  0.00  0.00     0.014 A 
HETATM   11  C   UNK N   1      31.393  21.737  -2.785  0.00  0.00     0.037 A 
HETATM   12  C   UNK N   1      32.246  21.408  -3.843  0.00  0.00     0.065 A 
HETATM   13  C   UNK N   1      32.553  22.362  -4.811  0.00  0.00     0.037 A 
HETATM   14  C   UNK N   1      32.004  23.641  -4.723  0.00  0.00     0.014 A 
BRANCH  12  15
HETATM   15  O   UNK N   1      32.765  20.173  -3.933  0.00  0.00    -0.361 OA
ATOM     16  HO  UNK N   1      33.016  19.821  -4.778  1.00  0.00     0.217 HD
ENDBRANCH  12  15
ENDBRANCH   1   9
BRANCH   7  17
HETATM   17  C   UNK N   1      25.729  25.058  -5.061  0.00  0.00     0.203 C 
BRANCH  17  18
HETATM   18  C   UNK N   1      25.634  25.374  -6.517  0.00  0.00     0.251 C 
HETATM   19  O   UNK N   1      25.393  24.488  -7.320  0.00  0.00    -0.305 OA
ENDBRANCH  17  18
ENDBRANCH   7  17
BRANCH   3  20
HETATM   20  C   UNK N   1      26.401  27.903  -3.839  0.00  0.00     0.194 C 
HETATM   21  O   UNK N   1      25.478  27.804  -3.044  0.00  0.00    -0.289 OA
BRANCH  20  22
HETATM   22  C   UNK N   1      26.534  29.145  -4.656  0.00  0.00     0.097 C 
BRANCH  22  23
HETATM   23  C   UNK N   1      26.660  30.359  -3.760  0.00  0.00     0.081 C 
BRANCH  23  24
HETATM   24  S   UNK N   1      28.407  30.612  -3.351  0.00  0.00    -0.173 SA
HETATM   25  C   UNK N   1      28.118  30.212  -1.606  0.00  0.00     0.089 C 
ENDBRANCH  23  24
ENDBRANCH  22  23
ENDBRANCH  20  22
ENDBRANCH   3  20
TORSDOF 8
ENDMDL
