REMARK  12 active torsions:
REMARK  status: ('A' for Active; 'I' for Inactive)
REMARK    1  A    between atoms: C_18  and  C_8 
REMARK    2  A    between atoms: C_12  and  C_10 
REMARK    3  A    between atoms: O_24  and  C_11 
REMARK    4  A    between atoms: C_14  and  C_12 
REMARK    5  A    between atoms: C_12  and  C_15 
REMARK    6  A    between atoms: C_16  and  C_13 
REMARK    7  A    between atoms: C_14  and  O_25 
REMARK    8  A    between atoms: O_27  and  C_15 
REMARK    9  A    between atoms: O_28  and  C_16 
REMARK   10  A    between atoms: C_17  and  C_18 
REMARK   11  A    between atoms: C_18  and  N_21 
REMARK   12  A    between atoms: C_18  and  O_30 
ROOT
HETATM    1  C   UNK N   1      -1.630   2.778   0.383  0.00  0.00     0.133 C 
HETATM    2  N   UNK N   1      -2.452   2.012  -0.259  0.00  0.00    -0.332 N 
ATOM      3  HN  UNK N   1      -2.209   1.751  -1.215  1.00  0.00     0.165 HD
ENDROOT
BRANCH   2   4
HETATM    4  C   UNK N   1      -3.706   1.493   0.293  0.00  0.00     0.234 C 
BRANCH   4   5
HETATM    5  C   UNK N   1      -4.591   2.692   0.545  0.00  0.00     0.296 C 
HETATM    6  O   UNK N   1      -4.900   3.451  -0.360  0.00  0.00    -0.301 OA
ENDBRANCH   4   5
BRANCH   4   7
HETATM    7  C   UNK N   1      -4.390   0.541  -0.761  0.00  0.00     0.285 C 
HETATM    8  N   UNK N   1      -4.046  -0.868  -0.540  0.00  0.00    -0.354 N 
HETATM    9  C   UNK N   1      -4.897  -1.726  -0.072  0.00  0.00     0.112 C 
ATOM     10  HN  UNK N   1      -3.103  -1.184  -0.764  1.00  0.00     0.162 HD
HETATM   11  C   UNK N   1      -6.256  -1.247   0.292  0.00  0.00    -0.011 C 
HETATM   12  C   UNK N   1      -7.235  -2.040   0.723  0.00  0.00     0.023 C 
HETATM   13  C   UNK N   1      -6.463   0.219   0.243  0.00  0.00     0.211 C 
HETATM   14  O   UNK N   1      -5.800   0.726  -0.884  0.00  0.00    -0.357 OA
BRANCH   9  15
HETATM   15  C   UNK N   1      -4.473  -3.137   0.131  0.00  0.00     0.194 C 
HETATM   16  O   UNK N   1      -5.248  -3.967   0.574  0.00  0.00    -0.645 OA
BRANCH  15  17
HETATM   17  O   UNK N   1      -3.206  -3.501  -0.149  0.00  0.00    -0.772 OA
HETATM   18  H   UNK N   1      -2.985  -4.390  -0.343  0.00  0.00     0.167 HD
ENDBRANCH  15  17
ENDBRANCH   9  15
ENDBRANCH   4   7
BRANCH   4  19
HETATM   19  O   UNK N   1      -3.540   0.844   1.551  0.00  0.00    -0.356 OA
HETATM   20  C   UNK N   1      -2.395   0.022   1.556  0.00  0.00     0.205 C 
ENDBRANCH   4  19
ENDBRANCH   2   4
BRANCH   1  21
HETATM   21  C   UNK N   1      -0.475   3.412  -0.350  0.00  0.00     0.191 C 
BRANCH  21  22
HETATM   22  C   UNK N   1      -0.651   4.928  -0.258  0.00  0.00    -0.036 A 
HETATM   23  C   UNK N   1       0.306   5.771   0.331  0.00  0.00     0.011 A 
HETATM   24  C   UNK N   1       0.085   7.149   0.424  0.00  0.00     0.037 A 
HETATM   25  C   UNK N   1      -1.099   7.701  -0.068  0.00  0.00     0.065 A 
HETATM   26  C   UNK N   1      -2.058   6.878  -0.662  0.00  0.00     0.037 A 
HETATM   27  C   UNK N   1      -1.834   5.502  -0.758  0.00  0.00     0.011 A 
BRANCH  25  28
HETATM   28  O   UNK N   1      -1.316   9.022   0.031  0.00  0.00    -0.361 OA
HETATM   29  H   UNK N   1      -0.594   9.615   0.100  0.00  0.00     0.217 HD
ENDBRANCH  25  28
ENDBRANCH  21  22
BRANCH  21  30
HETATM   30  C   UNK N   1       0.826   2.818   0.165  0.00  0.00     0.156 C 
HETATM   31  O   UNK N   1       1.008   1.614   0.065  0.00  0.00    -0.649 OA
BRANCH  30  32
HETATM   32  O   UNK N   1       1.796   3.579   0.706  0.00  0.00    -0.775 OA
HETATM   33  H   UNK N   1       2.592   3.260   1.082  0.00  0.00     0.167 HD
ENDBRANCH  30  32
ENDBRANCH  21  30
ENDBRANCH   1  21
BRANCH   1  34
HETATM   34  O   UNK N   1      -1.828   3.066   1.689  0.00  0.00    -0.349 OA
HETATM   35  H   UNK N   1      -1.723   3.285   2.594  0.00  0.00     0.219 HD
ENDBRANCH   1  34
TORSDOF 12
