REMARK  4 active torsions:
REMARK  status: ('A' for Active; 'I' for Inactive)
REMARK    1  A    between atoms: C_2  and  N_1 
REMARK    2  A    between atoms: C_5  and  O_13 
REMARK    3  A    between atoms: C_15  and  N_21 
REMARK    4  A    between atoms: P_22  and  O_24 
ROOT
HETATM    1  N   UNK N   1       1.111   0.924   0.203  0.00  0.00    -0.297 N 
HETATM    2  C   UNK N   1       2.226   0.182   0.164  0.00  0.00     0.142 A 
HETATM    3  C   UNK N   1       1.519   2.186  -0.095  0.00  0.00     0.188 A 
HETATM    4  C   UNK N   1       3.277   0.969  -0.143  0.00  0.00     0.122 A 
HETATM    5  N   UNK N   1       2.356  -1.145   0.399  0.00  0.00    -0.336 N 
ATOM      6  HN  UNK N   1       1.547  -1.718   0.636  1.00  0.00     0.168 HD
HETATM    7  N   UNK N   1       2.863   2.237  -0.315  0.00  0.00    -0.346 N 
ATOM      8  HN  UNK N   1       3.428   3.052  -0.555  1.00  0.00     0.167 HD
HETATM    9  C   UNK N   1       4.551   0.430  -0.222  0.00  0.00     0.131 A 
HETATM   10  C   UNK N   1       3.607  -1.695   0.309  0.00  0.00     0.183 A 
HETATM   11  N   UNK N   1       4.694  -0.910   0.005  0.00  0.00    -0.337 N 
ATOM     12  HN  UNK N   1       5.620  -1.333  -0.052  1.00  0.00     0.168 HD
ENDROOT
BRANCH   1  13
HETATM   13  C   UNK N   1      -0.244   0.506   0.570  0.00  0.00     0.262 C 
HETATM   14  C   UNK N   1      -0.802  -0.639  -0.277  0.00  0.00     0.199 C 
HETATM   15  C   UNK N   1      -2.208  -0.408   0.107  0.00  0.00     0.197 C 
HETATM   16  O   UNK N   1      -3.226  -1.054  -0.598  0.00  0.00    -0.286 OA
HETATM   17  C   UNK N   1      -2.273   1.046  -0.160  0.00  0.00     0.180 C 
HETATM   18  P   UNK N   1      -4.601  -0.899   0.494  0.00  0.00     0.393 P 
HETATM   19  O   UNK N   1      -5.932  -0.874  -0.302  0.00  0.00    -0.631 OA
HETATM   20  O   UNK N   1      -4.586   0.668  -0.318  0.00  0.00    -0.294 OA
HETATM   21  C   UNK N   1      -3.633   1.470   0.352  0.00  0.00     0.215 C 
HETATM   22  O   UNK N   1      -1.166   1.591   0.511  0.00  0.00    -0.353 OA
BRANCH  14  23
HETATM   23  O   UNK N   1      -0.369  -1.878   0.192  0.00  0.00    -0.388 OA
HETATM   24  H   UNK N   1      -0.965  -2.570   0.519  0.00  0.00     0.210 HD
ENDBRANCH  14  23
BRANCH  18  25
HETATM   25  O   UNK N   1      -4.660  -2.408  -0.360  0.00  0.00    -0.307 OA
HETATM   26  H   UNK N   1      -5.407  -2.802  -0.838  0.00  0.00     0.222 HD
ENDBRANCH  18  25
ENDBRANCH   1  13
BRANCH   9  27
HETATM   27  N   UNK N   1       5.671   1.233  -0.515  0.00  0.00    -0.383 N 
HETATM   28  H   UNK N   1       6.548   0.837  -0.720  0.00  0.00     0.157 HD
HETATM   29  H   UNK N   1       5.573   2.213  -0.515  0.00  0.00     0.157 HD
ENDBRANCH   9  27
TORSDOF 4
