MODEL 1
REMARK VINA RESULT:      -7.4      0.000      0.000
REMARK  9 active torsions:
REMARK  status: ('A' for Active; 'I' for Inactive)
REMARK    1  A    between atoms: C_14  and  C_11 
REMARK    2  A    between atoms: C_16  and  C_11 
REMARK    3  A    between atoms: C_17  and  C_12 
REMARK    4  A    between atoms: N_22  and  C_12 
REMARK    5  A    between atoms: C_15  and  C_13 
REMARK    6  A    between atoms: O_27  and  C_13 
REMARK    7  A    between atoms: C_17  and  C_16 
REMARK    8  A    between atoms: C_16  and  N_23 
REMARK       I    between atoms: N_23  and  C_18 
REMARK    9  A    between atoms: O_27  and  C_18 
ROOT
HETATM    1  C   UNK N   1      20.083  15.833   7.603  0.00  0.00     0.163 C 
ENDROOT
BRANCH   1   2
HETATM    2  C   UNK N   1      21.460  15.284   8.004  0.00  0.00     0.071 C 
BRANCH   2   3
HETATM    3  C   UNK N   1      21.435  14.253   9.081  0.00  0.00    -0.056 A 
HETATM    4  C   UNK N   1      20.247  13.957   9.749  0.00  0.00     0.007 A 
HETATM    5  C   UNK N   1      20.239  12.969  10.741  0.00  0.00     0.001 A 
HETATM    6  C   UNK N   1      21.418  12.286  11.065  0.00  0.00     0.000 A 
HETATM    7  C   UNK N   1      22.601  12.572  10.385  0.00  0.00     0.001 A 
HETATM    8  C   UNK N   1      22.600  13.539   9.389  0.00  0.00     0.007 A 
ENDBRANCH   2   3
ENDBRANCH   1   2
BRANCH   1   9
HETATM    9  C   UNK N   1      19.852  17.244   8.105  0.00  0.00     0.181 C 
HETATM   10  O   UNK N   1      20.641  18.139   7.814  0.00  0.00    -0.293 OA
BRANCH   9  11
HETATM   11  C   UNK N   1      18.717  17.502   9.071  0.00  0.00     0.325 C 
BRANCH  11  12
HETATM   12  N   UNK N   1      18.935  18.670   9.824  0.00  0.00    -0.370 N 
HETATM   13  N   UNK N   1      19.104  19.590  10.439  0.00  0.00    -0.285 N 
ATOM     14  HN2 UNK N   1      18.806  18.621  10.563  1.00  0.00     0.191 HD
ATOM     15  HN1 UNK N   1      19.261  20.437  10.984  1.00  0.00     0.191 HD
ENDBRANCH  11  12
ENDBRANCH   9  11
ENDBRANCH   1   9
BRANCH   1  16
HETATM   16  N   UNK N   1      20.106  15.959   6.177  0.00  0.00    -0.325 N 
HETATM   17  C   UNK N   1      18.975  16.105   5.466  0.00  0.00     0.361 C 
HETATM   18  O   UNK N   1      17.892  15.761   5.930  0.00  0.00    -0.238 OA
ATOM     19  HN  UNK N   1      21.002  15.937   5.689  1.00  0.00     0.165 HD
BRANCH  17  20
HETATM   20  O   UNK N   1      19.042  16.827   4.333  0.00  0.00    -0.299 OA
BRANCH  20  21
HETATM   21  C   UNK N   1      20.048  16.668   3.421  0.00  0.00     0.219 C 
BRANCH  21  22
HETATM   22  C   UNK N   1      20.667  17.990   3.170  0.00  0.00    -0.034 A 
HETATM   23  C   UNK N   1      21.925  18.264   3.693  0.00  0.00     0.009 A 
HETATM   24  C   UNK N   1      22.525  19.496   3.432  0.00  0.00     0.001 A 
HETATM   25  C   UNK N   1      21.863  20.451   2.653  0.00  0.00     0.000 A 
HETATM   26  C   UNK N   1      20.598  20.180   2.134  0.00  0.00     0.001 A 
HETATM   27  C   UNK N   1      20.004  18.952   2.388  0.00  0.00     0.009 A 
ENDBRANCH  21  22
ENDBRANCH  20  21
ENDBRANCH  17  20
ENDBRANCH   1  16
TORSDOF 9
ENDMDL
MODEL 2
REMARK VINA RESULT:      -6.9     15.212     17.368
REMARK  9 active torsions:
REMARK  status: ('A' for Active; 'I' for Inactive)
REMARK    1  A    between atoms: C_14  and  C_11 
REMARK    2  A    between atoms: C_16  and  C_11 
REMARK    3  A    between atoms: C_17  and  C_12 
REMARK    4  A    between atoms: N_22  and  C_12 
REMARK    5  A    between atoms: C_15  and  C_13 
REMARK    6  A    between atoms: O_27  and  C_13 
REMARK    7  A    between atoms: C_17  and  C_16 
REMARK    8  A    between atoms: C_16  and  N_23 
REMARK       I    between atoms: N_23  and  C_18 
REMARK    9  A    between atoms: O_27  and  C_18 
ROOT
HETATM    1  C   UNK N   1      25.577  25.027  -5.418  0.00  0.00     0.163 C 
ENDROOT
BRANCH   1   2
HETATM    2  C   UNK N   1      24.958  26.405  -5.693  0.00  0.00     0.071 C 
BRANCH   2   3
HETATM    3  C   UNK N   1      25.835  27.565  -5.358  0.00  0.00    -0.056 A 
HETATM    4  C   UNK N   1      26.847  27.962  -6.233  0.00  0.00     0.007 A 
HETATM    5  C   UNK N   1      27.644  29.067  -5.912  0.00  0.00     0.001 A 
HETATM    6  C   UNK N   1      27.430  29.767  -4.719  0.00  0.00     0.000 A 
HETATM    7  C   UNK N   1      26.409  29.379  -3.854  0.00  0.00     0.001 A 
HETATM    8  C   UNK N   1      25.608  28.294  -4.184  0.00  0.00     0.007 A 
ENDBRANCH   2   3
ENDBRANCH   1   2
BRANCH   1   9
HETATM    9  C   UNK N   1      25.960  24.298  -6.692  0.00  0.00     0.181 C 
HETATM   10  O   UNK N   1      26.017  24.908  -7.756  0.00  0.00    -0.293 OA
BRANCH   9  11
HETATM   11  C   UNK N   1      26.139  22.798  -6.652  0.00  0.00     0.325 C 
BRANCH  11  12
HETATM   12  N   UNK N   1      24.909  22.127  -6.789  0.00  0.00    -0.370 N 
HETATM   13  N   UNK N   1      23.923  21.609  -6.892  0.00  0.00    -0.285 N 
ATOM     14  HN2 UNK N   1      24.291  22.524  -6.629  1.00  0.00     0.191 HD
ATOM     15  HN1 UNK N   1      23.032  21.122  -6.990  1.00  0.00     0.191 HD
ENDBRANCH  11  12
ENDBRANCH   9  11
ENDBRANCH   1   9
BRANCH   1  16
HETATM   16  N   UNK N   1      26.822  25.275  -4.758  0.00  0.00    -0.325 N 
HETATM   17  C   UNK N   1      27.191  24.581  -3.668  0.00  0.00     0.361 C 
HETATM   18  O   UNK N   1      26.356  24.001  -2.979  0.00  0.00    -0.238 OA
ATOM     19  HN  UNK N   1      27.445  25.996  -5.124  1.00  0.00     0.165 HD
BRANCH  17  20
HETATM   20  O   UNK N   1      28.506  24.368  -3.482  0.00  0.00    -0.299 OA
BRANCH  20  21
HETATM   21  C   UNK N   1      29.384  24.256  -4.524  0.00  0.00     0.219 C 
BRANCH  21  22
HETATM   22  C   UNK N   1      30.025  22.923  -4.456  0.00  0.00    -0.034 A 
HETATM   23  C   UNK N   1      29.903  22.052  -5.533  0.00  0.00     0.009 A 
HETATM   24  C   UNK N   1      30.531  20.808  -5.487  0.00  0.00     0.001 A 
HETATM   25  C   UNK N   1      31.276  20.436  -4.362  0.00  0.00     0.000 A 
HETATM   26  C   UNK N   1      31.395  21.306  -3.278  0.00  0.00     0.001 A 
HETATM   27  C   UNK N   1      30.775  22.546  -3.328  0.00  0.00     0.009 A 
ENDBRANCH  21  22
ENDBRANCH  20  21
ENDBRANCH  17  20
ENDBRANCH   1  16
TORSDOF 9
ENDMDL
MODEL 3
REMARK VINA RESULT:      -6.9     14.429     17.581
REMARK  9 active torsions:
REMARK  status: ('A' for Active; 'I' for Inactive)
REMARK    1  A    between atoms: C_14  and  C_11 
REMARK    2  A    between atoms: C_16  and  C_11 
REMARK    3  A    between atoms: C_17  and  C_12 
REMARK    4  A    between atoms: N_22  and  C_12 
REMARK    5  A    between atoms: C_15  and  C_13 
REMARK    6  A    between atoms: O_27  and  C_13 
REMARK    7  A    between atoms: C_17  and  C_16 
REMARK    8  A    between atoms: C_16  and  N_23 
REMARK       I    between atoms: N_23  and  C_18 
REMARK    9  A    between atoms: O_27  and  C_18 
ROOT
HETATM    1  C   UNK N   1      34.661  14.404  10.376  0.00  0.00     0.163 C 
ENDROOT
BRANCH   1   2
HETATM    2  C   UNK N   1      33.488  15.221   9.814  0.00  0.00     0.071 C 
BRANCH   2   3
HETATM    3  C   UNK N   1      33.702  15.764   8.441  0.00  0.00    -0.056 A 
HETATM    4  C   UNK N   1      33.927  14.903   7.367  0.00  0.00     0.007 A 
HETATM    5  C   UNK N   1      34.102  15.430   6.082  0.00  0.00     0.001 A 
HETATM    6  C   UNK N   1      34.056  16.814   5.877  0.00  0.00     0.000 A 
HETATM    7  C   UNK N   1      33.816  17.673   6.949  0.00  0.00     0.001 A 
HETATM    8  C   UNK N   1      33.623  17.145   8.218  0.00  0.00     0.007 A 
ENDBRANCH   2   3
ENDBRANCH   1   2
BRANCH   1   9
HETATM    9  C   UNK N   1      35.929  15.225  10.507  0.00  0.00     0.181 C 
HETATM   10  O   UNK N   1      35.892  16.336  11.027  0.00  0.00    -0.293 OA
BRANCH   9  11
HETATM   11  C   UNK N   1      37.203  14.712   9.874  0.00  0.00     0.325 C 
BRANCH  11  12
HETATM   12  N   UNK N   1      37.857  13.786  10.706  0.00  0.00    -0.370 N 
HETATM   13  N   UNK N   1      38.380  13.038  11.354  0.00  0.00    -0.285 N 
ATOM     14  HN2 UNK N   1      38.112  13.160  10.376  1.00  0.00     0.191 HD
ATOM     15  HN1 UNK N   1      38.853  12.366  11.958  1.00  0.00     0.191 HD
ENDBRANCH  11  12
ENDBRANCH   9  11
ENDBRANCH   1   9
BRANCH   1  16
HETATM   16  N   UNK N   1      34.306  14.075  11.723  0.00  0.00    -0.325 N 
HETATM   17  C   UNK N   1      34.906  13.068  12.382  0.00  0.00     0.361 C 
HETATM   18  O   UNK N   1      35.479  12.171  11.771  0.00  0.00    -0.238 OA
ATOM     19  HN  UNK N   1      33.580  14.616  12.193  1.00  0.00     0.165 HD
BRANCH  17  20
HETATM   20  O   UNK N   1      35.039  13.190  13.714  0.00  0.00    -0.299 OA
BRANCH  20  21
HETATM   21  C   UNK N   1      36.206  12.898  14.364  0.00  0.00     0.219 C 
BRANCH  21  22
HETATM   22  C   UNK N   1      36.291  13.740  15.579  0.00  0.00    -0.034 A 
HETATM   23  C   UNK N   1      37.149  14.833  15.593  0.00  0.00     0.009 A 
HETATM   24  C   UNK N   1      37.209  15.647  16.724  0.00  0.00     0.001 A 
HETATM   25  C   UNK N   1      36.413  15.362  17.840  0.00  0.00     0.000 A 
HETATM   26  C   UNK N   1      35.557  14.262  17.830  0.00  0.00     0.001 A 
HETATM   27  C   UNK N   1      35.493  13.456  16.702  0.00  0.00     0.009 A 
ENDBRANCH  21  22
ENDBRANCH  20  21
ENDBRANCH  17  20
ENDBRANCH   1  16
TORSDOF 9
ENDMDL
MODEL 4
REMARK VINA RESULT:      -6.9      2.647      7.332
REMARK  9 active torsions:
REMARK  status: ('A' for Active; 'I' for Inactive)
REMARK    1  A    between atoms: C_14  and  C_11 
REMARK    2  A    between atoms: C_16  and  C_11 
REMARK    3  A    between atoms: C_17  and  C_12 
REMARK    4  A    between atoms: N_22  and  C_12 
REMARK    5  A    between atoms: C_15  and  C_13 
REMARK    6  A    between atoms: O_27  and  C_13 
REMARK    7  A    between atoms: C_17  and  C_16 
REMARK    8  A    between atoms: C_16  and  N_23 
REMARK       I    between atoms: N_23  and  C_18 
REMARK    9  A    between atoms: O_27  and  C_18 
ROOT
HETATM    1  C   UNK N   1      22.352  18.392   4.980  0.00  0.00     0.163 C 
ENDROOT
BRANCH   1   2
HETATM    2  C   UNK N   1      23.467  17.715   4.169  0.00  0.00     0.071 C 
BRANCH   2   3
HETATM    3  C   UNK N   1      24.701  18.535   3.993  0.00  0.00    -0.056 A 
HETATM    4  C   UNK N   1      24.645  19.766   3.339  0.00  0.00     0.007 A 
HETATM    5  C   UNK N   1      25.809  20.531   3.204  0.00  0.00     0.001 A 
HETATM    6  C   UNK N   1      27.024  20.061   3.718  0.00  0.00     0.000 A 
HETATM    7  C   UNK N   1      27.075  18.838   4.384  0.00  0.00     0.001 A 
HETATM    8  C   UNK N   1      25.915  18.092   4.533  0.00  0.00     0.007 A 
ENDBRANCH   2   3
ENDBRANCH   1   2
BRANCH   1   9
HETATM    9  C   UNK N   1      21.182  18.817   4.115  0.00  0.00     0.181 C 
HETATM   10  O   UNK N   1      20.745  19.962   4.190  0.00  0.00    -0.293 OA
BRANCH   9  11
HETATM   11  C   UNK N   1      20.484  17.781   3.264  0.00  0.00     0.325 C 
BRANCH  11  12
HETATM   12  N   UNK N   1      19.300  18.289   2.698  0.00  0.00    -0.370 N 
HETATM   13  N   UNK N   1      18.353  18.696   2.264  0.00  0.00    -0.285 N 
ATOM     14  HN2 UNK N   1      18.788  18.559   3.178  1.00  0.00     0.191 HD
ATOM     15  HN1 UNK N   1      17.495  19.063   1.854  1.00  0.00     0.191 HD
ENDBRANCH  11  12
ENDBRANCH   9  11
ENDBRANCH   1   9
BRANCH   1  16
HETATM   16  N   UNK N   1      21.816  17.380   5.838  0.00  0.00    -0.325 N 
HETATM   17  C   UNK N   1      20.987  17.685   6.852  0.00  0.00     0.361 C 
HETATM   18  O   UNK N   1      20.957  18.819   7.320  0.00  0.00    -0.238 OA
ATOM     19  HN  UNK N   1      22.068  16.404   5.677  1.00  0.00     0.165 HD
BRANCH  17  20
HETATM   20  O   UNK N   1      20.053  16.776   7.186  0.00  0.00    -0.299 OA
BRANCH  20  21
HETATM   21  C   UNK N   1      19.957  16.254   8.446  0.00  0.00     0.219 C 
BRANCH  21  22
HETATM   22  C   UNK N   1      20.590  14.915   8.448  0.00  0.00    -0.034 A 
HETATM   23  C   UNK N   1      21.086  14.397   9.639  0.00  0.00     0.009 A 
HETATM   24  C   UNK N   1      21.654  13.124   9.652  0.00  0.00     0.001 A 
HETATM   25  C   UNK N   1      21.729  12.373   8.474  0.00  0.00     0.000 A 
HETATM   26  C   UNK N   1      21.238  12.894   7.277  0.00  0.00     0.001 A 
HETATM   27  C   UNK N   1      20.666  14.159   7.266  0.00  0.00     0.009 A 
ENDBRANCH  21  22
ENDBRANCH  20  21
ENDBRANCH  17  20
ENDBRANCH   1  16
TORSDOF 9
ENDMDL
MODEL 5
REMARK VINA RESULT:      -6.8     13.628     15.434
REMARK  9 active torsions:
REMARK  status: ('A' for Active; 'I' for Inactive)
REMARK    1  A    between atoms: C_14  and  C_11 
REMARK    2  A    between atoms: C_16  and  C_11 
REMARK    3  A    between atoms: C_17  and  C_12 
REMARK    4  A    between atoms: N_22  and  C_12 
REMARK    5  A    between atoms: C_15  and  C_13 
REMARK    6  A    between atoms: O_27  and  C_13 
REMARK    7  A    between atoms: C_17  and  C_16 
REMARK    8  A    between atoms: C_16  and  N_23 
REMARK       I    between atoms: N_23  and  C_18 
REMARK    9  A    between atoms: O_27  and  C_18 
ROOT
HETATM    1  C   UNK N   1      35.474  14.069  10.999  0.00  0.00     0.163 C 
ENDROOT
BRANCH   1   2
HETATM    2  C   UNK N   1      34.795  13.166  12.039  0.00  0.00     0.071 C 
BRANCH   2   3
HETATM    3  C   UNK N   1      35.299  13.326  13.434  0.00  0.00    -0.056 A 
HETATM    4  C   UNK N   1      34.772  12.554  14.469  0.00  0.00     0.007 A 
HETATM    5  C   UNK N   1      35.274  12.701  15.767  0.00  0.00     0.001 A 
HETATM    6  C   UNK N   1      36.297  13.621  16.026  0.00  0.00     0.000 A 
HETATM    7  C   UNK N   1      36.834  14.381  14.988  0.00  0.00     0.001 A 
HETATM    8  C   UNK N   1      36.346  14.218  13.699  0.00  0.00     0.007 A 
ENDBRANCH   2   3
ENDBRANCH   1   2
BRANCH   1   9
HETATM    9  C   UNK N   1      35.473  13.458   9.611  0.00  0.00     0.181 C 
HETATM   10  O   UNK N   1      34.577  12.688   9.278  0.00  0.00    -0.293 OA
BRANCH   9  11
HETATM   11  C   UNK N   1      36.653  13.707   8.699  0.00  0.00     0.325 C 
BRANCH  11  12
HETATM   12  N   UNK N   1      37.766  14.187   9.414  0.00  0.00    -0.370 N 
HETATM   13  N   UNK N   1      38.662  14.565   9.968  0.00  0.00    -0.285 N 
ATOM     14  HN2 UNK N   1      38.427  14.169   9.057  1.00  0.00     0.191 HD
ATOM     15  HN1 UNK N   1      39.468  14.912  10.487  1.00  0.00     0.191 HD
ENDBRANCH  11  12
ENDBRANCH   9  11
ENDBRANCH   1   9
BRANCH   1  16
HETATM   16  N   UNK N   1      34.646  15.231  10.880  0.00  0.00    -0.325 N 
HETATM   17  C   UNK N   1      35.157  16.427  10.541  0.00  0.00     0.361 C 
HETATM   18  O   UNK N   1      36.352  16.665  10.692  0.00  0.00    -0.238 OA
ATOM     19  HN  UNK N   1      33.644  15.148  11.058  1.00  0.00     0.165 HD
BRANCH  17  20
HETATM   20  O   UNK N   1      34.369  17.264   9.843  0.00  0.00    -0.299 OA
BRANCH  20  21
HETATM   21  C   UNK N   1      34.687  17.689   8.583  0.00  0.00     0.219 C 
BRANCH  21  22
HETATM   22  C   UNK N   1      33.498  17.515   7.716  0.00  0.00    -0.034 A 
HETATM   23  C   UNK N   1      33.657  17.509   6.335  0.00  0.00     0.009 A 
HETATM   24  C   UNK N   1      32.545  17.315   5.516  0.00  0.00     0.001 A 
HETATM   25  C   UNK N   1      31.277  17.131   6.080  0.00  0.00     0.000 A 
HETATM   26  C   UNK N   1      31.116  17.144   7.465  0.00  0.00     0.001 A 
HETATM   27  C   UNK N   1      32.223  17.331   8.280  0.00  0.00     0.009 A 
ENDBRANCH  21  22
ENDBRANCH  20  21
ENDBRANCH  17  20
ENDBRANCH   1  16
TORSDOF 9
ENDMDL
MODEL 6
REMARK VINA RESULT:      -6.6     15.804     17.664
REMARK  9 active torsions:
REMARK  status: ('A' for Active; 'I' for Inactive)
REMARK    1  A    between atoms: C_14  and  C_11 
REMARK    2  A    between atoms: C_16  and  C_11 
REMARK    3  A    between atoms: C_17  and  C_12 
REMARK    4  A    between atoms: N_22  and  C_12 
REMARK    5  A    between atoms: C_15  and  C_13 
REMARK    6  A    between atoms: O_27  and  C_13 
REMARK    7  A    between atoms: C_17  and  C_16 
REMARK    8  A    between atoms: C_16  and  N_23 
REMARK       I    between atoms: N_23  and  C_18 
REMARK    9  A    between atoms: O_27  and  C_18 
ROOT
HETATM    1  C   UNK N   1      25.842  24.555  -7.055  0.00  0.00     0.163 C 
ENDROOT
BRANCH   1   2
HETATM    2  C   UNK N   1      25.857  25.996  -7.584  0.00  0.00     0.071 C 
BRANCH   2   3
HETATM    3  C   UNK N   1      26.070  27.045  -6.544  0.00  0.00    -0.056 A 
HETATM    4  C   UNK N   1      25.204  27.146  -5.455  0.00  0.00     0.007 A 
HETATM    5  C   UNK N   1      25.434  28.121  -4.477  0.00  0.00     0.001 A 
HETATM    6  C   UNK N   1      26.523  28.993  -4.595  0.00  0.00     0.000 A 
HETATM    7  C   UNK N   1      27.396  28.880  -5.675  0.00  0.00     0.001 A 
HETATM    8  C   UNK N   1      27.176  27.899  -6.632  0.00  0.00     0.007 A 
ENDBRANCH   2   3
ENDBRANCH   1   2
BRANCH   1   9
HETATM    9  C   UNK N   1      25.536  23.541  -8.140  0.00  0.00     0.181 C 
HETATM   10  O   UNK N   1      25.113  23.916  -9.230  0.00  0.00    -0.293 OA
BRANCH   9  11
HETATM   11  C   UNK N   1      25.633  22.068  -7.816  0.00  0.00     0.325 C 
BRANCH  11  12
HETATM   12  N   UNK N   1      24.505  21.620  -7.104  0.00  0.00    -0.370 N 
HETATM   13  N   UNK N   1      23.598  21.266  -6.553  0.00  0.00    -0.285 N 
ATOM     14  HN2 UNK N   1      23.859  21.584  -7.488  1.00  0.00     0.191 HD
ATOM     15  HN1 UNK N   1      22.781  20.942  -6.037  1.00  0.00     0.191 HD
ENDBRANCH  11  12
ENDBRANCH   9  11
ENDBRANCH   1   9
BRANCH   1  16
HETATM   16  N   UNK N   1      27.186  24.263  -6.660  0.00  0.00    -0.325 N 
HETATM   17  C   UNK N   1      27.491  23.935  -5.392  0.00  0.00     0.361 C 
HETATM   18  O   UNK N   1      26.741  24.236  -4.467  0.00  0.00    -0.238 OA
ATOM     19  HN  UNK N   1      27.930  24.304  -7.357  1.00  0.00     0.165 HD
BRANCH  17  20
HETATM   20  O   UNK N   1      28.521  23.092  -5.198  0.00  0.00    -0.299 OA
BRANCH  20  21
HETATM   21  C   UNK N   1      29.331  23.166  -4.100  0.00  0.00     0.219 C 
BRANCH  21  22
HETATM   22  C   UNK N   1      30.382  22.129  -4.221  0.00  0.00    -0.034 A 
HETATM   23  C   UNK N   1      30.303  21.195  -5.248  0.00  0.00     0.009 A 
HETATM   24  C   UNK N   1      31.307  20.237  -5.385  0.00  0.00     0.001 A 
HETATM   25  C   UNK N   1      32.384  20.211  -4.492  0.00  0.00     0.000 A 
HETATM   26  C   UNK N   1      32.461  21.143  -3.457  0.00  0.00     0.001 A 
HETATM   27  C   UNK N   1      31.465  22.101  -3.325  0.00  0.00     0.009 A 
ENDBRANCH  21  22
ENDBRANCH  20  21
ENDBRANCH  17  20
ENDBRANCH   1  16
TORSDOF 9
ENDMDL
MODEL 7
REMARK VINA RESULT:      -6.6     14.502     16.362
REMARK  9 active torsions:
REMARK  status: ('A' for Active; 'I' for Inactive)
REMARK    1  A    between atoms: C_14  and  C_11 
REMARK    2  A    between atoms: C_16  and  C_11 
REMARK    3  A    between atoms: C_17  and  C_12 
REMARK    4  A    between atoms: N_22  and  C_12 
REMARK    5  A    between atoms: C_15  and  C_13 
REMARK    6  A    between atoms: O_27  and  C_13 
REMARK    7  A    between atoms: C_17  and  C_16 
REMARK    8  A    between atoms: C_16  and  N_23 
REMARK       I    between atoms: N_23  and  C_18 
REMARK    9  A    between atoms: O_27  and  C_18 
ROOT
HETATM    1  C   UNK N   1      35.413  12.315  13.083  0.00  0.00     0.163 C 
ENDROOT
BRANCH   1   2
HETATM    2  C   UNK N   1      34.441  11.559  14.001  0.00  0.00     0.071 C 
BRANCH   2   3
HETATM    3  C   UNK N   1      34.734  11.676  15.459  0.00  0.00    -0.056 A 
HETATM    4  C   UNK N   1      34.789  12.928  16.071  0.00  0.00     0.007 A 
HETATM    5  C   UNK N   1      35.042  13.016  17.445  0.00  0.00     0.001 A 
HETATM    6  C   UNK N   1      35.244  11.854  18.199  0.00  0.00     0.000 A 
HETATM    7  C   UNK N   1      35.174  10.603  17.589  0.00  0.00     0.001 A 
HETATM    8  C   UNK N   1      34.903  10.519  16.230  0.00  0.00     0.007 A 
ENDBRANCH   2   3
ENDBRANCH   1   2
BRANCH   1   9
HETATM    9  C   UNK N   1      35.983  11.434  11.989  0.00  0.00     0.181 C 
HETATM   10  O   UNK N   1      35.238  10.724  11.320  0.00  0.00    -0.293 OA
BRANCH   9  11
HETATM   11  C   UNK N   1      37.484  11.346  11.826  0.00  0.00     0.325 C 
BRANCH  11  12
HETATM   12  N   UNK N   1      38.025  12.561  11.367  0.00  0.00    -0.370 N 
HETATM   13  N   UNK N   1      38.473  13.521  11.008  0.00  0.00    -0.285 N 
ATOM     14  HN2 UNK N   1      38.767  12.651  11.453  1.00  0.00     0.191 HD
ATOM     15  HN1 UNK N   1      38.865  14.402  10.676  1.00  0.00     0.191 HD
ENDBRANCH  11  12
ENDBRANCH   9  11
ENDBRANCH   1   9
BRANCH   1  16
HETATM   16  N   UNK N   1      34.625  13.287  12.387  0.00  0.00    -0.325 N 
HETATM   17  C   UNK N   1      35.139  14.473  12.016  0.00  0.00     0.361 C 
HETATM   18  O   UNK N   1      36.138  14.926  12.568  0.00  0.00    -0.238 OA
ATOM     19  HN  UNK N   1      33.651  13.075  12.168  1.00  0.00     0.165 HD
BRANCH  17  20
HETATM   20  O   UNK N   1      34.657  15.035  10.893  0.00  0.00    -0.299 OA
BRANCH  20  21
HETATM   21  C   UNK N   1      35.114  14.697   9.650  0.00  0.00     0.219 C 
BRANCH  21  22
HETATM   22  C   UNK N   1      34.710  15.756   8.697  0.00  0.00    -0.034 A 
HETATM   23  C   UNK N   1      34.587  17.066   9.146  0.00  0.00     0.009 A 
HETATM   24  C   UNK N   1      34.236  18.072   8.245  0.00  0.00     0.001 A 
HETATM   25  C   UNK N   1      34.005  17.764   6.900  0.00  0.00     0.000 A 
HETATM   26  C   UNK N   1      34.121  16.450   6.450  0.00  0.00     0.001 A 
HETATM   27  C   UNK N   1      34.476  15.450   7.345  0.00  0.00     0.009 A 
ENDBRANCH  21  22
ENDBRANCH  20  21
ENDBRANCH  17  20
ENDBRANCH   1  16
TORSDOF 9
ENDMDL
MODEL 8
REMARK VINA RESULT:      -6.5     12.385     15.283
REMARK  9 active torsions:
REMARK  status: ('A' for Active; 'I' for Inactive)
REMARK    1  A    between atoms: C_14  and  C_11 
REMARK    2  A    between atoms: C_16  and  C_11 
REMARK    3  A    between atoms: C_17  and  C_12 
REMARK    4  A    between atoms: N_22  and  C_12 
REMARK    5  A    between atoms: C_15  and  C_13 
REMARK    6  A    between atoms: O_27  and  C_13 
REMARK    7  A    between atoms: C_17  and  C_16 
REMARK    8  A    between atoms: C_16  and  N_23 
REMARK       I    between atoms: N_23  and  C_18 
REMARK    9  A    between atoms: O_27  and  C_18 
ROOT
HETATM    1  C   UNK N   1      33.085  16.756   8.320  0.00  0.00     0.163 C 
ENDROOT
BRANCH   1   2
HETATM    2  C   UNK N   1      32.296  18.067   8.441  0.00  0.00     0.071 C 
BRANCH   2   3
HETATM    3  C   UNK N   1      30.813  17.918   8.363  0.00  0.00    -0.056 A 
HETATM    4  C   UNK N   1      29.995  18.457   9.356  0.00  0.00     0.007 A 
HETATM    5  C   UNK N   1      28.605  18.326   9.252  0.00  0.00     0.001 A 
HETATM    6  C   UNK N   1      28.040  17.655   8.162  0.00  0.00     0.000 A 
HETATM    7  C   UNK N   1      28.858  17.131   7.163  0.00  0.00     0.001 A 
HETATM    8  C   UNK N   1      30.235  17.279   7.259  0.00  0.00     0.007 A 
ENDBRANCH   2   3
ENDBRANCH   1   2
BRANCH   1   9
HETATM    9  C   UNK N   1      33.992  16.735   7.105  0.00  0.00     0.181 C 
HETATM   10  O   UNK N   1      34.557  17.762   6.740  0.00  0.00    -0.293 OA
BRANCH   9  11
HETATM   11  C   UNK N   1      34.084  15.471   6.280  0.00  0.00     0.325 C 
BRANCH  11  12
HETATM   12  N   UNK N   1      33.190  14.487   6.740  0.00  0.00    -0.370 N 
HETATM   13  N   UNK N   1      32.490  13.692   7.101  0.00  0.00    -0.285 N 
ATOM     14  HN2 UNK N   1      33.395  13.772   6.634  1.00  0.00     0.191 HD
ATOM     15  HN1 UNK N   1      31.842  12.979   7.434  1.00  0.00     0.191 HD
ENDBRANCH  11  12
ENDBRANCH   9  11
ENDBRANCH   1   9
BRANCH   1  16
HETATM   16  N   UNK N   1      33.980  16.726   9.436  0.00  0.00    -0.325 N 
HETATM   17  C   UNK N   1      34.356  15.568  10.005  0.00  0.00     0.361 C 
HETATM   18  O   UNK N   1      33.684  14.550   9.863  0.00  0.00    -0.238 OA
ATOM     19  HN  UNK N   1      34.341  17.605   9.809  1.00  0.00     0.165 HD
BRANCH  17  20
HETATM   20  O   UNK N   1      35.586  15.512  10.547  0.00  0.00    -0.299 OA
BRANCH  20  21
HETATM   21  C   UNK N   1      35.795  15.579  11.897  0.00  0.00     0.219 C 
BRANCH  21  22
HETATM   22  C   UNK N   1      36.315  14.271  12.356  0.00  0.00    -0.034 A 
HETATM   23  C   UNK N   1      36.932  13.423  11.443  0.00  0.00     0.009 A 
HETATM   24  C   UNK N   1      37.451  12.204  11.878  0.00  0.00     0.001 A 
HETATM   25  C   UNK N   1      37.348  11.833  13.223  0.00  0.00     0.000 A 
HETATM   26  C   UNK N   1      36.723  12.679  14.139  0.00  0.00     0.001 A 
HETATM   27  C   UNK N   1      36.212  13.895  13.707  0.00  0.00     0.009 A 
ENDBRANCH  21  22
ENDBRANCH  20  21
ENDBRANCH  17  20
ENDBRANCH   1  16
TORSDOF 9
ENDMDL
MODEL 9
REMARK VINA RESULT:      -6.4     12.871     14.516
REMARK  9 active torsions:
REMARK  status: ('A' for Active; 'I' for Inactive)
REMARK    1  A    between atoms: C_14  and  C_11 
REMARK    2  A    between atoms: C_16  and  C_11 
REMARK    3  A    between atoms: C_17  and  C_12 
REMARK    4  A    between atoms: N_22  and  C_12 
REMARK    5  A    between atoms: C_15  and  C_13 
REMARK    6  A    between atoms: O_27  and  C_13 
REMARK    7  A    between atoms: C_17  and  C_16 
REMARK    8  A    between atoms: C_16  and  N_23 
REMARK       I    between atoms: N_23  and  C_18 
REMARK    9  A    between atoms: O_27  and  C_18 
ROOT
HETATM    1  C   UNK N   1      34.714  14.032  11.135  0.00  0.00     0.163 C 
ENDROOT
BRANCH   1   2
HETATM    2  C   UNK N   1      35.396  12.863  11.859  0.00  0.00     0.071 C 
BRANCH   2   3
HETATM    3  C   UNK N   1      35.537  13.032  13.334  0.00  0.00    -0.056 A 
HETATM    4  C   UNK N   1      36.513  13.880  13.859  0.00  0.00     0.007 A 
HETATM    5  C   UNK N   1      36.613  14.045  15.245  0.00  0.00     0.001 A 
HETATM    6  C   UNK N   1      35.743  13.359  16.101  0.00  0.00     0.000 A 
HETATM    7  C   UNK N   1      34.758  12.524  15.574  0.00  0.00     0.001 A 
HETATM    8  C   UNK N   1      34.649  12.379  14.198  0.00  0.00     0.007 A 
ENDBRANCH   2   3
ENDBRANCH   1   2
BRANCH   1   9
HETATM    9  C   UNK N   1      35.708  15.055  10.619  0.00  0.00     0.181 C 
HETATM   10  O   UNK N   1      36.729  14.686  10.046  0.00  0.00    -0.293 OA
BRANCH   9  11
HETATM   11  C   UNK N   1      35.487  16.517  10.936  0.00  0.00     0.325 C 
BRANCH  11  12
HETATM   12  N   UNK N   1      34.594  17.113  10.027  0.00  0.00    -0.370 N 
HETATM   13  N   UNK N   1      33.892  17.603   9.306  0.00  0.00    -0.285 N 
ATOM     14  HN2 UNK N   1      34.718  17.835   9.859  1.00  0.00     0.191 HD
ATOM     15  HN1 UNK N   1      33.244  18.034   8.648  1.00  0.00     0.191 HD
ENDBRANCH  11  12
ENDBRANCH   9  11
ENDBRANCH   1   9
BRANCH   1  16
HETATM   16  N   UNK N   1      34.123  13.479   9.955  0.00  0.00    -0.325 N 
HETATM   17  C   UNK N   1      33.126  14.107   9.308  0.00  0.00     0.361 C 
HETATM   18  O   UNK N   1      32.435  14.945   9.879  0.00  0.00    -0.238 OA
ATOM     19  HN  UNK N   1      34.466  12.587   9.597  1.00  0.00     0.165 HD
BRANCH  17  20
HETATM   20  O   UNK N   1      33.051  13.944   7.975  0.00  0.00    -0.299 OA
BRANCH  20  21
HETATM   21  C   UNK N   1      33.930  14.540   7.113  0.00  0.00     0.219 C 
BRANCH  21  22
HETATM   22  C   UNK N   1      33.202  15.570   6.338  0.00  0.00    -0.034 A 
HETATM   23  C   UNK N   1      33.917  16.583   5.710  0.00  0.00     0.009 A 
HETATM   24  C   UNK N   1      33.238  17.538   4.953  0.00  0.00     0.001 A 
HETATM   25  C   UNK N   1      31.846  17.480   4.830  0.00  0.00     0.000 A 
HETATM   26  C   UNK N   1      31.126  16.468   5.465  0.00  0.00     0.001 A 
HETATM   27  C   UNK N   1      31.803  15.514   6.213  0.00  0.00     0.009 A 
ENDBRANCH  21  22
ENDBRANCH  20  21
ENDBRANCH  17  20
ENDBRANCH   1  16
TORSDOF 9
ENDMDL
