MODEL 1
REMARK VINA RESULT:      -7.9      0.000      0.000
REMARK  14 active torsions:
REMARK  status: ('A' for Active; 'I' for Inactive)
REMARK    1  A    between atoms: C_11  and  C_5 
REMARK    2  A    between atoms: O_33  and  C_5 
REMARK    3  A    between atoms: C_12  and  C_6 
REMARK    4  A    between atoms: O_38  and  C_6 
REMARK    5  A    between atoms: C_9  and  O_34 
REMARK    6  A    between atoms: C_10  and  O_41 
REMARK    7  A    between atoms: N_20  and  C_13 
REMARK    8  A    between atoms: C_14  and  N_32 
REMARK    9  A    between atoms: C_15  and  N_31 
REMARK   10  A    between atoms: N_22  and  C_17 
REMARK   11  A    between atoms: O_35  and  C_19 
REMARK   12  A    between atoms: P_42  and  O_36 
REMARK   13  A    between atoms: P_42  and  O_38 
REMARK   14  A    between atoms: P_42  and  O_41 
ROOT
HETATM    1  O   UNK N   1      33.035  17.976   8.723  0.00  0.00    -0.631 OA
HETATM    2  P   UNK N   1      34.447  17.912   8.075  0.00  0.00     0.393 P 
ENDROOT
BRANCH   2   3
HETATM    3  O   UNK N   1      35.262  19.364   8.565  0.00  0.00    -0.307 OA
HETATM    4  H   UNK N   1      35.741  19.405   9.408  0.00  0.00     0.222 HD
ENDBRANCH   2   3
BRANCH   2   5
HETATM    5  O   UNK N   1      34.355  17.798   6.323  0.00  0.00    -0.294 OA
BRANCH   5   6
HETATM    6  C   UNK N   1      33.063  17.397   5.954  0.00  0.00     0.215 C 
BRANCH   6   7
HETATM    7  C   UNK N   1      32.931  15.865   5.884  0.00  0.00     0.177 C 
HETATM    8  C   UNK N   1      32.607  15.302   4.519  0.00  0.00     0.153 C 
HETATM    9  C   UNK N   1      31.136  15.499   4.454  0.00  0.00     0.088 C 
HETATM   10  C   UNK N   1      30.729  15.344   5.918  0.00  0.00     0.233 C 
HETATM   11  O   UNK N   1      31.876  15.495   6.733  0.00  0.00    -0.356 OA
BRANCH   8  12
HETATM   12  O   UNK N   1      33.279  15.950   3.482  0.00  0.00    -0.393 OA
HETATM   13  H   UNK N   1      33.971  16.455   3.025  0.00  0.00     0.210 HD
ENDBRANCH   8  12
BRANCH  10  14
HETATM   14  N   UNK N   1      29.720  16.365   6.208  0.00  0.00    -0.300 N 
HETATM   15  C   UNK N   1      28.873  16.898   5.289  0.00  0.00     0.188 A 
HETATM   16  N   UNK N   1      28.108  17.886   5.828  0.00  0.00    -0.346 N 
HETATM   17  C   UNK N   1      28.512  17.958   7.109  0.00  0.00     0.122 A 
ATOM     18  HN  UNK N   1      27.391  18.445   5.366  1.00  0.00     0.167 HD
HETATM   19  C   UNK N   1      28.116  18.823   8.114  0.00  0.00     0.131 A 
HETATM   20  C   UNK N   1      29.465  17.036   7.342  0.00  0.00     0.142 A 
HETATM   21  N   UNK N   1      28.718  18.707   9.334  0.00  0.00    -0.337 N 
HETATM   22  C   UNK N   1      29.684  17.755   9.556  0.00  0.00     0.183 A 
ATOM     23  HN  UNK N   1      28.447  19.336  10.091  1.00  0.00     0.168 HD
HETATM   24  N   UNK N   1      30.067  16.909   8.550  0.00  0.00    -0.336 N 
ATOM     25  HN  UNK N   1      30.785  16.201   8.707  1.00  0.00     0.168 HD
BRANCH  19  26
HETATM   26  N   UNK N   1      27.140  19.813   7.883  0.00  0.00    -0.383 N 
HETATM   27  H   UNK N   1      26.180  19.607   7.815  0.00  0.00     0.157 HD
HETATM   28  H   UNK N   1      27.430  20.749   7.786  0.00  0.00     0.157 HD
ENDBRANCH  19  26
ENDBRANCH  10  14
ENDBRANCH   6   7
ENDBRANCH   5   6
ENDBRANCH   2   5
BRANCH   2  29
HETATM   29  O   UNK N   1      35.279  16.523   8.747  0.00  0.00    -0.289 OA
BRANCH  29  30
HETATM   30  C   UNK N   1      34.364  15.580   9.285  0.00  0.00     0.169 C 
HETATM   31  C   UNK N   1      34.734  15.393  10.725  0.00  0.00     0.089 C 
HETATM   32  C   UNK N   1      36.000  14.547  10.568  0.00  0.00     0.234 C 
HETATM   33  O   UNK N   1      35.850  13.754   9.406  0.00  0.00    -0.356 OA
HETATM   34  C   UNK N   1      34.642  14.150   8.809  0.00  0.00     0.177 C 
BRANCH  32  35
HETATM   35  N   UNK N   1      36.285  13.750  11.778  0.00  0.00    -0.296 N 
HETATM   36  C   UNK N   1      35.442  13.911  12.840  0.00  0.00     0.101 A 
HETATM   37  C   UNK N   1      35.666  13.243  14.039  0.00  0.00     0.065 A 
HETATM   38  C   UNK N   1      36.768  12.405  14.135  0.00  0.00     0.102 A 
HETATM   39  N   UNK N   1      37.589  12.245  13.070  0.00  0.00    -0.308 N 
HETATM   40  C   UNK N   1      37.366  12.902  11.900  0.00  0.00     0.227 A 
ATOM     41  HN  UNK N   1      38.391  11.620  13.146  1.00  0.00     0.171 HD
BRANCH  38  42
HETATM   42  N   UNK N   1      37.011  11.789  15.227  0.00  0.00    -0.385 N 
HETATM   43  H   UNK N   1      36.896  12.250  16.089  0.00  0.00     0.157 HD
ATOM     44  HN  UNK N   1      37.326  10.818  15.206  1.00  0.00     0.157 HD
ENDBRANCH  38  42
BRANCH  40  45
HETATM   45  O   UNK N   1      38.222  12.704  10.881  0.00  0.00    -0.332 OA
HETATM   46  H   UNK N   1      38.681  11.917  10.666  0.00  0.00     0.221 HD
ENDBRANCH  40  45
ENDBRANCH  32  35
BRANCH  34  47
HETATM   47  C   UNK N   1      33.544  13.164   9.240  0.00  0.00     0.198 C 
BRANCH  47  48
HETATM   48  O   UNK N   1      32.272  13.677   8.980  0.00  0.00    -0.398 OA
HETATM   49  H   UNK N   1      31.988  14.525   8.605  0.00  0.00     0.209 HD
ENDBRANCH  47  48
ENDBRANCH  34  47
ENDBRANCH  29  30
ENDBRANCH   2  29
TORSDOF 14
ENDMDL
MODEL 2
REMARK VINA RESULT:      -7.4     10.242     12.283
REMARK  14 active torsions:
REMARK  status: ('A' for Active; 'I' for Inactive)
REMARK    1  A    between atoms: C_11  and  C_5 
REMARK    2  A    between atoms: O_33  and  C_5 
REMARK    3  A    between atoms: C_12  and  C_6 
REMARK    4  A    between atoms: O_38  and  C_6 
REMARK    5  A    between atoms: C_9  and  O_34 
REMARK    6  A    between atoms: C_10  and  O_41 
REMARK    7  A    between atoms: N_20  and  C_13 
REMARK    8  A    between atoms: C_14  and  N_32 
REMARK    9  A    between atoms: C_15  and  N_31 
REMARK   10  A    between atoms: N_22  and  C_17 
REMARK   11  A    between atoms: O_35  and  C_19 
REMARK   12  A    between atoms: P_42  and  O_36 
REMARK   13  A    between atoms: P_42  and  O_38 
REMARK   14  A    between atoms: P_42  and  O_41 
ROOT
HETATM    1  O   UNK N   1      23.365  14.809   3.749  0.00  0.00    -0.631 OA
HETATM    2  P   UNK N   1      22.021  14.064   3.509  0.00  0.00     0.393 P 
ENDROOT
BRANCH   2   3
HETATM    3  O   UNK N   1      22.433  12.595   2.681  0.00  0.00    -0.307 OA
HETATM    4  H   UNK N   1      23.359  12.366   2.505  0.00  0.00     0.222 HD
ENDBRANCH   2   3
BRANCH   2   5
HETATM    5  O   UNK N   1      20.900  15.031   2.559  0.00  0.00    -0.294 OA
BRANCH   5   6
HETATM    6  C   UNK N   1      21.263  16.383   2.655  0.00  0.00     0.215 C 
BRANCH   6   7
HETATM    7  C   UNK N   1      20.262  17.192   3.499  0.00  0.00     0.177 C 
HETATM    8  C   UNK N   1      19.541  18.301   2.767  0.00  0.00     0.153 C 
HETATM    9  C   UNK N   1      20.552  19.389   2.800  0.00  0.00     0.088 C 
HETATM   10  C   UNK N   1      21.264  19.123   4.124  0.00  0.00     0.233 C 
HETATM   11  O   UNK N   1      20.984  17.800   4.539  0.00  0.00    -0.356 OA
BRANCH   8  12
HETATM   12  O   UNK N   1      19.171  17.953   1.467  0.00  0.00    -0.393 OA
HETATM   13  H   UNK N   1      19.184  17.491   0.613  0.00  0.00     0.210 HD
ENDBRANCH   8  12
BRANCH  10  14
HETATM   14  N   UNK N   1      22.697  19.330   3.905  0.00  0.00    -0.300 N 
HETATM   15  C   UNK N   1      23.226  20.252   3.057  0.00  0.00     0.188 A 
HETATM   16  N   UNK N   1      24.581  20.154   2.996  0.00  0.00    -0.346 N 
HETATM   17  C   UNK N   1      24.881  19.137   3.824  0.00  0.00     0.122 A 
ATOM     18  HN  UNK N   1      25.225  20.723   2.446  1.00  0.00     0.167 HD
HETATM   19  C   UNK N   1      26.106  18.562   4.111  0.00  0.00     0.131 A 
HETATM   20  C   UNK N   1      23.754  18.654   4.382  0.00  0.00     0.142 A 
HETATM   21  N   UNK N   1      26.131  17.502   4.971  0.00  0.00    -0.337 N 
HETATM   22  C   UNK N   1      24.973  17.027   5.537  0.00  0.00     0.183 A 
ATOM     23  HN  UNK N   1      27.021  17.056   5.196  1.00  0.00     0.168 HD
HETATM   24  N   UNK N   1      23.767  17.604   5.241  0.00  0.00    -0.336 N 
ATOM     25  HN  UNK N   1      22.903  17.256   5.655  1.00  0.00     0.168 HD
BRANCH  19  26
HETATM   26  N   UNK N   1      27.293  19.035   3.515  0.00  0.00    -0.383 N 
HETATM   27  H   UNK N   1      27.937  19.604   3.995  0.00  0.00     0.157 HD
HETATM   28  H   UNK N   1      27.486  18.785   2.582  0.00  0.00     0.157 HD
ENDBRANCH  19  26
ENDBRANCH  10  14
ENDBRANCH   6   7
ENDBRANCH   5   6
ENDBRANCH   2   5
BRANCH   2  29
HETATM   29  O   UNK N   1      21.338  13.676   5.076  0.00  0.00    -0.289 OA
BRANCH  29  30
HETATM   30  C   UNK N   1      21.720  14.627   6.057  0.00  0.00     0.169 C 
HETATM   31  C   UNK N   1      22.517  13.886   7.088  0.00  0.00     0.089 C 
HETATM   32  C   UNK N   1      21.394  13.132   7.804  0.00  0.00     0.234 C 
HETATM   33  O   UNK N   1      20.229  13.932   7.746  0.00  0.00    -0.356 OA
HETATM   34  C   UNK N   1      20.552  15.048   6.958  0.00  0.00     0.177 C 
BRANCH  32  35
HETATM   35  N   UNK N   1      21.771  12.757   9.181  0.00  0.00    -0.296 N 
HETATM   36  C   UNK N   1      23.024  12.246   9.365  0.00  0.00     0.101 A 
HETATM   37  C   UNK N   1      23.444  11.815  10.618  0.00  0.00     0.065 A 
HETATM   38  C   UNK N   1      22.561  11.917  11.684  0.00  0.00     0.102 A 
HETATM   39  N   UNK N   1      21.326  12.437  11.490  0.00  0.00    -0.308 N 
HETATM   40  C   UNK N   1      20.920  12.856  10.262  0.00  0.00     0.227 A 
ATOM     41  HN  UNK N   1      20.688  12.517  12.281  1.00  0.00     0.171 HD
BRANCH  38  42
HETATM   42  N   UNK N   1      22.911  11.516  12.846  0.00  0.00    -0.385 N 
HETATM   43  H   UNK N   1      22.778  12.098  13.628  0.00  0.00     0.157 HD
ATOM     44  HN  UNK N   1      23.327  10.592  12.963  1.00  0.00     0.157 HD
ENDBRANCH  38  42
BRANCH  40  45
HETATM   45  O   UNK N   1      19.678  13.358  10.135  0.00  0.00    -0.332 OA
HETATM   46  H   UNK N   1      19.331  14.130  10.536  0.00  0.00     0.221 HD
ENDBRANCH  40  45
ENDBRANCH  32  35
BRANCH  34  47
HETATM   47  C   UNK N   1      20.922  16.210   7.894  0.00  0.00     0.198 C 
BRANCH  47  48
HETATM   48  O   UNK N   1      21.407  17.304   7.176  0.00  0.00    -0.398 OA
HETATM   49  H   UNK N   1      21.972  17.355   6.390  0.00  0.00     0.209 HD
ENDBRANCH  47  48
ENDBRANCH  34  47
ENDBRANCH  29  30
ENDBRANCH   2  29
TORSDOF 14
ENDMDL
MODEL 3
REMARK VINA RESULT:      -7.3      3.239      5.460
REMARK  14 active torsions:
REMARK  status: ('A' for Active; 'I' for Inactive)
REMARK    1  A    between atoms: C_11  and  C_5 
REMARK    2  A    between atoms: O_33  and  C_5 
REMARK    3  A    between atoms: C_12  and  C_6 
REMARK    4  A    between atoms: O_38  and  C_6 
REMARK    5  A    between atoms: C_9  and  O_34 
REMARK    6  A    between atoms: C_10  and  O_41 
REMARK    7  A    between atoms: N_20  and  C_13 
REMARK    8  A    between atoms: C_14  and  N_32 
REMARK    9  A    between atoms: C_15  and  N_31 
REMARK   10  A    between atoms: N_22  and  C_17 
REMARK   11  A    between atoms: O_35  and  C_19 
REMARK   12  A    between atoms: P_42  and  O_36 
REMARK   13  A    between atoms: P_42  and  O_38 
REMARK   14  A    between atoms: P_42  and  O_41 
ROOT
HETATM    1  O   UNK N   1      28.136  17.285   9.618  0.00  0.00    -0.631 OA
HETATM    2  P   UNK N   1      29.469  17.687   8.924  0.00  0.00     0.393 P 
ENDROOT
BRANCH   2   3
HETATM    3  O   UNK N   1      30.095  19.026   9.834  0.00  0.00    -0.307 OA
HETATM    4  H   UNK N   1      30.583  18.881  10.660  0.00  0.00     0.222 HD
ENDBRANCH   2   3
BRANCH   2   5
HETATM    5  O   UNK N   1      29.219  18.129   7.240  0.00  0.00    -0.294 OA
BRANCH   5   6
HETATM    6  C   UNK N   1      27.944  18.695   7.096  0.00  0.00     0.215 C 
BRANCH   6   7
HETATM    7  C   UNK N   1      27.992  20.054   6.375  0.00  0.00     0.177 C 
HETATM    8  C   UNK N   1      26.699  20.837   6.377  0.00  0.00     0.153 C 
HETATM    9  C   UNK N   1      25.957  20.196   5.262  0.00  0.00     0.088 C 
HETATM   10  C   UNK N   1      27.087  19.793   4.317  0.00  0.00     0.233 C 
HETATM   11  O   UNK N   1      28.308  19.805   5.030  0.00  0.00    -0.356 OA
BRANCH   8  12
HETATM   12  O   UNK N   1      26.012  20.763   7.590  0.00  0.00    -0.393 OA
HETATM   13  H   UNK N   1      25.265  20.720   8.209  0.00  0.00     0.210 HD
ENDBRANCH   8  12
BRANCH  10  14
HETATM   14  N   UNK N   1      26.775  18.460   3.797  0.00  0.00    -0.300 N 
HETATM   15  C   UNK N   1      25.520  17.959   3.654  0.00  0.00     0.188 A 
HETATM   16  N   UNK N   1      25.543  16.666   3.231  0.00  0.00    -0.346 N 
HETATM   17  C   UNK N   1      26.852  16.374   3.124  0.00  0.00     0.122 A 
ATOM     18  HN  UNK N   1      24.749  16.056   3.038  1.00  0.00     0.167 HD
HETATM   19  C   UNK N   1      27.467  15.182   2.784  0.00  0.00     0.131 A 
HETATM   20  C   UNK N   1      27.590  17.453   3.447  0.00  0.00     0.142 A 
HETATM   21  N   UNK N   1      28.832  15.142   2.786  0.00  0.00    -0.337 N 
HETATM   22  C   UNK N   1      29.569  16.255   3.111  0.00  0.00     0.183 A 
ATOM     23  HN  UNK N   1      29.311  14.273   2.544  1.00  0.00     0.168 HD
HETATM   24  N   UNK N   1      28.946  17.426   3.448  0.00  0.00    -0.336 N 
ATOM     25  HN  UNK N   1      29.487  18.256   3.692  1.00  0.00     0.168 HD
BRANCH  19  26
HETATM   26  N   UNK N   1      26.713  14.034   2.471  0.00  0.00    -0.383 N 
HETATM   27  H   UNK N   1      25.728  14.032   2.463  0.00  0.00     0.157 HD
HETATM   28  H   UNK N   1      27.189  13.200   2.252  0.00  0.00     0.157 HD
ENDBRANCH  19  26
ENDBRANCH  10  14
ENDBRANCH   6   7
ENDBRANCH   5   6
ENDBRANCH   2   5
BRANCH   2  29
HETATM   29  O   UNK N   1      30.569  16.329   9.056  0.00  0.00    -0.289 OA
BRANCH  29  30
HETATM   30  C   UNK N   1      31.507  16.316   7.991  0.00  0.00     0.169 C 
HETATM   31  C   UNK N   1      32.564  15.319   8.359  0.00  0.00     0.089 C 
HETATM   32  C   UNK N   1      33.317  16.111   9.431  0.00  0.00     0.234 C 
HETATM   33  O   UNK N   1      33.232  17.483   9.096  0.00  0.00    -0.356 OA
HETATM   34  C   UNK N   1      32.395  17.566   7.971  0.00  0.00     0.177 C 
BRANCH  32  35
HETATM   35  N   UNK N   1      34.707  15.641   9.591  0.00  0.00    -0.296 N 
HETATM   36  C   UNK N   1      35.139  14.675   8.727  0.00  0.00     0.101 A 
HETATM   37  C   UNK N   1      36.415  14.133   8.839  0.00  0.00     0.065 A 
HETATM   38  C   UNK N   1      37.245  14.597   9.850  0.00  0.00     0.102 A 
HETATM   39  N   UNK N   1      36.809  15.564  10.691  0.00  0.00    -0.308 N 
HETATM   40  C   UNK N   1      35.560  16.089  10.578  0.00  0.00     0.227 A 
ATOM     41  HN  UNK N   1      37.429  15.906  11.424  1.00  0.00     0.171 HD
BRANCH  38  42
HETATM   42  N   UNK N   1      38.418  14.109   9.990  0.00  0.00    -0.385 N 
HETATM   43  H   UNK N   1      38.956  14.340  10.781  0.00  0.00     0.157 HD
ATOM     44  HN  UNK N   1      38.797  13.481   9.281  1.00  0.00     0.157 HD
ENDBRANCH  38  42
BRANCH  40  45
HETATM   45  O   UNK N   1      35.185  17.044  11.448  0.00  0.00    -0.332 OA
HETATM   46  H   UNK N   1      35.446  17.944  11.456  0.00  0.00     0.221 HD
ENDBRANCH  40  45
ENDBRANCH  32  35
BRANCH  34  47
HETATM   47  C   UNK N   1      33.279  17.639   6.715  0.00  0.00     0.198 C 
BRANCH  47  48
HETATM   48  O   UNK N   1      34.558  18.106   7.023  0.00  0.00    -0.398 OA
HETATM   49  H   UNK N   1      35.387  18.080   6.521  0.00  0.00     0.209 HD
ENDBRANCH  47  48
ENDBRANCH  34  47
ENDBRANCH  29  30
ENDBRANCH   2  29
TORSDOF 14
ENDMDL
MODEL 4
REMARK VINA RESULT:      -7.2      4.685      7.165
REMARK  14 active torsions:
REMARK  status: ('A' for Active; 'I' for Inactive)
REMARK    1  A    between atoms: C_11  and  C_5 
REMARK    2  A    between atoms: O_33  and  C_5 
REMARK    3  A    between atoms: C_12  and  C_6 
REMARK    4  A    between atoms: O_38  and  C_6 
REMARK    5  A    between atoms: C_9  and  O_34 
REMARK    6  A    between atoms: C_10  and  O_41 
REMARK    7  A    between atoms: N_20  and  C_13 
REMARK    8  A    between atoms: C_14  and  N_32 
REMARK    9  A    between atoms: C_15  and  N_31 
REMARK   10  A    between atoms: N_22  and  C_17 
REMARK   11  A    between atoms: O_35  and  C_19 
REMARK   12  A    between atoms: P_42  and  O_36 
REMARK   13  A    between atoms: P_42  and  O_38 
REMARK   14  A    between atoms: P_42  and  O_41 
ROOT
HETATM    1  O   UNK N   1      27.576  17.037   9.809  0.00  0.00    -0.631 OA
HETATM    2  P   UNK N   1      28.649  17.916   9.106  0.00  0.00     0.393 P 
ENDROOT
BRANCH   2   3
HETATM    3  O   UNK N   1      29.722  18.452  10.361  0.00  0.00    -0.307 OA
HETATM    4  H   UNK N   1      29.424  18.499  11.283  0.00  0.00     0.222 HD
ENDBRANCH   2   3
BRANCH   2   5
HETATM    5  O   UNK N   1      27.925  19.282   8.267  0.00  0.00    -0.294 OA
BRANCH   5   6
HETATM    6  C   UNK N   1      27.930  19.030   6.888  0.00  0.00     0.215 C 
BRANCH   6   7
HETATM    7  C   UNK N   1      27.875  20.328   6.062  0.00  0.00     0.177 C 
HETATM    8  C   UNK N   1      26.563  21.079   6.119  0.00  0.00     0.153 C 
HETATM    9  C   UNK N   1      25.748  20.333   5.126  0.00  0.00     0.088 C 
HETATM   10  C   UNK N   1      26.804  19.884   4.119  0.00  0.00     0.233 C 
HETATM   11  O   UNK N   1      28.081  19.981   4.718  0.00  0.00    -0.356 OA
BRANCH   8  12
HETATM   12  O   UNK N   1      25.986  21.084   7.390  0.00  0.00    -0.393 OA
HETATM   13  H   UNK N   1      25.812  21.354   8.306  0.00  0.00     0.210 HD
ENDBRANCH   8  12
BRANCH  10  14
HETATM   14  N   UNK N   1      26.489  18.507   3.732  0.00  0.00    -0.300 N 
HETATM   15  C   UNK N   1      25.234  17.987   3.671  0.00  0.00     0.188 A 
HETATM   16  N   UNK N   1      25.257  16.661   3.368  0.00  0.00    -0.346 N 
HETATM   17  C   UNK N   1      26.565  16.368   3.252  0.00  0.00     0.122 A 
ATOM     18  HN  UNK N   1      24.463  16.032   3.254  1.00  0.00     0.167 HD
HETATM   19  C   UNK N   1      27.180  15.153   3.006  0.00  0.00     0.131 A 
HETATM   20  C   UNK N   1      27.303  17.477   3.453  0.00  0.00     0.142 A 
HETATM   21  N   UNK N   1      28.545  15.121   2.974  0.00  0.00    -0.337 N 
HETATM   22  C   UNK N   1      29.282  16.264   3.174  0.00  0.00     0.183 A 
ATOM     23  HN  UNK N   1      29.024  14.237   2.800  1.00  0.00     0.168 HD
HETATM   24  N   UNK N   1      28.658  17.457   3.419  0.00  0.00    -0.336 N 
ATOM     25  HN  UNK N   1      29.199  18.309   3.571  1.00  0.00     0.168 HD
BRANCH  19  26
HETATM   26  N   UNK N   1      26.427  13.977   2.822  0.00  0.00    -0.383 N 
HETATM   27  H   UNK N   1      26.732  13.096   3.140  0.00  0.00     0.157 HD
HETATM   28  H   UNK N   1      25.562  14.037   2.357  0.00  0.00     0.157 HD
ENDBRANCH  19  26
ENDBRANCH  10  14
ENDBRANCH   6   7
ENDBRANCH   5   6
ENDBRANCH   2   5
BRANCH   2  29
HETATM   29  O   UNK N   1      29.528  16.892   7.988  0.00  0.00    -0.289 OA
BRANCH  29  30
HETATM   30  C   UNK N   1      30.851  17.362   7.785  0.00  0.00     0.169 C 
HETATM   31  C   UNK N   1      31.155  17.183   6.328  0.00  0.00     0.089 C 
HETATM   32  C   UNK N   1      31.351  15.665   6.281  0.00  0.00     0.234 C 
HETATM   33  O   UNK N   1      31.883  15.258   7.527  0.00  0.00    -0.356 OA
HETATM   34  C   UNK N   1      31.911  16.403   8.340  0.00  0.00     0.177 C 
BRANCH  32  35
HETATM   35  N   UNK N   1      32.184  15.252   5.134  0.00  0.00    -0.296 N 
HETATM   36  C   UNK N   1      32.680  16.244   4.338  0.00  0.00     0.101 A 
HETATM   37  C   UNK N   1      33.428  15.944   3.204  0.00  0.00     0.065 A 
HETATM   38  C   UNK N   1      33.662  14.611   2.898  0.00  0.00     0.102 A 
HETATM   39  N   UNK N   1      33.174  13.637   3.703  0.00  0.00    -0.308 N 
HETATM   40  C   UNK N   1      32.442  13.936   4.810  0.00  0.00     0.227 A 
ATOM     41  HN  UNK N   1      33.359  12.661   3.476  1.00  0.00     0.171 HD
BRANCH  38  42
HETATM   42  N   UNK N   1      34.332  14.301   1.855  0.00  0.00    -0.385 N 
HETATM   43  H   UNK N   1      35.099  13.688   1.927  0.00  0.00     0.157 HD
ATOM     44  HN  UNK N   1      34.073  14.690   0.948  1.00  0.00     0.157 HD
ENDBRANCH  38  42
BRANCH  40  45
HETATM   45  O   UNK N   1      31.982  12.923   5.566  0.00  0.00    -0.332 OA
HETATM   46  H   UNK N   1      31.401  12.976   6.299  0.00  0.00     0.221 HD
ENDBRANCH  40  45
ENDBRANCH  32  35
BRANCH  34  47
HETATM   47  C   UNK N   1      33.327  16.999   8.287  0.00  0.00     0.198 C 
BRANCH  47  48
HETATM   48  O   UNK N   1      33.820  17.248   9.569  0.00  0.00    -0.398 OA
HETATM   49  H   UNK N   1      33.547  16.911  10.436  0.00  0.00     0.209 HD
ENDBRANCH  47  48
ENDBRANCH  34  47
ENDBRANCH  29  30
ENDBRANCH   2  29
TORSDOF 14
ENDMDL
MODEL 5
REMARK VINA RESULT:      -7.0      3.186      5.216
REMARK  14 active torsions:
REMARK  status: ('A' for Active; 'I' for Inactive)
REMARK    1  A    between atoms: C_11  and  C_5 
REMARK    2  A    between atoms: O_33  and  C_5 
REMARK    3  A    between atoms: C_12  and  C_6 
REMARK    4  A    between atoms: O_38  and  C_6 
REMARK    5  A    between atoms: C_9  and  O_34 
REMARK    6  A    between atoms: C_10  and  O_41 
REMARK    7  A    between atoms: N_20  and  C_13 
REMARK    8  A    between atoms: C_14  and  N_32 
REMARK    9  A    between atoms: C_15  and  N_31 
REMARK   10  A    between atoms: N_22  and  C_17 
REMARK   11  A    between atoms: O_35  and  C_19 
REMARK   12  A    between atoms: P_42  and  O_36 
REMARK   13  A    between atoms: P_42  and  O_38 
REMARK   14  A    between atoms: P_42  and  O_41 
ROOT
HETATM    1  O   UNK N   1      36.418  14.168  11.039  0.00  0.00    -0.631 OA
HETATM    2  P   UNK N   1      34.937  14.143  11.513  0.00  0.00     0.393 P 
ENDROOT
BRANCH   2   3
HETATM    3  O   UNK N   1      34.229  12.734  10.789  0.00  0.00    -0.307 OA
HETATM    4  H   UNK N   1      34.729  11.905  10.719  0.00  0.00     0.222 HD
ENDBRANCH   2   3
BRANCH   2   5
HETATM    5  O   UNK N   1      34.075  15.600  11.036  0.00  0.00    -0.294 OA
BRANCH   5   6
HETATM    6  C   UNK N   1      33.475  15.392   9.786  0.00  0.00     0.215 C 
BRANCH   6   7
HETATM    7  C   UNK N   1      34.372  15.863   8.628  0.00  0.00     0.177 C 
HETATM    8  C   UNK N   1      34.937  17.259   8.769  0.00  0.00     0.153 C 
HETATM    9  C   UNK N   1      33.796  18.092   8.313  0.00  0.00     0.088 C 
HETATM   10  C   UNK N   1      33.137  17.189   7.272  0.00  0.00     0.233 C 
HETATM   11  O   UNK N   1      33.590  15.863   7.462  0.00  0.00    -0.356 OA
BRANCH   8  12
HETATM   12  O   UNK N   1      35.335  17.562  10.072  0.00  0.00    -0.393 OA
HETATM   13  H   UNK N   1      35.416  17.487  11.037  0.00  0.00     0.210 HD
ENDBRANCH   8  12
BRANCH  10  14
HETATM   14  N   UNK N   1      31.687  17.298   7.445  0.00  0.00    -0.300 N 
HETATM   15  C   UNK N   1      31.077  17.936   8.479  0.00  0.00     0.188 A 
HETATM   16  N   UNK N   1      29.725  17.798   8.422  0.00  0.00    -0.346 N 
HETATM   17  C   UNK N   1      29.512  17.046   7.327  0.00  0.00     0.122 A 
ATOM     18  HN  UNK N   1      29.030  18.178   9.065  1.00  0.00     0.167 HD
HETATM   19  C   UNK N   1      28.327  16.550   6.812  0.00  0.00     0.131 A 
HETATM   20  C   UNK N   1      30.686  16.761   6.732  0.00  0.00     0.142 A 
HETATM   21  N   UNK N   1      28.392  15.771   5.692  0.00  0.00    -0.337 N 
HETATM   22  C   UNK N   1      29.598  15.496   5.094  0.00  0.00     0.183 A 
ATOM     23  HN  UNK N   1      27.533  15.388   5.295  1.00  0.00     0.168 HD
HETATM   24  N   UNK N   1      30.762  15.993   5.617  0.00  0.00    -0.336 N 
ATOM     25  HN  UNK N   1      31.661  15.791   5.180  1.00  0.00     0.168 HD
BRANCH  19  26
HETATM   26  N   UNK N   1      27.092  16.813   7.436  0.00  0.00    -0.383 N 
HETATM   27  H   UNK N   1      26.232  16.518   7.057  0.00  0.00     0.157 HD
HETATM   28  H   UNK N   1      27.087  17.311   8.286  0.00  0.00     0.157 HD
ENDBRANCH  19  26
ENDBRANCH  10  14
ENDBRANCH   6   7
ENDBRANCH   5   6
ENDBRANCH   2   5
BRANCH   2  29
HETATM   29  O   UNK N   1      34.938  13.962  13.257  0.00  0.00    -0.289 OA
BRANCH  29  30
HETATM   30  C   UNK N   1      35.486  12.713  13.648  0.00  0.00     0.169 C 
HETATM   31  C   UNK N   1      34.780  12.306  14.906  0.00  0.00     0.089 C 
HETATM   32  C   UNK N   1      35.438  13.263  15.903  0.00  0.00     0.234 C 
HETATM   33  O   UNK N   1      36.762  13.502  15.467  0.00  0.00    -0.356 OA
HETATM   34  C   UNK N   1      36.898  12.845  14.232  0.00  0.00     0.177 C 
BRANCH  32  35
HETATM   35  N   UNK N   1      35.368  12.753  17.287  0.00  0.00    -0.296 N 
HETATM   36  C   UNK N   1      35.312  11.398  17.447  0.00  0.00     0.101 A 
HETATM   37  C   UNK N   1      35.189  10.831  18.710  0.00  0.00     0.065 A 
HETATM   38  C   UNK N   1      35.125  11.674  19.811  0.00  0.00     0.102 A 
HETATM   39  N   UNK N   1      35.194  13.016  19.639  0.00  0.00    -0.308 N 
HETATM   40  C   UNK N   1      35.313  13.565  18.401  0.00  0.00     0.227 A 
ATOM     41  HN  UNK N   1      35.156  13.626  20.455  1.00  0.00     0.171 HD
BRANCH  38  42
HETATM   42  N   UNK N   1      34.996  11.186  20.985  0.00  0.00    -0.385 N 
HETATM   43  H   UNK N   1      35.327  10.280  21.180  0.00  0.00     0.157 HD
ATOM     44  HN  UNK N   1      34.550  11.736  21.720  1.00  0.00     0.157 HD
ENDBRANCH  38  42
BRANCH  40  45
HETATM   45  O   UNK N   1      35.371  14.904  18.297  0.00  0.00    -0.332 OA
HETATM   46  H   UNK N   1      34.946  15.539  18.840  0.00  0.00     0.221 HD
ENDBRANCH  40  45
ENDBRANCH  32  35
BRANCH  34  47
HETATM   47  C   UNK N   1      37.560  11.480  14.481  0.00  0.00     0.198 C 
BRANCH  47  48
HETATM   48  O   UNK N   1      37.548  10.694  13.328  0.00  0.00    -0.398 OA
HETATM   49  H   UNK N   1      37.251  10.886  12.425  0.00  0.00     0.209 HD
ENDBRANCH  47  48
ENDBRANCH  34  47
ENDBRANCH  29  30
ENDBRANCH   2  29
TORSDOF 14
ENDMDL
MODEL 6
REMARK VINA RESULT:      -6.9      1.582      2.286
REMARK  14 active torsions:
REMARK  status: ('A' for Active; 'I' for Inactive)
REMARK    1  A    between atoms: C_11  and  C_5 
REMARK    2  A    between atoms: O_33  and  C_5 
REMARK    3  A    between atoms: C_12  and  C_6 
REMARK    4  A    between atoms: O_38  and  C_6 
REMARK    5  A    between atoms: C_9  and  O_34 
REMARK    6  A    between atoms: C_10  and  O_41 
REMARK    7  A    between atoms: N_20  and  C_13 
REMARK    8  A    between atoms: C_14  and  N_32 
REMARK    9  A    between atoms: C_15  and  N_31 
REMARK   10  A    between atoms: N_22  and  C_17 
REMARK   11  A    between atoms: O_35  and  C_19 
REMARK   12  A    between atoms: P_42  and  O_36 
REMARK   13  A    between atoms: P_42  and  O_38 
REMARK   14  A    between atoms: P_42  and  O_41 
ROOT
HETATM    1  O   UNK N   1      34.705  18.658   8.546  0.00  0.00    -0.631 OA
HETATM    2  P   UNK N   1      34.212  17.183   8.584  0.00  0.00     0.393 P 
ENDROOT
BRANCH   2   3
HETATM    3  O   UNK N   1      35.038  16.372   7.290  0.00  0.00    -0.307 OA
HETATM    4  H   UNK N   1      34.643  15.601   6.854  0.00  0.00     0.222 HD
ENDBRANCH   2   3
BRANCH   2   5
HETATM    5  O   UNK N   1      32.468  17.073   8.388  0.00  0.00    -0.294 OA
BRANCH   5   6
HETATM    6  C   UNK N   1      32.146  17.234   7.032  0.00  0.00     0.215 C 
BRANCH   6   7
HETATM    7  C   UNK N   1      31.834  15.891   6.348  0.00  0.00     0.177 C 
HETATM    8  C   UNK N   1      32.197  15.808   4.882  0.00  0.00     0.153 C 
HETATM    9  C   UNK N   1      31.033  16.478   4.247  0.00  0.00     0.088 C 
HETATM   10  C   UNK N   1      29.897  16.115   5.201  0.00  0.00     0.233 C 
HETATM   11  O   UNK N   1      30.448  15.688   6.431  0.00  0.00    -0.356 OA
BRANCH   8  12
HETATM   12  O   UNK N   1      33.407  16.435   4.578  0.00  0.00    -0.393 OA
HETATM   13  H   UNK N   1      34.281  16.575   4.179  0.00  0.00     0.210 HD
ENDBRANCH   8  12
BRANCH  10  14
HETATM   14  N   UNK N   1      29.060  17.306   5.365  0.00  0.00    -0.300 N 
HETATM   15  C   UNK N   1      28.706  18.148   4.359  0.00  0.00     0.188 A 
HETATM   16  N   UNK N   1      27.999  19.213   4.826  0.00  0.00    -0.346 N 
HETATM   17  C   UNK N   1      27.932  19.013   6.154  0.00  0.00     0.122 A 
ATOM     18  HN  UNK N   1      27.608  19.988   4.289  1.00  0.00     0.167 HD
HETATM   19  C   UNK N   1      27.376  19.808   7.141  0.00  0.00     0.131 A 
HETATM   20  C   UNK N   1      28.552  17.862   6.476  0.00  0.00     0.142 A 
HETATM   21  N   UNK N   1      27.477  19.386   8.436  0.00  0.00    -0.337 N 
HETATM   22  C   UNK N   1      28.107  18.206   8.746  0.00  0.00     0.183 A 
ATOM     23  HN  UNK N   1      27.080  19.957   9.184  1.00  0.00     0.168 HD
HETATM   24  N   UNK N   1      28.655  17.432   7.758  0.00  0.00    -0.336 N 
ATOM     25  HN  UNK N   1      29.127  16.555   7.980  1.00  0.00     0.168 HD
BRANCH  19  26
HETATM   26  N   UNK N   1      26.748  21.030   6.828  0.00  0.00    -0.383 N 
HETATM   27  H   UNK N   1      27.236  21.884   6.791  0.00  0.00     0.157 HD
HETATM   28  H   UNK N   1      25.782  21.030   6.637  0.00  0.00     0.157 HD
ENDBRANCH  19  26
ENDBRANCH  10  14
ENDBRANCH   6   7
ENDBRANCH   5   6
ENDBRANCH   2   5
BRANCH   2  29
HETATM   29  O   UNK N   1      34.712  16.493  10.116  0.00  0.00    -0.289 OA
BRANCH  29  30
HETATM   30  C   UNK N   1      35.287  15.207   9.942  0.00  0.00     0.169 C 
HETATM   31  C   UNK N   1      34.749  14.342  11.042  0.00  0.00     0.089 C 
HETATM   32  C   UNK N   1      35.551  14.886  12.226  0.00  0.00     0.234 C 
HETATM   33  O   UNK N   1      36.809  15.312  11.739  0.00  0.00    -0.356 OA
HETATM   34  C   UNK N   1      36.766  15.161  10.343  0.00  0.00     0.177 C 
BRANCH  32  35
HETATM   35  N   UNK N   1      35.658  13.900  13.320  0.00  0.00    -0.296 N 
HETATM   36  C   UNK N   1      34.917  12.759  13.202  0.00  0.00     0.101 A 
HETATM   37  C   UNK N   1      34.914  11.801  14.210  0.00  0.00     0.065 A 
HETATM   38  C   UNK N   1      35.684  12.027  15.342  0.00  0.00     0.102 A 
HETATM   39  N   UNK N   1      36.424  13.157  15.440  0.00  0.00    -0.308 N 
HETATM   40  C   UNK N   1      36.422  14.091  14.452  0.00  0.00     0.227 A 
ATOM     41  HN  UNK N   1      36.994  13.310  16.271  1.00  0.00     0.171 HD
BRANCH  38  42
HETATM   42  N   UNK N   1      35.691  11.173  16.293  0.00  0.00    -0.385 N 
HETATM   43  H   UNK N   1      35.760  11.477  17.226  0.00  0.00     0.157 HD
ATOM     44  HN  UNK N   1      35.626  10.177  16.084  1.00  0.00     0.157 HD
ENDBRANCH  38  42
BRANCH  40  45
HETATM   45  O   UNK N   1      37.175  15.194  14.613  0.00  0.00    -0.332 OA
HETATM   46  H   UNK N   1      37.291  15.900  14.007  0.00  0.00     0.221 HD
ENDBRANCH  40  45
ENDBRANCH  32  35
BRANCH  34  47
HETATM   47  C   UNK N   1      37.432  13.824   9.980  0.00  0.00     0.198 C 
BRANCH  47  48
HETATM   48  O   UNK N   1      38.458  13.511  10.873  0.00  0.00    -0.398 OA
HETATM   49  H   UNK N   1      39.419  13.619  10.807  0.00  0.00     0.209 HD
ENDBRANCH  47  48
ENDBRANCH  34  47
ENDBRANCH  29  30
ENDBRANCH   2  29
TORSDOF 14
ENDMDL
MODEL 7
REMARK VINA RESULT:      -6.7      2.259      9.250
REMARK  14 active torsions:
REMARK  status: ('A' for Active; 'I' for Inactive)
REMARK    1  A    between atoms: C_11  and  C_5 
REMARK    2  A    between atoms: O_33  and  C_5 
REMARK    3  A    between atoms: C_12  and  C_6 
REMARK    4  A    between atoms: O_38  and  C_6 
REMARK    5  A    between atoms: C_9  and  O_34 
REMARK    6  A    between atoms: C_10  and  O_41 
REMARK    7  A    between atoms: N_20  and  C_13 
REMARK    8  A    between atoms: C_14  and  N_32 
REMARK    9  A    between atoms: C_15  and  N_31 
REMARK   10  A    between atoms: N_22  and  C_17 
REMARK   11  A    between atoms: O_35  and  C_19 
REMARK   12  A    between atoms: P_42  and  O_36 
REMARK   13  A    between atoms: P_42  and  O_38 
REMARK   14  A    between atoms: P_42  and  O_41 
ROOT
HETATM    1  O   UNK N   1      34.554  12.190   8.092  0.00  0.00    -0.631 OA
HETATM    2  P   UNK N   1      35.360  13.468   7.725  0.00  0.00     0.393 P 
ENDROOT
BRANCH   2   3
HETATM    3  O   UNK N   1      36.392  13.017   6.404  0.00  0.00    -0.307 OA
HETATM    4  H   UNK N   1      36.618  13.656   5.709  0.00  0.00     0.222 HD
ENDBRANCH   2   3
BRANCH   2   5
HETATM    5  O   UNK N   1      36.301  14.059   9.089  0.00  0.00    -0.294 OA
BRANCH   5   6
HETATM    6  C   UNK N   1      35.846  13.444  10.264  0.00  0.00     0.215 C 
BRANCH   6   7
HETATM    7  C   UNK N   1      35.042  14.412  11.150  0.00  0.00     0.177 C 
HETATM    8  C   UNK N   1      35.843  15.525  11.789  0.00  0.00     0.153 C 
HETATM    9  C   UNK N   1      36.433  14.833  12.964  0.00  0.00     0.088 C 
HETATM   10  C   UNK N   1      35.350  13.813  13.311  0.00  0.00     0.233 C 
HETATM   11  O   UNK N   1      34.489  13.662  12.199  0.00  0.00    -0.356 OA
BRANCH   8  12
HETATM   12  O   UNK N   1      36.812  16.063  10.941  0.00  0.00    -0.393 OA
HETATM   13  H   UNK N   1      37.374  16.728  10.512  0.00  0.00     0.210 HD
ENDBRANCH   8  12
BRANCH  10  14
HETATM   14  N   UNK N   1      36.020  12.557  13.653  0.00  0.00    -0.300 N 
HETATM   15  C   UNK N   1      37.197  12.465  14.327  0.00  0.00     0.188 A 
HETATM   16  N   UNK N   1      37.618  11.175  14.423  0.00  0.00    -0.346 N 
HETATM   17  C   UNK N   1      36.673  10.467  13.780  0.00  0.00     0.122 A 
ATOM     18  HN  UNK N   1      38.460  10.824  14.879  1.00  0.00     0.167 HD
HETATM   19  C   UNK N   1      36.609   9.109  13.520  0.00  0.00     0.131 A 
HETATM   20  C   UNK N   1      35.706  11.292  13.333  0.00  0.00     0.142 A 
HETATM   21  N   UNK N   1      35.543   8.643  12.804  0.00  0.00    -0.337 N 
HETATM   22  C   UNK N   1      34.563   9.498  12.363  0.00  0.00     0.183 A 
ATOM     23  HN  UNK N   1      35.475   7.646  12.595  1.00  0.00     0.168 HD
HETATM   24  N   UNK N   1      34.641  10.839  12.626  0.00  0.00    -0.336 N 
ATOM     25  HN  UNK N   1      33.918  11.481  12.299  1.00  0.00     0.168 HD
BRANCH  19  26
HETATM   26  N   UNK N   1      37.624   8.234  13.954  0.00  0.00    -0.383 N 
HETATM   27  H   UNK N   1      38.474   8.125  13.468  0.00  0.00     0.157 HD
HETATM   28  H   UNK N   1      37.479   7.710  14.775  0.00  0.00     0.157 HD
ENDBRANCH  19  26
ENDBRANCH  10  14
ENDBRANCH   6   7
ENDBRANCH   5   6
ENDBRANCH   2   5
BRANCH   2  29
HETATM   29  O   UNK N   1      34.218  14.683   7.183  0.00  0.00    -0.289 OA
BRANCH  29  30
HETATM   30  C   UNK N   1      34.177  15.789   8.071  0.00  0.00     0.169 C 
HETATM   31  C   UNK N   1      32.760  15.906   8.548  0.00  0.00     0.089 C 
HETATM   32  C   UNK N   1      32.103  16.487   7.294  0.00  0.00     0.234 C 
HETATM   33  O   UNK N   1      33.064  17.288   6.632  0.00  0.00    -0.356 OA
HETATM   34  C   UNK N   1      34.266  17.135   7.343  0.00  0.00     0.177 C 
BRANCH  32  35
HETATM   35  N   UNK N   1      30.860  17.217   7.610  0.00  0.00    -0.296 N 
HETATM   36  C   UNK N   1      30.662  17.572   8.913  0.00  0.00     0.101 A 
HETATM   37  C   UNK N   1      29.494  18.213   9.311  0.00  0.00     0.065 A 
HETATM   38  C   UNK N   1      28.529  18.488   8.352  0.00  0.00     0.102 A 
HETATM   39  N   UNK N   1      28.744  18.142   7.060  0.00  0.00    -0.308 N 
HETATM   40  C   UNK N   1      29.887  17.514   6.677  0.00  0.00     0.227 A 
ATOM     41  HN  UNK N   1      28.034  18.357   6.361  1.00  0.00     0.171 HD
BRANCH  38  42
HETATM   42  N   UNK N   1      27.438  19.063   8.687  0.00  0.00    -0.385 N 
HETATM   43  H   UNK N   1      27.315  19.384   9.609  0.00  0.00     0.157 HD
ATOM     44  HN  UNK N   1      26.696  19.188   7.999  1.00  0.00     0.157 HD
ENDBRANCH  38  42
BRANCH  40  45
HETATM   45  O   UNK N   1      30.038  17.193   5.380  0.00  0.00    -0.332 OA
HETATM   46  H   UNK N   1      29.936  17.754   4.637  0.00  0.00     0.221 HD
ENDBRANCH  40  45
ENDBRANCH  32  35
BRANCH  34  47
HETATM   47  C   UNK N   1      34.408  18.319   8.313  0.00  0.00     0.198 C 
BRANCH  47  48
HETATM   48  O   UNK N   1      35.312  18.029   9.336  0.00  0.00    -0.398 OA
HETATM   49  H   UNK N   1      35.233  17.463  10.119  0.00  0.00     0.209 HD
ENDBRANCH  47  48
ENDBRANCH  34  47
ENDBRANCH  29  30
ENDBRANCH   2  29
TORSDOF 14
ENDMDL
MODEL 8
REMARK VINA RESULT:      -6.7      9.676     11.936
REMARK  14 active torsions:
REMARK  status: ('A' for Active; 'I' for Inactive)
REMARK    1  A    between atoms: C_11  and  C_5 
REMARK    2  A    between atoms: O_33  and  C_5 
REMARK    3  A    between atoms: C_12  and  C_6 
REMARK    4  A    between atoms: O_38  and  C_6 
REMARK    5  A    between atoms: C_9  and  O_34 
REMARK    6  A    between atoms: C_10  and  O_41 
REMARK    7  A    between atoms: N_20  and  C_13 
REMARK    8  A    between atoms: C_14  and  N_32 
REMARK    9  A    between atoms: C_15  and  N_31 
REMARK   10  A    between atoms: N_22  and  C_17 
REMARK   11  A    between atoms: O_35  and  C_19 
REMARK   12  A    between atoms: P_42  and  O_36 
REMARK   13  A    between atoms: P_42  and  O_38 
REMARK   14  A    between atoms: P_42  and  O_41 
ROOT
HETATM    1  O   UNK N   1      19.230  13.681   4.011  0.00  0.00    -0.631 OA
HETATM    2  P   UNK N   1      19.789  15.112   4.254  0.00  0.00     0.393 P 
ENDROOT
BRANCH   2   3
HETATM    3  O   UNK N   1      18.439  16.069   4.775  0.00  0.00    -0.307 OA
HETATM    4  H   UNK N   1      18.124  16.817   4.243  0.00  0.00     0.222 HD
ENDBRANCH   2   3
BRANCH   2   5
HETATM    5  O   UNK N   1      20.517  15.783   2.800  0.00  0.00    -0.294 OA
BRANCH   5   6
HETATM    6  C   UNK N   1      21.326  16.874   3.152  0.00  0.00     0.215 C 
BRANCH   6   7
HETATM    7  C   UNK N   1      20.494  18.100   3.568  0.00  0.00     0.177 C 
HETATM    8  C   UNK N   1      20.082  19.020   2.440  0.00  0.00     0.153 C 
HETATM    9  C   UNK N   1      21.311  19.833   2.253  0.00  0.00     0.088 C 
HETATM   10  C   UNK N   1      21.876  19.889   3.671  0.00  0.00     0.233 C 
HETATM   11  O   UNK N   1      21.281  18.865   4.444  0.00  0.00    -0.356 OA
BRANCH   8  12
HETATM   12  O   UNK N   1      19.710  18.338   1.281  0.00  0.00    -0.393 OA
HETATM   13  H   UNK N   1      19.177  17.790   0.682  0.00  0.00     0.210 HD
ENDBRANCH   8  12
BRANCH  10  14
HETATM   14  N   UNK N   1      23.328  19.723   3.576  0.00  0.00    -0.300 N 
HETATM   15  C   UNK N   1      24.135  20.430   2.741  0.00  0.00     0.188 A 
HETATM   16  N   UNK N   1      25.424  19.998   2.809  0.00  0.00    -0.346 N 
HETATM   17  C   UNK N   1      25.393  18.994   3.703  0.00  0.00     0.122 A 
ATOM     18  HN  UNK N   1      26.231  20.355   2.297  1.00  0.00     0.167 HD
HETATM   19  C   UNK N   1      26.408  18.155   4.126  0.00  0.00     0.131 A 
HETATM   20  C   UNK N   1      24.141  18.840   4.176  0.00  0.00     0.142 A 
HETATM   21  N   UNK N   1      26.099  17.179   5.030  0.00  0.00    -0.337 N 
HETATM   22  C   UNK N   1      24.818  17.041   5.507  0.00  0.00     0.183 A 
ATOM     23  HN  UNK N   1      26.829  16.544   5.355  1.00  0.00     0.168 HD
HETATM   24  N   UNK N   1      23.823  17.877   5.077  0.00  0.00    -0.336 N 
ATOM     25  HN  UNK N   1      22.869  17.779   5.424  1.00  0.00     0.168 HD
BRANCH  19  26
HETATM   26  N   UNK N   1      27.718  18.282   3.623  0.00  0.00    -0.383 N 
HETATM   27  H   UNK N   1      28.285  17.504   3.416  0.00  0.00     0.157 HD
HETATM   28  H   UNK N   1      28.082  19.184   3.470  0.00  0.00     0.157 HD
ENDBRANCH  19  26
ENDBRANCH  10  14
ENDBRANCH   6   7
ENDBRANCH   5   6
ENDBRANCH   2   5
BRANCH   2  29
HETATM   29  O   UNK N   1      20.965  15.011   5.551  0.00  0.00    -0.289 OA
BRANCH  29  30
HETATM   30  C   UNK N   1      21.521  13.709   5.646  0.00  0.00     0.169 C 
HETATM   31  C   UNK N   1      21.129  13.169   6.988  0.00  0.00     0.089 C 
HETATM   32  C   UNK N   1      22.067  13.977   7.887  0.00  0.00     0.234 C 
HETATM   33  O   UNK N   1      23.253  14.232   7.158  0.00  0.00    -0.356 OA
HETATM   34  C   UNK N   1      23.039  13.730   5.864  0.00  0.00     0.177 C 
BRANCH  32  35
HETATM   35  N   UNK N   1      22.314  13.302   9.176  0.00  0.00    -0.296 N 
HETATM   36  C   UNK N   1      21.220  12.890   9.880  0.00  0.00     0.101 A 
HETATM   37  C   UNK N   1      21.356  12.294  11.130  0.00  0.00     0.065 A 
HETATM   38  C   UNK N   1      22.633  12.125  11.648  0.00  0.00     0.102 A 
HETATM   39  N   UNK N   1      23.710  12.527  10.932  0.00  0.00    -0.308 N 
HETATM   40  C   UNK N   1      23.571  13.110   9.712  0.00  0.00     0.227 A 
ATOM     41  HN  UNK N   1      24.644  12.390  11.317  1.00  0.00     0.171 HD
BRANCH  38  42
HETATM   42  N   UNK N   1      22.792  11.596  12.800  0.00  0.00    -0.385 N 
HETATM   43  H   UNK N   1      22.752  10.617  12.901  0.00  0.00     0.157 HD
ATOM     44  HN  UNK N   1      22.960  12.187  13.614  1.00  0.00     0.157 HD
ENDBRANCH  38  42
BRANCH  40  45
HETATM   45  O   UNK N   1      24.680  13.492   9.054  0.00  0.00    -0.332 OA
HETATM   46  H   UNK N   1      25.288  14.161   9.300  0.00  0.00     0.221 HD
ENDBRANCH  40  45
ENDBRANCH  32  35
BRANCH  34  47
HETATM   47  C   UNK N   1      23.664  12.328   5.780  0.00  0.00     0.198 C 
BRANCH  47  48
HETATM   48  O   UNK N   1      24.903  12.287   6.420  0.00  0.00    -0.398 OA
HETATM   49  H   UNK N   1      25.448  12.989   6.807  0.00  0.00     0.209 HD
ENDBRANCH  47  48
ENDBRANCH  34  47
ENDBRANCH  29  30
ENDBRANCH   2  29
TORSDOF 14
ENDMDL
MODEL 9
REMARK VINA RESULT:      -6.7      7.043      9.948
REMARK  14 active torsions:
REMARK  status: ('A' for Active; 'I' for Inactive)
REMARK    1  A    between atoms: C_11  and  C_5 
REMARK    2  A    between atoms: O_33  and  C_5 
REMARK    3  A    between atoms: C_12  and  C_6 
REMARK    4  A    between atoms: O_38  and  C_6 
REMARK    5  A    between atoms: C_9  and  O_34 
REMARK    6  A    between atoms: C_10  and  O_41 
REMARK    7  A    between atoms: N_20  and  C_13 
REMARK    8  A    between atoms: C_14  and  N_32 
REMARK    9  A    between atoms: C_15  and  N_31 
REMARK   10  A    between atoms: N_22  and  C_17 
REMARK   11  A    between atoms: O_35  and  C_19 
REMARK   12  A    between atoms: P_42  and  O_36 
REMARK   13  A    between atoms: P_42  and  O_38 
REMARK   14  A    between atoms: P_42  and  O_41 
ROOT
HETATM    1  O   UNK N   1      23.735  14.419   6.544  0.00  0.00    -0.631 OA
HETATM    2  P   UNK N   1      24.293  15.637   5.755  0.00  0.00     0.393 P 
ENDROOT
BRANCH   2   3
HETATM    3  O   UNK N   1      23.127  16.907   5.954  0.00  0.00    -0.307 OA
HETATM    4  H   UNK N   1      22.274  16.737   6.384  0.00  0.00     0.222 HD
ENDBRANCH   2   3
BRANCH   2   5
HETATM    5  O   UNK N   1      24.533  15.259   4.055  0.00  0.00    -0.294 OA
BRANCH   5   6
HETATM    6  C   UNK N   1      23.352  15.534   3.351  0.00  0.00     0.215 C 
BRANCH   6   7
HETATM    7  C   UNK N   1      22.283  14.449   3.566  0.00  0.00     0.177 C 
HETATM    8  C   UNK N   1      22.118  13.463   2.431  0.00  0.00     0.153 C 
HETATM    9  C   UNK N   1      21.251  14.226   1.495  0.00  0.00     0.088 C 
HETATM   10  C   UNK N   1      20.412  15.069   2.453  0.00  0.00     0.233 C 
HETATM   11  O   UNK N   1      21.047  15.099   3.717  0.00  0.00    -0.356 OA
BRANCH   8  12
HETATM   12  O   UNK N   1      23.329  13.085   1.850  0.00  0.00    -0.393 OA
HETATM   13  H   UNK N   1      24.286  13.051   1.687  0.00  0.00     0.210 HD
ENDBRANCH   8  12
BRANCH  10  14
HETATM   14  N   UNK N   1      20.292  16.408   1.875  0.00  0.00    -0.300 N 
HETATM   15  C   UNK N   1      20.023  16.666   0.567  0.00  0.00     0.188 A 
HETATM   16  N   UNK N   1      20.059  18.000   0.304  0.00  0.00    -0.346 N 
HETATM   17  C   UNK N   1      20.368  18.566   1.485  0.00  0.00     0.122 A 
ATOM     18  HN  UNK N   1      19.890  18.467  -0.587  1.00  0.00     0.167 HD
HETATM   19  C   UNK N   1      20.588  19.895   1.798  0.00  0.00     0.131 A 
HETATM   20  C   UNK N   1      20.490  17.614   2.430  0.00  0.00     0.142 A 
HETATM   21  N   UNK N   1      20.928  20.203   3.084  0.00  0.00    -0.337 N 
HETATM   22  C   UNK N   1      21.042  19.220   4.037  0.00  0.00     0.183 A 
ATOM     23  HN  UNK N   1      21.101  21.176   3.341  1.00  0.00     0.168 HD
HETATM   24  N   UNK N   1      20.824  17.908   3.711  0.00  0.00    -0.336 N 
ATOM     25  HN  UNK N   1      20.909  17.173   4.413  1.00  0.00     0.168 HD
BRANCH  19  26
HETATM   26  N   UNK N   1      20.492  20.902   0.817  0.00  0.00    -0.383 N 
HETATM   27  H   UNK N   1      20.989  20.865  -0.032  0.00  0.00     0.157 HD
HETATM   28  H   UNK N   1      19.906  21.675   0.987  0.00  0.00     0.157 HD
ENDBRANCH  19  26
ENDBRANCH  10  14
ENDBRANCH   6   7
ENDBRANCH   5   6
ENDBRANCH   2   5
BRANCH   2  29
HETATM   29  O   UNK N   1      25.804  16.113   6.507  0.00  0.00    -0.289 OA
BRANCH  29  30
HETATM   30  C   UNK N   1      26.794  16.412   5.537  0.00  0.00     0.169 C 
HETATM   31  C   UNK N   1      28.118  16.061   6.148  0.00  0.00     0.089 C 
HETATM   32  C   UNK N   1      28.277  17.227   7.127  0.00  0.00     0.234 C 
HETATM   33  O   UNK N   1      27.642  18.358   6.562  0.00  0.00    -0.356 OA
HETATM   34  C   UNK N   1      27.030  17.919   5.377  0.00  0.00     0.177 C 
BRANCH  32  35
HETATM   35  N   UNK N   1      29.692  17.469   7.472  0.00  0.00    -0.296 N 
HETATM   36  C   UNK N   1      30.630  17.040   6.578  0.00  0.00     0.101 A 
HETATM   37  C   UNK N   1      31.988  17.176   6.846  0.00  0.00     0.065 A 
HETATM   38  C   UNK N   1      32.372  17.762   8.045  0.00  0.00     0.102 A 
HETATM   39  N   UNK N   1      31.430  18.194   8.916  0.00  0.00    -0.308 N 
HETATM   40  C   UNK N   1      30.104  18.057   8.650  0.00  0.00     0.227 A 
ATOM     41  HN  UNK N   1      31.721  18.632   9.790  1.00  0.00     0.171 HD
BRANCH  38  42
HETATM   42  N   UNK N   1      33.611  17.888   8.328  0.00  0.00    -0.385 N 
HETATM   43  H   UNK N   1      34.257  17.208   8.028  0.00  0.00     0.157 HD
ATOM     44  HN  UNK N   1      33.932  18.693   8.866  1.00  0.00     0.157 HD
ENDBRANCH  38  42
BRANCH  40  45
HETATM   45  O   UNK N   1      29.218  18.502   9.559  0.00  0.00    -0.332 OA
HETATM   46  H   UNK N   1      28.284  18.449   9.520  0.00  0.00     0.221 HD
ENDBRANCH  40  45
ENDBRANCH  32  35
BRANCH  34  47
HETATM   47  C   UNK N   1      27.962  18.247   4.200  0.00  0.00     0.198 C 
BRANCH  47  48
HETATM   48  O   UNK N   1      28.532  19.513   4.343  0.00  0.00    -0.398 OA
HETATM   49  H   UNK N   1      28.955  20.101   3.699  0.00  0.00     0.209 HD
ENDBRANCH  47  48
ENDBRANCH  34  47
ENDBRANCH  29  30
ENDBRANCH   2  29
TORSDOF 14
ENDMDL
