REMARK  7 active torsions:
REMARK  status: ('A' for Active; 'I' for Inactive)
REMARK    1  A    between atoms: C_2  and  N_1 
REMARK    2  A    between atoms: C_2  and  C_3 
REMARK    3  A    between atoms: C_2  and  C_9 
REMARK    4  A    between atoms: C_3  and  S_4 
REMARK    5  A    between atoms: S_4  and  C_5 
REMARK    6  A    between atoms: C_5  and  C_6 
REMARK       I    between atoms: C_6  and  N_7 
REMARK    7  A    between atoms: C_9  and  O_10 
ROOT
HETATM    1  C   UNK N   1       5.371   1.908  -0.320  0.00  0.00     0.182 C 
ENDROOT
BRANCH   1   2
HETATM    2  N   UNK N   1       6.215   3.078  -0.140  0.00  0.00    -0.417 N 
HETATM    3  H   UNK N   1       7.222   2.976  -0.014  0.00  0.00     0.150 HD
HETATM    4  H   UNK N   1       5.796   4.008  -0.140  0.00  0.00     0.150 HD
ENDBRANCH   1   2
BRANCH   1   5
HETATM    5  C   UNK N   1       4.162   2.011   0.601  0.00  0.00     0.110 C 
BRANCH   5   6
HETATM    6  S   UNK N   1       2.788   1.011  -0.054  0.00  0.00    -0.157 SA
BRANCH   6   7
HETATM    7  C   UNK N   1       1.681   2.455  -0.188  0.00  0.00     0.176 C 
BRANCH   7   8
HETATM    8  C   UNK N   1       0.227   2.108  -0.026  0.00  0.00     0.224 C 
HETATM    9  N   UNK N   1      -0.179   0.824   0.066  0.00  0.00    -0.369 N 
HETATM   10  H   UNK N   1      -1.138   0.613   0.134  0.00  0.00     0.159 HD
HETATM   11  H   UNK N   1       0.485   0.098   0.066  0.00  0.00     0.159 HD
HETATM   12  O   UNK N   1      -0.601   3.003   0.002  0.00  0.00    -0.273 OA
ENDBRANCH   7   8
ENDBRANCH   6   7
ENDBRANCH   5   6
ENDBRANCH   1   5
BRANCH   1  13
HETATM   13  C   UNK N   1       6.157   0.648  -0.055  0.00  0.00     0.163 C 
HETATM   14  O   UNK N   1       5.611  -0.440  -0.123  0.00  0.00    -0.648 OA
BRANCH  13  15
HETATM   15  O   UNK N   1       7.473   0.712   0.237  0.00  0.00    -0.775 OA
HETATM   16  H   UNK N   1       7.969  -0.057   0.439  0.00  0.00     0.167 HD
ENDBRANCH  13  15
ENDBRANCH   1  13
TORSDOF 7
