MODEL 1
REMARK VINA RESULT:      -4.6      0.000      0.000
REMARK  12 active torsions:
REMARK  status: ('A' for Active; 'I' for Inactive)
REMARK    1  A    between atoms: C_2  and  C_1 
REMARK    2  A    between atoms: C_3  and  C_1 
REMARK    3  A    between atoms: C_4  and  C_2 
REMARK    4  A    between atoms: N_8  and  C_3 
REMARK    5  A    between atoms: C_5  and  C_4 
REMARK    6  A    between atoms: C_4  and  N_6 
REMARK    7  A    between atoms: O_11  and  C_5 
REMARK    8  A    between atoms: P_16  and  N_7 
REMARK    9  A    between atoms: P_16  and  N_8 
REMARK   10  A    between atoms: P_16  and  N_9 
REMARK   11  A    between atoms: S_17  and  N_9 
REMARK   12  A    between atoms: S_17  and  O_13 
ROOT
HETATM    1  N   UNK N   1      32.207  15.355   8.778  0.00  0.00    -0.339 N 
HETATM    2  H   UNK N   1      32.264  15.049   9.749  0.00  0.00     0.164 HD
ENDROOT
BRANCH   1   3
HETATM    3  C   UNK N   1      32.607  14.564   7.616  0.00  0.00     0.124 C 
BRANCH   3   4
HETATM    4  C   UNK N   1      33.869  13.753   7.888  0.00  0.00     0.022 C 
BRANCH   4   5
HETATM    5  C   UNK N   1      33.770  13.060   9.247  0.00  0.00     0.037 C 
BRANCH   5   6
HETATM    6  C   UNK N   1      34.953  13.378  10.162  0.00  0.00     0.173 C 
BRANCH   6   7
HETATM    7  C   UNK N   1      34.476  14.147  11.364  0.00  0.00     0.163 C 
HETATM    8  O   UNK N   1      34.907  13.884  12.483  0.00  0.00    -0.648 OA
BRANCH   7   9
HETATM    9  O   UNK N   1      33.556  15.115  11.223  0.00  0.00    -0.775 OA
HETATM   10  H   UNK N   1      33.427  15.537  10.397  0.00  0.00     0.167 HD
ENDBRANCH   7   9
ENDBRANCH   6   7
BRANCH   6  11
HETATM   11  N   UNK N   1      35.951  14.136   9.422  0.00  0.00    -0.418 N 
HETATM   12  H   UNK N   1      35.751  14.475   8.481  0.00  0.00     0.150 HD
HETATM   13  H   UNK N   1      36.858  14.329   9.847  0.00  0.00     0.150 HD
ENDBRANCH   6  11
ENDBRANCH   5   6
ENDBRANCH   4   5
ENDBRANCH   3   4
ENDBRANCH   1   3
BRANCH   1  14
HETATM   14  P   UNK N   1      31.594  16.961   8.218  0.00  0.00     0.354 P 
HETATM   15  O   UNK N   1      31.560  16.948   6.666  0.00  0.00    -0.249 OA
BRANCH  14  16
HETATM   16  N   UNK N   1      29.905  17.226   8.767  0.00  0.00    -0.348 N 
HETATM   17  H   UNK N   1      29.264  17.416   9.537  0.00  0.00     0.160 HD
HETATM   18  H   UNK N   1      29.324  17.152   7.932  0.00  0.00     0.160 HD
ENDBRANCH  14  16
BRANCH  14  19
HETATM   19  N   UNK N   1      32.685  18.321   8.682  0.00  0.00    -0.220 N 
HETATM   20  H   UNK N   1      32.379  19.162   9.169  0.00  0.00     0.185 HD
BRANCH  19  21
HETATM   21  S   UNK N   1      34.355  18.004   8.183  0.00  0.00     0.202 S 
HETATM   22  O   UNK N   1      34.896  16.889   9.092  0.00  0.00    -0.585 OA
HETATM   23  O   UNK N   1      35.221  19.225   8.521  0.00  0.00    -0.585 OA
BRANCH  21  24
HETATM   24  O   UNK N   1      34.590  17.539   6.546  0.00  0.00    -0.279 OA
HETATM   25  H   UNK N   1      34.191  16.841   6.004  0.00  0.00     0.234 HD
ENDBRANCH  21  24
ENDBRANCH  19  21
ENDBRANCH  14  19
ENDBRANCH   1  14
TORSDOF 12
ENDMDL
MODEL 2
REMARK VINA RESULT:      -4.6      3.383      5.134
REMARK  12 active torsions:
REMARK  status: ('A' for Active; 'I' for Inactive)
REMARK    1  A    between atoms: C_2  and  C_1 
REMARK    2  A    between atoms: C_3  and  C_1 
REMARK    3  A    between atoms: C_4  and  C_2 
REMARK    4  A    between atoms: N_8  and  C_3 
REMARK    5  A    between atoms: C_5  and  C_4 
REMARK    6  A    between atoms: C_4  and  N_6 
REMARK    7  A    between atoms: O_11  and  C_5 
REMARK    8  A    between atoms: P_16  and  N_7 
REMARK    9  A    between atoms: P_16  and  N_8 
REMARK   10  A    between atoms: P_16  and  N_9 
REMARK   11  A    between atoms: S_17  and  N_9 
REMARK   12  A    between atoms: S_17  and  O_13 
ROOT
HETATM    1  N   UNK N   1      31.197  15.633   7.074  0.00  0.00    -0.339 N 
HETATM    2  H   UNK N   1      30.584  14.844   6.873  0.00  0.00     0.164 HD
ENDROOT
BRANCH   1   3
HETATM    3  C   UNK N   1      31.367  16.810   6.225  0.00  0.00     0.124 C 
BRANCH   3   4
HETATM    4  C   UNK N   1      30.031  17.451   5.868  0.00  0.00     0.022 C 
BRANCH   4   5
HETATM    5  C   UNK N   1      28.999  17.169   6.959  0.00  0.00     0.037 C 
BRANCH   5   6
HETATM    6  C   UNK N   1      28.842  18.331   7.940  0.00  0.00     0.173 C 
BRANCH   6   7
HETATM    7  C   UNK N   1      28.798  17.807   9.350  0.00  0.00     0.163 C 
HETATM    8  O   UNK N   1      27.815  17.195   9.756  0.00  0.00    -0.648 OA
BRANCH   7   9
HETATM    9  O   UNK N   1      29.830  18.025  10.181  0.00  0.00    -0.775 OA
HETATM   10  H   UNK N   1      29.721  18.538  10.957  0.00  0.00     0.167 HD
ENDBRANCH   7   9
ENDBRANCH   6   7
BRANCH   6  11
HETATM   11  N   UNK N   1      27.632  19.075   7.624  0.00  0.00    -0.418 N 
HETATM   12  H   UNK N   1      26.760  18.879   8.116  0.00  0.00     0.150 HD
HETATM   13  H   UNK N   1      27.655  19.798   6.904  0.00  0.00     0.150 HD
ENDBRANCH   6  11
ENDBRANCH   5   6
ENDBRANCH   4   5
ENDBRANCH   3   4
ENDBRANCH   1   3
BRANCH   1  14
HETATM   14  P   UNK N   1      32.245  15.802   8.537  0.00  0.00     0.354 P 
HETATM   15  O   UNK N   1      31.407  15.391   9.779  0.00  0.00    -0.249 OA
BRANCH  14  16
HETATM   16  N   UNK N   1      33.637  14.670   8.460  0.00  0.00    -0.348 N 
HETATM   17  H   UNK N   1      34.193  14.019   7.906  0.00  0.00     0.160 HD
HETATM   18  H   UNK N   1      34.062  14.684   9.386  0.00  0.00     0.160 HD
ENDBRANCH  14  16
BRANCH  14  19
HETATM   19  N   UNK N   1      32.764  17.505   8.827  0.00  0.00    -0.220 N 
HETATM   20  H   UNK N   1      32.143  18.250   9.142  0.00  0.00     0.185 HD
BRANCH  19  21
HETATM   21  S   UNK N   1      34.491  17.717   8.494  0.00  0.00     0.202 S 
HETATM   22  O   UNK N   1      34.775  17.054   7.137  0.00  0.00    -0.585 OA
HETATM   23  O   UNK N   1      35.302  16.889   9.500  0.00  0.00    -0.585 OA
BRANCH  21  24
HETATM   24  O   UNK N   1      35.070  19.333   8.446  0.00  0.00    -0.279 OA
HETATM   25  H   UNK N   1      35.930  19.724   8.666  0.00  0.00     0.234 HD
ENDBRANCH  21  24
ENDBRANCH  19  21
ENDBRANCH  14  19
ENDBRANCH   1  14
TORSDOF 12
ENDMDL
MODEL 3
REMARK VINA RESULT:      -4.6      2.135      2.866
REMARK  12 active torsions:
REMARK  status: ('A' for Active; 'I' for Inactive)
REMARK    1  A    between atoms: C_2  and  C_1 
REMARK    2  A    between atoms: C_3  and  C_1 
REMARK    3  A    between atoms: C_4  and  C_2 
REMARK    4  A    between atoms: N_8  and  C_3 
REMARK    5  A    between atoms: C_5  and  C_4 
REMARK    6  A    between atoms: C_4  and  N_6 
REMARK    7  A    between atoms: O_11  and  C_5 
REMARK    8  A    between atoms: P_16  and  N_7 
REMARK    9  A    between atoms: P_16  and  N_8 
REMARK   10  A    between atoms: P_16  and  N_9 
REMARK   11  A    between atoms: S_17  and  N_9 
REMARK   12  A    between atoms: S_17  and  O_13 
ROOT
HETATM    1  N   UNK N   1      34.744  13.479   8.704  0.00  0.00    -0.339 N 
HETATM    2  H   UNK N   1      35.506  13.190   8.091  0.00  0.00     0.164 HD
ENDROOT
BRANCH   1   3
HETATM    3  C   UNK N   1      34.174  12.676   9.783  0.00  0.00     0.124 C 
BRANCH   3   4
HETATM    4  C   UNK N   1      35.209  12.345  10.853  0.00  0.00     0.022 C 
BRANCH   4   5
HETATM    5  C   UNK N   1      35.003  13.231  12.081  0.00  0.00     0.037 C 
BRANCH   5   6
HETATM    6  C   UNK N   1      36.214  14.115  12.383  0.00  0.00     0.173 C 
BRANCH   6   7
HETATM    7  C   UNK N   1      36.221  15.303  11.460  0.00  0.00     0.163 C 
HETATM    8  O   UNK N   1      35.410  16.213  11.609  0.00  0.00    -0.648 OA
BRANCH   7   9
HETATM    9  O   UNK N   1      37.105  15.367  10.451  0.00  0.00    -0.775 OA
HETATM   10  H   UNK N   1      37.980  15.667  10.597  0.00  0.00     0.167 HD
ENDBRANCH   7   9
ENDBRANCH   6   7
BRANCH   6  11
HETATM   11  N   UNK N   1      37.434  13.336  12.238  0.00  0.00    -0.418 N 
HETATM   12  H   UNK N   1      38.285  13.612  12.729  0.00  0.00     0.150 HD
HETATM   13  H   UNK N   1      37.439  12.509  11.642  0.00  0.00     0.150 HD
ENDBRANCH   6  11
ENDBRANCH   5   6
ENDBRANCH   4   5
ENDBRANCH   3   4
ENDBRANCH   1   3
BRANCH   1  14
HETATM   14  P   UNK N   1      33.885  15.068   8.631  0.00  0.00     0.354 P 
HETATM   15  O   UNK N   1      32.976  15.065   7.373  0.00  0.00    -0.249 OA
BRANCH  14  16
HETATM   16  N   UNK N   1      32.800  15.272  10.048  0.00  0.00    -0.348 N 
HETATM   17  H   UNK N   1      32.706  15.389  11.057  0.00  0.00     0.160 HD
HETATM   18  H   UNK N   1      31.851  15.272   9.676  0.00  0.00     0.160 HD
ENDBRANCH  14  16
BRANCH  14  19
HETATM   19  N   UNK N   1      35.015  16.459   8.428  0.00  0.00    -0.220 N 
HETATM   20  H   UNK N   1      36.019  16.414   8.595  0.00  0.00     0.185 HD
BRANCH  19  21
HETATM   21  S   UNK N   1      34.154  17.914   7.898  0.00  0.00     0.202 S 
HETATM   22  O   UNK N   1      34.264  17.973   6.366  0.00  0.00    -0.585 OA
HETATM   23  O   UNK N   1      34.917  19.155   8.382  0.00  0.00    -0.585 OA
BRANCH  21  24
HETATM   24  O   UNK N   1      32.496  18.024   8.332  0.00  0.00    -0.279 OA
HETATM   25  H   UNK N   1      31.970  18.743   8.718  0.00  0.00     0.234 HD
ENDBRANCH  21  24
ENDBRANCH  19  21
ENDBRANCH  14  19
ENDBRANCH   1  14
TORSDOF 12
ENDMDL
MODEL 4
REMARK VINA RESULT:      -4.5      2.659      3.631
REMARK  12 active torsions:
REMARK  status: ('A' for Active; 'I' for Inactive)
REMARK    1  A    between atoms: C_2  and  C_1 
REMARK    2  A    between atoms: C_3  and  C_1 
REMARK    3  A    between atoms: C_4  and  C_2 
REMARK    4  A    between atoms: N_8  and  C_3 
REMARK    5  A    between atoms: C_5  and  C_4 
REMARK    6  A    between atoms: C_4  and  N_6 
REMARK    7  A    between atoms: O_11  and  C_5 
REMARK    8  A    between atoms: P_16  and  N_7 
REMARK    9  A    between atoms: P_16  and  N_8 
REMARK   10  A    between atoms: P_16  and  N_9 
REMARK   11  A    between atoms: S_17  and  N_9 
REMARK   12  A    between atoms: S_17  and  O_13 
ROOT
HETATM    1  N   UNK N   1      34.407  14.302  11.308  0.00  0.00    -0.339 N 
HETATM    2  H   UNK N   1      34.081  14.382  12.271  0.00  0.00     0.164 HD
ENDROOT
BRANCH   1   3
HETATM    3  C   UNK N   1      35.412  13.356  10.830  0.00  0.00     0.124 C 
BRANCH   3   4
HETATM    4  C   UNK N   1      36.767  13.583  11.493  0.00  0.00     0.022 C 
BRANCH   4   5
HETATM    5  C   UNK N   1      37.005  12.540  12.583  0.00  0.00     0.037 C 
BRANCH   5   6
HETATM    6  C   UNK N   1      36.803  13.099  13.993  0.00  0.00     0.173 C 
BRANCH   6   7
HETATM    7  C   UNK N   1      35.523  12.565  14.575  0.00  0.00     0.163 C 
HETATM    8  O   UNK N   1      34.438  12.996  14.193  0.00  0.00    -0.648 OA
BRANCH   7   9
HETATM    9  O   UNK N   1      35.559  11.625  15.533  0.00  0.00    -0.775 OA
HETATM   10  H   UNK N   1      35.473  10.718  15.319  0.00  0.00     0.167 HD
ENDBRANCH   7   9
ENDBRANCH   6   7
BRANCH   6  11
HETATM   11  N   UNK N   1      36.786  14.553  13.942  0.00  0.00    -0.418 N 
HETATM   12  H   UNK N   1      37.659  15.081  13.935  0.00  0.00     0.150 HD
HETATM   13  H   UNK N   1      35.895  15.048  13.915  0.00  0.00     0.150 HD
ENDBRANCH   6  11
ENDBRANCH   5   6
ENDBRANCH   4   5
ENDBRANCH   3   4
ENDBRANCH   1   3
BRANCH   1  14
HETATM   14  P   UNK N   1      33.832  15.306   9.919  0.00  0.00     0.354 P 
HETATM   15  O   UNK N   1      34.310  14.629   8.606  0.00  0.00    -0.249 OA
BRANCH  14  16
HETATM   16  N   UNK N   1      32.038  15.340   9.855  0.00  0.00    -0.348 N 
HETATM   17  H   UNK N   1      31.194  15.664   9.383  0.00  0.00     0.160 HD
HETATM   18  H   UNK N   1      31.719  14.787  10.650  0.00  0.00     0.160 HD
ENDBRANCH  14  16
BRANCH  14  19
HETATM   19  N   UNK N   1      34.549  16.962   9.915  0.00  0.00    -0.220 N 
HETATM   20  H   UNK N   1      35.052  17.372  10.701  0.00  0.00     0.185 HD
BRANCH  19  21
HETATM   21  S   UNK N   1      34.266  17.782   8.371  0.00  0.00     0.202 S 
HETATM   22  O   UNK N   1      35.010  19.125   8.429  0.00  0.00    -0.585 OA
HETATM   23  O   UNK N   1      32.785  18.171   8.272  0.00  0.00    -0.585 OA
BRANCH  21  24
HETATM   24  O   UNK N   1      34.760  16.943   6.956  0.00  0.00    -0.279 OA
HETATM   25  H   UNK N   1      35.539  16.399   6.760  0.00  0.00     0.234 HD
ENDBRANCH  21  24
ENDBRANCH  19  21
ENDBRANCH  14  19
ENDBRANCH   1  14
TORSDOF 12
ENDMDL
MODEL 5
REMARK VINA RESULT:      -4.5     12.489     14.061
REMARK  12 active torsions:
REMARK  status: ('A' for Active; 'I' for Inactive)
REMARK    1  A    between atoms: C_2  and  C_1 
REMARK    2  A    between atoms: C_3  and  C_1 
REMARK    3  A    between atoms: C_4  and  C_2 
REMARK    4  A    between atoms: N_8  and  C_3 
REMARK    5  A    between atoms: C_5  and  C_4 
REMARK    6  A    between atoms: C_4  and  N_6 
REMARK    7  A    between atoms: O_11  and  C_5 
REMARK    8  A    between atoms: P_16  and  N_7 
REMARK    9  A    between atoms: P_16  and  N_8 
REMARK   10  A    between atoms: P_16  and  N_9 
REMARK   11  A    between atoms: S_17  and  N_9 
REMARK   12  A    between atoms: S_17  and  O_13 
ROOT
HETATM    1  N   UNK N   1      42.888  21.006   3.861  0.00  0.00    -0.339 N 
HETATM    2  H   UNK N   1      41.990  20.808   4.301  0.00  0.00     0.164 HD
ENDROOT
BRANCH   1   3
HETATM    3  C   UNK N   1      43.497  20.221   2.790  0.00  0.00     0.124 C 
BRANCH   3   4
HETATM    4  C   UNK N   1      42.451  19.658   1.833  0.00  0.00     0.022 C 
BRANCH   4   5
HETATM    5  C   UNK N   1      42.440  20.458   0.531  0.00  0.00     0.037 C 
BRANCH   5   6
HETATM    6  C   UNK N   1      41.175  21.302   0.365  0.00  0.00     0.173 C 
BRANCH   6   7
HETATM    7  C   UNK N   1      41.358  22.632   1.044  0.00  0.00     0.163 C 
HETATM    8  O   UNK N   1      40.890  22.830   2.161  0.00  0.00    -0.648 OA
BRANCH   7   9
HETATM    9  O   UNK N   1      42.019  23.621   0.421  0.00  0.00    -0.775 OA
HETATM   10  H   UNK N   1      41.573  24.203  -0.162  0.00  0.00     0.167 HD
ENDBRANCH   7   9
ENDBRANCH   6   7
BRANCH   6  11
HETATM   11  N   UNK N   1      40.035  20.586   0.918  0.00  0.00    -0.418 N 
HETATM   12  H   UNK N   1      39.398  20.077   0.306  0.00  0.00     0.150 HD
HETATM   13  H   UNK N   1      39.872  20.595   1.925  0.00  0.00     0.150 HD
ENDBRANCH   6  11
ENDBRANCH   5   6
ENDBRANCH   4   5
ENDBRANCH   3   4
ENDBRANCH   1   3
BRANCH   1  14
HETATM   14  P   UNK N   1      43.981  22.385   4.279  0.00  0.00     0.354 P 
HETATM   15  O   UNK N   1      43.749  22.746   5.771  0.00  0.00    -0.249 OA
BRANCH  14  16
HETATM   16  N   UNK N   1      45.704  21.901   4.129  0.00  0.00    -0.348 N 
HETATM   17  H   UNK N   1      46.666  22.019   4.444  0.00  0.00     0.160 HD
HETATM   18  H   UNK N   1      45.732  21.188   3.401  0.00  0.00     0.160 HD
ENDBRANCH  14  16
BRANCH  14  19
HETATM   19  N   UNK N   1      43.605  23.878   3.340  0.00  0.00    -0.220 N 
HETATM   20  H   UNK N   1      42.776  24.453   3.483  0.00  0.00     0.185 HD
BRANCH  19  21
HETATM   21  S   UNK N   1      44.862  24.216   2.139  0.00  0.00     0.202 S 
HETATM   22  O   UNK N   1      44.363  25.387   1.278  0.00  0.00    -0.585 OA
HETATM   23  O   UNK N   1      44.954  23.036   1.161  0.00  0.00    -0.585 OA
BRANCH  21  24
HETATM   24  O   UNK N   1      46.418  24.609   2.749  0.00  0.00    -0.279 OA
HETATM   25  H   UNK N   1      46.885  25.454   2.847  0.00  0.00     0.234 HD
ENDBRANCH  21  24
ENDBRANCH  19  21
ENDBRANCH  14  19
ENDBRANCH   1  14
TORSDOF 12
ENDMDL
MODEL 6
REMARK VINA RESULT:      -4.5      3.032      5.757
REMARK  12 active torsions:
REMARK  status: ('A' for Active; 'I' for Inactive)
REMARK    1  A    between atoms: C_2  and  C_1 
REMARK    2  A    between atoms: C_3  and  C_1 
REMARK    3  A    between atoms: C_4  and  C_2 
REMARK    4  A    between atoms: N_8  and  C_3 
REMARK    5  A    between atoms: C_5  and  C_4 
REMARK    6  A    between atoms: C_4  and  N_6 
REMARK    7  A    between atoms: O_11  and  C_5 
REMARK    8  A    between atoms: P_16  and  N_7 
REMARK    9  A    between atoms: P_16  and  N_8 
REMARK   10  A    between atoms: P_16  and  N_9 
REMARK   11  A    between atoms: S_17  and  N_9 
REMARK   12  A    between atoms: S_17  and  O_13 
ROOT
HETATM    1  N   UNK N   1      34.653  14.279  10.496  0.00  0.00    -0.339 N 
HETATM    2  H   UNK N   1      34.786  13.278  10.632  0.00  0.00     0.164 HD
ENDROOT
BRANCH   1   3
HETATM    3  C   UNK N   1      33.502  14.900   9.844  0.00  0.00     0.124 C 
BRANCH   3   4
HETATM    4  C   UNK N   1      33.805  15.275   8.397  0.00  0.00     0.022 C 
BRANCH   4   5
HETATM    5  C   UNK N   1      32.535  15.766   7.701  0.00  0.00     0.037 C 
BRANCH   5   6
HETATM    6  C   UNK N   1      32.476  17.290   7.582  0.00  0.00     0.173 C 
BRANCH   6   7
HETATM    7  C   UNK N   1      33.827  17.823   7.191  0.00  0.00     0.163 C 
HETATM    8  O   UNK N   1      34.471  18.519   7.971  0.00  0.00    -0.648 OA
BRANCH   7   9
HETATM    9  O   UNK N   1      34.330  17.557   5.974  0.00  0.00    -0.775 OA
HETATM   10  H   UNK N   1      35.251  17.610   5.814  0.00  0.00     0.167 HD
ENDBRANCH   7   9
ENDBRANCH   6   7
BRANCH   6  11
HETATM   11  N   UNK N   1      32.036  17.861   8.846  0.00  0.00    -0.418 N 
HETATM   12  H   UNK N   1      32.246  17.391   9.727  0.00  0.00     0.150 HD
HETATM   13  H   UNK N   1      31.513  18.737   8.851  0.00  0.00     0.150 HD
ENDBRANCH   6  11
ENDBRANCH   5   6
ENDBRANCH   4   5
ENDBRANCH   3   4
ENDBRANCH   1   3
BRANCH   1  14
HETATM   14  P   UNK N   1      35.801  15.572  11.026  0.00  0.00     0.354 P 
HETATM   15  O   UNK N   1      37.077  15.471  10.147  0.00  0.00    -0.249 OA
BRANCH  14  16
HETATM   16  N   UNK N   1      35.105  17.202  10.735  0.00  0.00    -0.348 N 
HETATM   17  H   UNK N   1      34.967  17.982  10.093  0.00  0.00     0.160 HD
HETATM   18  H   UNK N   1      34.639  17.466  11.602  0.00  0.00     0.160 HD
ENDBRANCH  14  16
BRANCH  14  19
HETATM   19  N   UNK N   1      36.351  15.357  12.730  0.00  0.00    -0.220 N 
HETATM   20  H   UNK N   1      36.665  16.116  13.333  0.00  0.00     0.185 HD
BRANCH  19  21
HETATM   21  S   UNK N   1      36.273  13.657  13.221  0.00  0.00     0.202 S 
HETATM   22  O   UNK N   1      36.742  12.817  12.022  0.00  0.00    -0.585 OA
HETATM   23  O   UNK N   1      34.805  13.255  13.416  0.00  0.00    -0.585 OA
BRANCH  21  24
HETATM   24  O   UNK N   1      37.201  13.214  14.596  0.00  0.00    -0.279 OA
HETATM   25  H   UNK N   1      37.986  12.652  14.700  0.00  0.00     0.234 HD
ENDBRANCH  21  24
ENDBRANCH  19  21
ENDBRANCH  14  19
ENDBRANCH   1  14
TORSDOF 12
ENDMDL
MODEL 7
REMARK VINA RESULT:      -4.4      4.345      6.971
REMARK  12 active torsions:
REMARK  status: ('A' for Active; 'I' for Inactive)
REMARK    1  A    between atoms: C_2  and  C_1 
REMARK    2  A    between atoms: C_3  and  C_1 
REMARK    3  A    between atoms: C_4  and  C_2 
REMARK    4  A    between atoms: N_8  and  C_3 
REMARK    5  A    between atoms: C_5  and  C_4 
REMARK    6  A    between atoms: C_4  and  N_6 
REMARK    7  A    between atoms: O_11  and  C_5 
REMARK    8  A    between atoms: P_16  and  N_7 
REMARK    9  A    between atoms: P_16  and  N_8 
REMARK   10  A    between atoms: P_16  and  N_9 
REMARK   11  A    between atoms: S_17  and  N_9 
REMARK   12  A    between atoms: S_17  and  O_13 
ROOT
HETATM    1  N   UNK N   1      34.802  12.363  12.426  0.00  0.00    -0.339 N 
HETATM    2  H   UNK N   1      33.867  12.365  12.833  0.00  0.00     0.164 HD
ENDROOT
BRANCH   1   3
HETATM    3  C   UNK N   1      35.132  11.957  11.062  0.00  0.00     0.124 C 
BRANCH   3   4
HETATM    4  C   UNK N   1      34.468  12.857  10.026  0.00  0.00     0.022 C 
BRANCH   4   5
HETATM    5  C   UNK N   1      35.365  14.054   9.713  0.00  0.00     0.037 C 
BRANCH   5   6
HETATM    6  C   UNK N   1      34.669  15.395   9.951  0.00  0.00     0.173 C 
BRANCH   6   7
HETATM    7  C   UNK N   1      35.674  16.419  10.403  0.00  0.00     0.163 C 
HETATM    8  O   UNK N   1      35.438  17.618  10.286  0.00  0.00    -0.648 OA
BRANCH   7   9
HETATM    9  O   UNK N   1      36.849  16.025  10.921  0.00  0.00    -0.775 OA
HETATM   10  H   UNK N   1      37.049  15.116  11.021  0.00  0.00     0.167 HD
ENDBRANCH   7   9
ENDBRANCH   6   7
BRANCH   6  11
HETATM   11  N   UNK N   1      33.615  15.228  10.940  0.00  0.00    -0.418 N 
HETATM   12  H   UNK N   1      32.875  14.540  10.797  0.00  0.00     0.150 HD
HETATM   13  H   UNK N   1      33.615  15.803  11.783  0.00  0.00     0.150 HD
ENDBRANCH   6  11
ENDBRANCH   5   6
ENDBRANCH   4   5
ENDBRANCH   3   4
ENDBRANCH   1   3
BRANCH   1  14
HETATM   14  P   UNK N   1      36.317  12.862  13.277  0.00  0.00     0.354 P 
HETATM   15  O   UNK N   1      37.523  12.461  12.387  0.00  0.00    -0.249 OA
BRANCH  14  16
HETATM   16  N   UNK N   1      36.386  14.648  13.461  0.00  0.00    -0.348 N 
HETATM   17  H   UNK N   1      36.200  15.466  14.040  0.00  0.00     0.160 HD
HETATM   18  H   UNK N   1      36.795  15.003  12.598  0.00  0.00     0.160 HD
ENDBRANCH  14  16
BRANCH  14  19
HETATM   19  N   UNK N   1      36.547  12.003  14.847  0.00  0.00    -0.220 N 
HETATM   20  H   UNK N   1      37.177  11.214  14.983  0.00  0.00     0.185 HD
BRANCH  19  21
HETATM   21  S   UNK N   1      35.538  12.709  16.120  0.00  0.00     0.202 S 
HETATM   22  O   UNK N   1      34.203  13.107  15.471  0.00  0.00    -0.585 OA
HETATM   23  O   UNK N   1      36.154  14.040  16.572  0.00  0.00    -0.585 OA
BRANCH  21  24
HETATM   24  O   UNK N   1      35.209  11.711  17.479  0.00  0.00    -0.279 OA
HETATM   25  H   UNK N   1      34.878  10.802  17.554  0.00  0.00     0.234 HD
ENDBRANCH  21  24
ENDBRANCH  19  21
ENDBRANCH  14  19
ENDBRANCH   1  14
TORSDOF 12
ENDMDL
MODEL 8
REMARK VINA RESULT:      -4.4      3.897      6.990
REMARK  12 active torsions:
REMARK  status: ('A' for Active; 'I' for Inactive)
REMARK    1  A    between atoms: C_2  and  C_1 
REMARK    2  A    between atoms: C_3  and  C_1 
REMARK    3  A    between atoms: C_4  and  C_2 
REMARK    4  A    between atoms: N_8  and  C_3 
REMARK    5  A    between atoms: C_5  and  C_4 
REMARK    6  A    between atoms: C_4  and  N_6 
REMARK    7  A    between atoms: O_11  and  C_5 
REMARK    8  A    between atoms: P_16  and  N_7 
REMARK    9  A    between atoms: P_16  and  N_8 
REMARK   10  A    between atoms: P_16  and  N_9 
REMARK   11  A    between atoms: S_17  and  N_9 
REMARK   12  A    between atoms: S_17  and  O_13 
ROOT
HETATM    1  N   UNK N   1      36.227  13.811  10.691  0.00  0.00    -0.339 N 
HETATM    2  H   UNK N   1      37.051  13.851  10.092  0.00  0.00     0.164 HD
ENDROOT
BRANCH   1   3
HETATM    3  C   UNK N   1      34.909  14.345  10.357  0.00  0.00     0.124 C 
BRANCH   3   4
HETATM    4  C   UNK N   1      34.690  15.731  10.952  0.00  0.00     0.022 C 
BRANCH   4   5
HETATM    5  C   UNK N   1      35.122  16.809   9.959  0.00  0.00     0.037 C 
BRANCH   5   6
HETATM    6  C   UNK N   1      34.165  16.941   8.774  0.00  0.00     0.173 C 
BRANCH   6   7
HETATM    7  C   UNK N   1      34.571  18.110   7.918  0.00  0.00     0.163 C 
HETATM    8  O   UNK N   1      34.424  18.071   6.700  0.00  0.00    -0.648 OA
BRANCH   7   9
HETATM    9  O   UNK N   1      35.118  19.199   8.482  0.00  0.00    -0.775 OA
HETATM   10  H   UNK N   1      34.689  20.030   8.436  0.00  0.00     0.167 HD
ENDBRANCH   7   9
ENDBRANCH   6   7
BRANCH   6  11
HETATM   11  N   UNK N   1      32.803  17.101   9.262  0.00  0.00    -0.418 N 
HETATM   12  H   UNK N   1      32.432  18.029   9.465  0.00  0.00     0.150 HD
HETATM   13  H   UNK N   1      32.216  16.279   9.403  0.00  0.00     0.150 HD
ENDBRANCH   6  11
ENDBRANCH   5   6
ENDBRANCH   4   5
ENDBRANCH   3   4
ENDBRANCH   1   3
BRANCH   1  14
HETATM   14  P   UNK N   1      36.164  13.067  12.338  0.00  0.00     0.354 P 
HETATM   15  O   UNK N   1      37.195  11.908  12.382  0.00  0.00    -0.249 OA
BRANCH  14  16
HETATM   16  N   UNK N   1      36.667  14.250  13.592  0.00  0.00    -0.348 N 
HETATM   17  H   UNK N   1      36.728  15.224  13.889  0.00  0.00     0.160 HD
HETATM   18  H   UNK N   1      37.077  13.701  14.347  0.00  0.00     0.160 HD
ENDBRANCH  14  16
BRANCH  14  19
HETATM   19  N   UNK N   1      34.561  12.324  12.703  0.00  0.00    -0.220 N 
HETATM   20  H   UNK N   1      33.797  12.249  12.033  0.00  0.00     0.185 HD
BRANCH  19  21
HETATM   21  S   UNK N   1      34.488  11.740  14.374  0.00  0.00     0.202 S 
HETATM   22  O   UNK N   1      33.248  10.840  14.485  0.00  0.00    -0.585 OA
HETATM   23  O   UNK N   1      34.188  12.921  15.307  0.00  0.00    -0.585 OA
BRANCH  21  24
HETATM   24  O   UNK N   1      35.853  10.864  14.939  0.00  0.00    -0.279 OA
HETATM   25  H   UNK N   1      36.759  10.780  14.602  0.00  0.00     0.234 HD
ENDBRANCH  21  24
ENDBRANCH  19  21
ENDBRANCH  14  19
ENDBRANCH   1  14
TORSDOF 12
ENDMDL
MODEL 9
REMARK VINA RESULT:      -4.4      3.724      5.160
REMARK  12 active torsions:
REMARK  status: ('A' for Active; 'I' for Inactive)
REMARK    1  A    between atoms: C_2  and  C_1 
REMARK    2  A    between atoms: C_3  and  C_1 
REMARK    3  A    between atoms: C_4  and  C_2 
REMARK    4  A    between atoms: N_8  and  C_3 
REMARK    5  A    between atoms: C_5  and  C_4 
REMARK    6  A    between atoms: C_4  and  N_6 
REMARK    7  A    between atoms: O_11  and  C_5 
REMARK    8  A    between atoms: P_16  and  N_7 
REMARK    9  A    between atoms: P_16  and  N_8 
REMARK   10  A    between atoms: P_16  and  N_9 
REMARK   11  A    between atoms: S_17  and  N_9 
REMARK   12  A    between atoms: S_17  and  O_13 
ROOT
HETATM    1  N   UNK N   1      35.698  12.736  11.586  0.00  0.00    -0.339 N 
HETATM    2  H   UNK N   1      34.831  12.203  11.649  0.00  0.00     0.164 HD
ENDROOT
BRANCH   1   3
HETATM    3  C   UNK N   1      37.038  12.163  11.488  0.00  0.00     0.124 C 
BRANCH   3   4
HETATM    4  C   UNK N   1      37.644  11.899  12.863  0.00  0.00     0.022 C 
BRANCH   4   5
HETATM    5  C   UNK N   1      36.618  11.224  13.773  0.00  0.00     0.037 C 
BRANCH   5   6
HETATM    6  C   UNK N   1      36.301  12.048  15.022  0.00  0.00     0.173 C 
BRANCH   6   7
HETATM    7  C   UNK N   1      34.855  12.459  15.008  0.00  0.00     0.163 C 
HETATM    8  O   UNK N   1      34.110  12.087  14.106  0.00  0.00    -0.648 OA
BRANCH   7   9
HETATM    9  O   UNK N   1      34.372  13.257  15.975  0.00  0.00    -0.775 OA
HETATM   10  H   UNK N   1      33.469  13.507  15.984  0.00  0.00     0.167 HD
ENDBRANCH   7   9
ENDBRANCH   6   7
BRANCH   6  11
HETATM   11  N   UNK N   1      37.173  13.212  15.072  0.00  0.00    -0.418 N 
HETATM   12  H   UNK N   1      37.074  13.962  14.389  0.00  0.00     0.150 HD
HETATM   13  H   UNK N   1      37.889  13.277  15.796  0.00  0.00     0.150 HD
ENDBRANCH   6  11
ENDBRANCH   5   6
ENDBRANCH   4   5
ENDBRANCH   3   4
ENDBRANCH   1   3
BRANCH   1  14
HETATM   14  P   UNK N   1      35.822  14.539  11.573  0.00  0.00     0.354 P 
HETATM   15  O   UNK N   1      36.119  15.011  13.022  0.00  0.00    -0.249 OA
BRANCH  14  16
HETATM   16  N   UNK N   1      37.208  15.076  10.564  0.00  0.00    -0.348 N 
HETATM   17  H   UNK N   1      37.645  15.114   9.644  0.00  0.00     0.160 HD
HETATM   18  H   UNK N   1      37.843  15.562  11.197  0.00  0.00     0.160 HD
ENDBRANCH  14  16
BRANCH  14  19
HETATM   19  N   UNK N   1      34.277  15.339  11.095  0.00  0.00    -0.220 N 
HETATM   20  H   UNK N   1      33.376  15.156  11.534  0.00  0.00     0.185 HD
BRANCH  19  21
HETATM   21  S   UNK N   1      34.529  16.482   9.766  0.00  0.00     0.202 S 
HETATM   22  O   UNK N   1      35.169  15.697   8.609  0.00  0.00    -0.585 OA
HETATM   23  O   UNK N   1      35.602  17.501  10.174  0.00  0.00    -0.585 OA
BRANCH  21  24
HETATM   24  O   UNK N   1      33.133  17.288   9.174  0.00  0.00    -0.279 OA
HETATM   25  H   UNK N   1      33.017  17.991   8.515  0.00  0.00     0.234 HD
ENDBRANCH  21  24
ENDBRANCH  19  21
ENDBRANCH  14  19
ENDBRANCH   1  14
TORSDOF 12
ENDMDL
