REMARK  18 active torsions:
REMARK  status: ('A' for Active; 'I' for Inactive)
REMARK    1  A    between atoms: C_7  and  C_5 
REMARK    2  A    between atoms: C_11  and  C_5 
REMARK    3  A    between atoms: C_8  and  C_6 
REMARK    4  A    between atoms: C_14  and  C_6 
REMARK    5  A    between atoms: N_22  and  C_7 
REMARK    6  A    between atoms: N_20  and  C_8 
REMARK    7  A    between atoms: C_15  and  C_9 
REMARK    8  A    between atoms: C_13  and  C_10 
REMARK    9  A    between atoms: O_28  and  C_10 
REMARK   10  A    between atoms: N_24  and  C_12 
REMARK   11  A    between atoms: C_16  and  C_13 
REMARK   12  A    between atoms: C_13  and  N_26 
REMARK   13  A    between atoms: C_14  and  O_29 
REMARK   14  A    between atoms: O_30  and  C_15 
REMARK   15  A    between atoms: O_31  and  C_16 
REMARK   16  A    between atoms: C_18  and  C_17 
REMARK   17  A    between atoms: O_32  and  C_17 
REMARK   18  A    between atoms: O_33  and  C_18 
ROOT
HETATM    1  C   UNK N   1      -0.400  -3.366  -0.079  0.00  0.00     0.136 C 
HETATM    2  N   UNK N   1       0.546  -2.537  -0.354  0.00  0.00    -0.372 N 
ATOM      3  HN  UNK N   1       0.294  -1.548  -0.343  1.00  0.00     0.161 HD
ENDROOT
BRANCH   1   4
HETATM    4  C   UNK N   1      -0.221  -4.873  -0.120  0.00  0.00     0.181 C 
BRANCH   4   5
HETATM    5  C   UNK N   1       0.797  -5.308   0.926  0.00  0.00     0.197 C 
BRANCH   5   6
HETATM    6  O   UNK N   1       0.986  -6.691   0.871  0.00  0.00    -0.398 OA
HETATM    7  H   UNK N   1       0.220  -7.285   0.833  0.00  0.00     0.209 HD
ENDBRANCH   5   6
ENDBRANCH   4   5
BRANCH   4   8
HETATM    8  N   UNK N   1      -1.485  -5.544   0.152  0.00  0.00    -0.360 N 
HETATM    9  C   UNK N   1      -2.515  -5.464  -0.627  0.00  0.00     0.113 C 
ATOM     10  HN  UNK N   1      -1.563  -6.105   1.000  1.00  0.00     0.162 HD
BRANCH   9  11
HETATM   11  C   UNK N   1      -3.781  -6.167  -0.266  0.00  0.00     0.103 C 
BRANCH  11  12
HETATM   12  C   UNK N   1      -4.528  -5.387   0.801  0.00  0.00     0.129 C 
BRANCH  12  13
HETATM   13  N   UNK N   1      -5.894  -5.201   0.378  0.00  0.00    -0.373 N 
HETATM   14  C   UNK N   1      -6.327  -4.060  -0.031  0.00  0.00     0.121 C 
ATOM     15  HN  UNK N   1      -6.534  -5.995   0.404  1.00  0.00     0.161 HD
BRANCH  14  16
HETATM   16  C   UNK N   1      -7.744  -3.927  -0.481  0.00  0.00     0.168 C 
HETATM   17 Br   UNK N   1      -8.667  -2.587   0.568  0.00  0.00    -0.088 Br
ENDBRANCH  14  16
BRANCH  14  18
HETATM   18  O   UNK N   1      -5.506  -2.989  -0.087  0.00  0.00    -0.349 OA
HETATM   19  H   UNK N   1      -4.578  -3.111  -0.125  0.00  0.00     0.219 HD
ENDBRANCH  14  18
ENDBRANCH  12  13
ENDBRANCH  11  12
ENDBRANCH   9  11
BRANCH   9  20
HETATM   20  O   UNK N   1      -2.464  -4.753  -1.774  0.00  0.00    -0.349 OA
HETATM   21  H   UNK N   1      -2.018  -4.538  -2.570  0.00  0.00     0.219 HD
ENDBRANCH   9  20
ENDBRANCH   4   8
ENDBRANCH   1   4
BRANCH   1  22
HETATM   22  O   UNK N   1      -1.607  -2.857   0.243  0.00  0.00    -0.348 OA
HETATM   23  H   UNK N   1      -1.720  -1.954   0.467  0.00  0.00     0.219 HD
ENDBRANCH   1  22
BRANCH   2  24
HETATM   24  C   UNK N   1       1.923  -2.838  -0.675  0.00  0.00     0.126 C 
BRANCH  24  25
HETATM   25  C   UNK N   1       2.858  -1.929   0.156  0.00  0.00     0.058 C 
BRANCH  25  26
HETATM   26  C   UNK N   1       2.452  -0.472   0.155  0.00  0.00    -0.057 A 
HETATM   27  C   UNK N   1       3.332   0.537  -0.265  0.00  0.00     0.009 A 
HETATM   28  C   UNK N   1       2.909   1.881  -0.274  0.00  0.00     0.030 A 
HETATM   29  C   UNK N   1       1.601   2.216   0.117  0.00  0.00     0.034 A 
HETATM   30  C   UNK N   1       0.749   1.201   0.565  0.00  0.00     0.030 A 
HETATM   31  C   UNK N   1       1.175  -0.115   0.597  0.00  0.00     0.009 A 
BRANCH  29  32
HETATM   32  N   UNK N   1       1.163   3.575   0.060  0.00  0.00    -0.332 N 
HETATM   33  C   UNK N   1      -0.073   3.964   0.121  0.00  0.00     0.216 C 
ATOM     34  HN  UNK N   1       1.878   4.296  -0.036  1.00  0.00     0.168 HD
BRANCH  33  35
HETATM   35  C   UNK N   1      -0.401   5.399   0.087  0.00  0.00     0.219 C 
HETATM   36  O   UNK N   1      -1.565   5.760   0.111  0.00  0.00    -0.643 OA
BRANCH  35  37
HETATM   37  O   UNK N   1       0.582   6.320   0.034  0.00  0.00    -0.770 OA
HETATM   38  H   UNK N   1       1.478   6.048  -0.003  0.00  0.00     0.168 HD
ENDBRANCH  35  37
ENDBRANCH  33  35
BRANCH  33  39
HETATM   39  O   UNK N   1      -1.090   3.075   0.193  0.00  0.00    -0.341 OA
HETATM   40  H   UNK N   1      -1.975   3.376   0.243  0.00  0.00     0.219 HD
ENDBRANCH  33  39
ENDBRANCH  29  32
ENDBRANCH  25  26
ENDBRANCH  24  25
ENDBRANCH   2  24
TORSDOF 18
