REMARK WARNING: 32 MAX_TORS EXCEEDED!!!
REMARK  48 active torsions:
REMARK  status: ('A' for Active; 'I' for Inactive)
REMARK    1  A    between atoms: C_3  and  C_1 
REMARK    2  A    between atoms: C_11  and  C_1 
REMARK    3  A    between atoms: C_4  and  C_2 
REMARK    4  A    between atoms: C_12  and  C_2 
REMARK    5  A    between atoms: C_13  and  C_3 
REMARK    6  A    between atoms: C_14  and  C_4 
REMARK    7  A    between atoms: C_15  and  C_5 
REMARK    8  A    between atoms: C_17  and  C_5 
REMARK    9  A    between atoms: C_16  and  C_6 
REMARK   10  A    between atoms: C_18  and  C_6 
REMARK   11  A    between atoms: C_9  and  C_7 
REMARK   12  A    between atoms: C_23  and  C_7 
REMARK   13  A    between atoms: C_10  and  C_8 
REMARK   14  A    between atoms: C_24  and  C_8 
REMARK   15  A    between atoms: C_27  and  C_9 
REMARK   16  A    between atoms: C_28  and  C_10 
REMARK   17  A    between atoms: N_35  and  C_11 
REMARK   18  A    between atoms: N_36  and  C_12 
REMARK   19  A    between atoms: N_39  and  C_13 
REMARK   20  A    between atoms: N_40  and  C_14 
REMARK   21  A    between atoms: N_39  and  C_15 
REMARK   22  A    between atoms: N_40  and  C_16 
REMARK   23  A    between atoms: N_41  and  C_17 
REMARK   24  A    between atoms: N_43  and  C_18 
REMARK   25  A    between atoms: C_29  and  C_19 
REMARK   26  A    between atoms: N_45  and  C_19 
REMARK   27  A    between atoms: C_30  and  C_20 
REMARK   28  A    between atoms: N_47  and  C_20 
REMARK   29  A    between atoms: C_25  and  C_21 
REMARK   30  A    between atoms: S_63  and  C_21 
REMARK   31  A    between atoms: C_26  and  C_22 
REMARK   32  A    between atoms: S_64  and  C_22 
REMARK   33  A    between atoms: C_33  and  C_23 
REMARK   34  A    between atoms: C_23  and  N_37 
REMARK   35  A    between atoms: C_34  and  C_24 
REMARK   36  A    between atoms: C_24  and  N_38 
REMARK   37  A    between atoms: C_31  and  C_25 
REMARK   38  A    between atoms: C_25  and  N_49 
REMARK   39  A    between atoms: C_32  and  C_26 
REMARK   40  A    between atoms: C_26  and  N_51 
REMARK   41  A    between atoms: C_27  and  O_53 
REMARK   42  A    between atoms: C_28  and  O_54 
REMARK   43  A    between atoms: O_56  and  C_30 
REMARK   44  A    between atoms: O_57  and  C_31 
REMARK   45  A    between atoms: O_58  and  C_32 
REMARK   46  A    between atoms: O_60  and  C_33 
REMARK   47  A    between atoms: O_62  and  C_34 
REMARK   48  A    between atoms: S_64  and  S_63 
ROOT
HETATM    1  C   UNK N   1      -7.705  -1.464   1.197  0.00  0.00     0.129 C 
HETATM    2  N   UNK N   1      -8.790  -1.401   0.508  0.00  0.00    -0.373 N 
ATOM      3  HN  UNK N   1      -9.679  -1.420   1.007  1.00  0.00     0.161 HD
HETATM    4  O   UNK N   1      -7.789  -1.563   2.536  0.00  0.00    -0.348 OA
HETATM    5  H   UNK N   1      -7.879  -1.547   3.468  0.00  0.00     0.219 HD
ENDROOT
BRANCH   1   6
HETATM    6  C   UNK N   1      -6.340  -1.345   0.574  0.00  0.00     0.205 C 
BRANCH   6   7
HETATM    7  N   UNK N   1      -5.893  -2.480  -0.213  0.00  0.00    -0.365 N 
HETATM    8  C   UNK N   1      -5.681  -3.658   0.278  0.00  0.00     0.135 C 
ATOM      9  HN  UNK N   1      -5.737  -2.340  -1.212  1.00  0.00     0.161 HD
BRANCH   8  10
HETATM   10  C   UNK N   1      -5.095  -4.746  -0.606  0.00  0.00     0.168 C 
BRANCH  10  11
HETATM   11  C   UNK N   1      -3.690  -4.420  -1.136  0.00  0.00     0.119 C 
BRANCH  11  12
HETATM   12  S   UNK N   1      -3.508  -2.983  -2.225  0.00  0.00    -0.095 SA
BRANCH  12  13
HETATM   13  S   UNK N   1      -1.418  -3.004  -1.790  0.00  0.00    -0.095 SA
BRANCH  13  14
HETATM   14  C   UNK N   1      -1.374  -1.284  -1.195  0.00  0.00     0.119 C 
BRANCH  14  15
HETATM   15  C   UNK N   1      -1.999  -1.051   0.186  0.00  0.00     0.168 C 
BRANCH  15  16
HETATM   16  C   UNK N   1      -2.767   0.232   0.082  0.00  0.00     0.135 C 
HETATM   17  N   UNK N   1      -2.135   1.305  -0.233  0.00  0.00    -0.365 N 
ATOM     18  HN  UNK N   1      -1.139   1.232  -0.441  1.00  0.00     0.161 HD
BRANCH  17  19
HETATM   19  C   UNK N   1      -2.749   2.600  -0.309  0.00  0.00     0.205 C 
BRANCH  19  20
HETATM   20  C   UNK N   1      -1.751   3.746  -0.218  0.00  0.00     0.129 C 
HETATM   21  N   UNK N   1      -0.473   3.609  -0.030  0.00  0.00    -0.373 N 
ATOM     22  HN  UNK N   1       0.086   4.462  -0.006  1.00  0.00     0.161 HD
BRANCH  21  23
HETATM   23  C   UNK N   1       0.229   2.359   0.150  0.00  0.00     0.123 C 
BRANCH  23  24
HETATM   24  C   UNK N   1       1.166   2.105  -1.018  0.00  0.00     0.039 C 
BRANCH  24  25
HETATM   25  C   UNK N   1       2.504   2.780  -0.785  0.00  0.00     0.115 C 
BRANCH  25  26
HETATM   26  N   UNK N   1       3.210   2.109   0.293  0.00  0.00    -0.421 N 
HETATM   27  H   UNK N   1       2.816   1.426   0.942  0.00  0.00     0.153 HD
BRANCH  26  28
HETATM   28  C   UNK N   1       4.578   2.590   0.275  0.00  0.00     0.113 C 
BRANCH  28  29
HETATM   29  C   UNK N   1       5.489   1.520  -0.291  0.00  0.00     0.021 C 
BRANCH  29  30
HETATM   30  C   UNK N   1       6.554   1.176   0.732  0.00  0.00     0.021 C 
BRANCH  30  31
HETATM   31  C   UNK N   1       7.641   0.331   0.095  0.00  0.00     0.111 C 
BRANCH  31  32
HETATM   32  N   UNK N   1       8.462   1.156  -0.774  0.00  0.00    -0.430 N 
HETATM   33  H   UNK N   1       9.252   0.947  -1.384  0.00  0.00     0.149 HD
HETATM   34  H   UNK N   1       8.196   2.141  -0.774  0.00  0.00     0.149 HD
ENDBRANCH  31  32
ENDBRANCH  30  31
ENDBRANCH  29  30
ENDBRANCH  28  29
ENDBRANCH  26  28
ENDBRANCH  25  26
ENDBRANCH  24  25
ENDBRANCH  23  24
ENDBRANCH  21  23
BRANCH  20  35
HETATM   35  O   UNK N   1      -2.243   4.992  -0.338  0.00  0.00    -0.348 OA
HETATM   36  H   UNK N   1      -1.663   5.723  -0.421  0.00  0.00     0.219 HD
ENDBRANCH  20  35
ENDBRANCH  19  20
ENDBRANCH  17  19
BRANCH  16  37
HETATM   37  O   UNK N   1      -4.084   0.268   0.352  0.00  0.00    -0.348 OA
HETATM   38  H   UNK N   1      -4.522   1.075   0.540  0.00  0.00     0.219 HD
ENDBRANCH  16  37
ENDBRANCH  15  16
BRANCH  15  39
HETATM   39  N   UNK N   1      -1.005  -0.837   1.228  0.00  0.00    -0.362 N 
HETATM   40  C   UNK N   1      -0.158  -1.689   1.698  0.00  0.00     0.111 C 
ATOM     41  HN  UNK N   1      -0.975   0.098   1.636  1.00  0.00     0.162 HD
BRANCH  40  42
HETATM   42  C   UNK N   1      -0.064  -3.091   1.183  0.00  0.00     0.086 C 
BRANCH  42  43
HETATM   43  C   UNK N   1       1.384  -3.527   0.931  0.00  0.00     0.043 C 
BRANCH  43  44
HETATM   44  C   UNK N   1       2.060  -2.880  -0.280  0.00  0.00     0.173 C 
BRANCH  44  45
HETATM   45  C   UNK N   1       2.985  -1.761   0.131  0.00  0.00     0.163 C 
HETATM   46  O   UNK N   1       2.542  -0.773   0.691  0.00  0.00    -0.648 OA
BRANCH  45  47
HETATM   47  O   UNK N   1       4.305  -1.832  -0.139  0.00  0.00    -0.775 OA
HETATM   48  H   UNK N   1       4.721  -2.650  -0.326  0.00  0.00     0.167 HD
ENDBRANCH  45  47
ENDBRANCH  44  45
BRANCH  44  49
HETATM   49  N   UNK N   1       2.816  -3.910  -0.972  0.00  0.00    -0.418 N 
HETATM   50  H   UNK N   1       2.455  -4.731  -1.458  0.00  0.00     0.150 HD
HETATM   51  H   UNK N   1       3.830  -3.799  -0.972  0.00  0.00     0.150 HD
ENDBRANCH  44  49
ENDBRANCH  43  44
ENDBRANCH  42  43
ENDBRANCH  40  42
BRANCH  40  52
HETATM   52  O   UNK N   1       0.638  -1.315   2.718  0.00  0.00    -0.350 OA
HETATM   53  H   UNK N   1       1.141  -1.665   3.427  0.00  0.00     0.219 HD
ENDBRANCH  40  52
ENDBRANCH  15  39
ENDBRANCH  14  15
ENDBRANCH  13  14
ENDBRANCH  12  13
ENDBRANCH  11  12
ENDBRANCH  10  11
BRANCH  10  54
HETATM   54  N   UNK N   1      -5.054  -6.034   0.085  0.00  0.00    -0.362 N 
HETATM   55  C   UNK N   1      -4.129  -6.417   0.912  0.00  0.00     0.111 C 
ATOM     56  HN  UNK N   1      -5.816  -6.687  -0.099  1.00  0.00     0.162 HD
BRANCH  55  57
HETATM   57  C   UNK N   1      -4.199  -7.778   1.536  0.00  0.00     0.086 C 
BRANCH  57  58
HETATM   58  C   UNK N   1      -4.344  -8.909   0.513  0.00  0.00     0.043 C 
BRANCH  58  59
HETATM   59  C   UNK N   1      -3.226  -9.004  -0.528  0.00  0.00     0.173 C 
BRANCH  59  60
HETATM   60  C   UNK N   1      -1.888  -9.258   0.107  0.00  0.00     0.163 C 
HETATM   61  O   UNK N   1      -0.971  -8.471  -0.062  0.00  0.00    -0.648 OA
BRANCH  60  62
HETATM   62  O   UNK N   1      -1.690 -10.364   0.851  0.00  0.00    -0.775 OA
HETATM   63  H   UNK N   1      -2.288 -10.868   1.369  0.00  0.00     0.167 HD
ENDBRANCH  60  62
ENDBRANCH  59  60
BRANCH  59  64
HETATM   64  N   UNK N   1      -3.533 -10.094  -1.437  0.00  0.00    -0.418 N 
HETATM   65  H   UNK N   1      -4.304 -10.290  -2.075  0.00  0.00     0.150 HD
HETATM   66  H   UNK N   1      -2.821 -10.825  -1.437  0.00  0.00     0.150 HD
ENDBRANCH  59  64
ENDBRANCH  58  59
ENDBRANCH  57  58
ENDBRANCH  55  57
BRANCH  55  67
HETATM   67  O   UNK N   1      -3.077  -5.625   1.209  0.00  0.00    -0.350 OA
HETATM   68  H   UNK N   1      -2.236  -5.983   1.415  0.00  0.00     0.219 HD
ENDBRANCH  55  67
ENDBRANCH  10  54
ENDBRANCH   8  10
BRANCH   8  69
HETATM   69  O   UNK N   1      -5.981  -3.922   1.567  0.00  0.00    -0.348 OA
HETATM   70  H   UNK N   1      -6.244  -3.834   2.462  0.00  0.00     0.219 HD
ENDBRANCH   8  69
ENDBRANCH   6   7
ENDBRANCH   1   6
BRANCH   2  71
HETATM   71  C   UNK N   1      -8.819  -1.303  -0.930  0.00  0.00     0.123 C 
BRANCH  71  72
HETATM   72  C   UNK N   1     -10.012  -2.084  -1.471  0.00  0.00     0.039 C 
BRANCH  72  73
HETATM   73  C   UNK N   1     -10.023  -3.536  -0.993  0.00  0.00     0.115 C 
BRANCH  73  74
HETATM   74  N   UNK N   1     -10.416  -3.604   0.410  0.00  0.00    -0.421 N 
HETATM   75  H   UNK N   1      -9.855  -3.282   1.199  0.00  0.00     0.153 HD
BRANCH  74  76
HETATM   76  C   UNK N   1     -11.738  -4.206   0.503  0.00  0.00     0.113 C 
BRANCH  76  77
HETATM   77  C   UNK N   1     -12.825  -3.152   0.362  0.00  0.00     0.021 C 
BRANCH  77  78
HETATM   78  C   UNK N   1     -13.164  -2.962  -1.106  0.00  0.00     0.021 C 
BRANCH  78  79
HETATM   79  C   UNK N   1     -14.354  -2.038  -1.265  0.00  0.00     0.111 C 
BRANCH  79  80
HETATM   80  N   UNK N   1     -15.576  -2.746  -0.927  0.00  0.00    -0.430 N 
HETATM   81  H   UNK N   1     -16.435  -2.251  -0.689  0.00  0.00     0.149 HD
HETATM   82  H   UNK N   1     -15.574  -3.766  -0.927  0.00  0.00     0.149 HD
ENDBRANCH  79  80
ENDBRANCH  78  79
ENDBRANCH  77  78
ENDBRANCH  76  77
ENDBRANCH  74  76
ENDBRANCH  73  74
ENDBRANCH  72  73
ENDBRANCH  71  72
ENDBRANCH   2  71
TORSDOF 48
