MODEL 1
REMARK VINA RESULT:      -3.9      0.000      0.000
REMARK  2 active torsions:
REMARK  status: ('A' for Active; 'I' for Inactive)
REMARK    1  A    between atoms: C_2  and  O_5 
REMARK    2  A    between atoms: O_5  and  C_6 
ROOT
HETATM    1  C   UNK N   1      31.783  17.010   6.097  0.00  0.00     0.045 C 
HETATM    2  C   UNK N   1      33.181  17.567   6.262  0.00  0.00     0.059 C 
HETATM    3  C   UNK N   1      33.350  17.510   4.747  0.00  0.00     0.045 C 
HETATM    4  C   UNK N   1      32.470  17.398   7.587  0.00  0.00     0.045 C 
ENDROOT
BRANCH   2   5
HETATM    5  O   UNK N   1      34.324  18.062   6.892  0.00  0.00    -0.318 OA
BRANCH   5   6
HETATM    6  C   UNK N   1      34.563  18.393   8.196  0.00  0.00     0.398 C 
HETATM    7  O   UNK N   1      35.340  19.275   8.520  0.00  0.00    -0.276 OA
ENDBRANCH   5   6
ENDBRANCH   2   5
TORSDOF 2
ENDMDL
MODEL 2
REMARK VINA RESULT:      -3.6     12.562     13.587
REMARK  2 active torsions:
REMARK  status: ('A' for Active; 'I' for Inactive)
REMARK    1  A    between atoms: C_2  and  O_5 
REMARK    2  A    between atoms: O_5  and  C_6 
ROOT
HETATM    1  C   UNK N   1      24.474  12.022  11.287  0.00  0.00     0.045 C 
HETATM    2  C   UNK N   1      22.971  12.096  11.454  0.00  0.00     0.059 C 
HETATM    3  C   UNK N   1      23.156  11.856  12.949  0.00  0.00     0.045 C 
HETATM    4  C   UNK N   1      23.399  12.287  10.015  0.00  0.00     0.045 C 
ENDROOT
BRANCH   2   5
HETATM    5  O   UNK N   1      21.624  12.238  11.114  0.00  0.00    -0.318 OA
BRANCH   5   6
HETATM    6  C   UNK N   1      21.003  13.049  10.207  0.00  0.00     0.398 C 
HETATM    7  O   UNK N   1      19.825  13.351  10.292  0.00  0.00    -0.276 OA
ENDBRANCH   5   6
ENDBRANCH   2   5
TORSDOF 2
ENDMDL
MODEL 3
REMARK VINA RESULT:      -3.5     14.899     15.866
REMARK  2 active torsions:
REMARK  status: ('A' for Active; 'I' for Inactive)
REMARK    1  A    between atoms: C_2  and  O_5 
REMARK    2  A    between atoms: O_5  and  C_6 
ROOT
HETATM    1  C   UNK N   1      24.945  27.096  -5.708  0.00  0.00     0.045 C 
HETATM    2  C   UNK N   1      25.658  26.698  -4.433  0.00  0.00     0.059 C 
HETATM    3  C   UNK N   1      25.633  28.160  -3.999  0.00  0.00     0.045 C 
HETATM    4  C   UNK N   1      25.396  25.514  -5.339  0.00  0.00     0.045 C 
ENDROOT
BRANCH   2   5
HETATM    5  O   UNK N   1      26.276  25.885  -3.481  0.00  0.00    -0.318 OA
BRANCH   5   6
HETATM    6  C   UNK N   1      26.794  24.625  -3.573  0.00  0.00     0.398 C 
HETATM    7  O   UNK N   1      26.903  23.885  -2.609  0.00  0.00    -0.276 OA
ENDBRANCH   5   6
ENDBRANCH   2   5
TORSDOF 2
ENDMDL
MODEL 4
REMARK VINA RESULT:      -3.5      1.043      2.027
REMARK  2 active torsions:
REMARK  status: ('A' for Active; 'I' for Inactive)
REMARK    1  A    between atoms: C_2  and  O_5 
REMARK    2  A    between atoms: O_5  and  C_6 
ROOT
HETATM    1  C   UNK N   1      31.439  16.982   6.593  0.00  0.00     0.045 C 
HETATM    2  C   UNK N   1      32.193  17.658   7.718  0.00  0.00     0.059 C 
HETATM    3  C   UNK N   1      30.897  17.701   8.520  0.00  0.00     0.045 C 
HETATM    4  C   UNK N   1      33.084  17.350   6.534  0.00  0.00     0.045 C 
ENDROOT
BRANCH   2   5
HETATM    5  O   UNK N   1      33.258  18.223   8.423  0.00  0.00    -0.318 OA
BRANCH   5   6
HETATM    6  C   UNK N   1      34.584  18.337   8.114  0.00  0.00     0.398 C 
HETATM    7  O   UNK N   1      35.281  19.248   8.530  0.00  0.00    -0.276 OA
ENDBRANCH   5   6
ENDBRANCH   2   5
TORSDOF 2
ENDMDL
MODEL 5
REMARK VINA RESULT:      -3.2      8.183      9.291
REMARK  2 active torsions:
REMARK  status: ('A' for Active; 'I' for Inactive)
REMARK    1  A    between atoms: C_2  and  O_5 
REMARK    2  A    between atoms: O_5  and  C_6 
ROOT
HETATM    1  C   UNK N   1      27.860  20.165   4.820  0.00  0.00     0.045 C 
HETATM    2  C   UNK N   1      26.376  20.461   4.812  0.00  0.00     0.059 C 
HETATM    3  C   UNK N   1      26.555  21.242   6.109  0.00  0.00     0.045 C 
HETATM    4  C   UNK N   1      26.802  19.626   3.624  0.00  0.00     0.045 C 
ENDROOT
BRANCH   2   5
HETATM    5  O   UNK N   1      25.046  20.461   4.385  0.00  0.00    -0.318 OA
BRANCH   5   6
HETATM    6  C   UNK N   1      24.500  20.562   3.137  0.00  0.00     0.398 C 
HETATM    7  O   UNK N   1      23.454  21.151   2.921  0.00  0.00    -0.276 OA
ENDBRANCH   5   6
ENDBRANCH   2   5
TORSDOF 2
ENDMDL
MODEL 6
REMARK VINA RESULT:      -3.1      9.114     10.255
REMARK  2 active torsions:
REMARK  status: ('A' for Active; 'I' for Inactive)
REMARK    1  A    between atoms: C_2  and  O_5 
REMARK    2  A    between atoms: O_5  and  C_6 
ROOT
HETATM    1  C   UNK N   1      36.721  14.014  15.411  0.00  0.00     0.045 C 
HETATM    2  C   UNK N   1      35.465  13.230  15.096  0.00  0.00     0.059 C 
HETATM    3  C   UNK N   1      35.279  12.987  16.590  0.00  0.00     0.045 C 
HETATM    4  C   UNK N   1      36.135  13.765  13.849  0.00  0.00     0.045 C 
ENDROOT
BRANCH   2   5
HETATM    5  O   UNK N   1      34.449  12.636  14.344  0.00  0.00    -0.318 OA
BRANCH   5   6
HETATM    6  C   UNK N   1      34.146  11.325  14.115  0.00  0.00     0.398 C 
HETATM    7  O   UNK N   1      33.153  10.788  14.576  0.00  0.00    -0.276 OA
ENDBRANCH   5   6
ENDBRANCH   2   5
TORSDOF 2
ENDMDL
MODEL 7
REMARK VINA RESULT:      -3.1      9.155     10.022
REMARK  2 active torsions:
REMARK  status: ('A' for Active; 'I' for Inactive)
REMARK    1  A    between atoms: C_2  and  O_5 
REMARK    2  A    between atoms: O_5  and  C_6 
ROOT
HETATM    1  C   UNK N   1      34.927  10.786  16.319  0.00  0.00     0.045 C 
HETATM    2  C   UNK N   1      34.565  11.789  15.245  0.00  0.00     0.059 C 
HETATM    3  C   UNK N   1      33.548  10.793  14.699  0.00  0.00     0.045 C 
HETATM    4  C   UNK N   1      35.643  12.305  16.173  0.00  0.00     0.045 C 
ENDROOT
BRANCH   2   5
HETATM    5  O   UNK N   1      34.584  12.971  14.500  0.00  0.00    -0.318 OA
BRANCH   5   6
HETATM    6  C   UNK N   1      35.209  13.287  13.328  0.00  0.00     0.398 C 
HETATM    7  O   UNK N   1      34.754  14.096  12.537  0.00  0.00    -0.276 OA
ENDBRANCH   5   6
ENDBRANCH   2   5
TORSDOF 2
ENDMDL
MODEL 8
REMARK VINA RESULT:      -3.0      2.274      2.832
REMARK  2 active torsions:
REMARK  status: ('A' for Active; 'I' for Inactive)
REMARK    1  A    between atoms: C_2  and  O_5 
REMARK    2  A    between atoms: O_5  and  C_6 
ROOT
HETATM    1  C   UNK N   1      34.014  17.178   6.318  0.00  0.00     0.045 C 
HETATM    2  C   UNK N   1      34.393  16.929   7.763  0.00  0.00     0.059 C 
HETATM    3  C   UNK N   1      33.851  18.311   8.111  0.00  0.00     0.045 C 
HETATM    4  C   UNK N   1      34.740  15.759   6.868  0.00  0.00     0.045 C 
ENDROOT
BRANCH   2   5
HETATM    5  O   UNK N   1      34.894  16.270   8.888  0.00  0.00    -0.318 OA
BRANCH   5   6
HETATM    6  C   UNK N   1      35.146  16.714  10.154  0.00  0.00     0.398 C 
HETATM    7  O   UNK N   1      36.264  16.715  10.641  0.00  0.00    -0.276 OA
ENDBRANCH   5   6
ENDBRANCH   2   5
TORSDOF 2
ENDMDL
MODEL 9
REMARK VINA RESULT:      -3.0     11.226     12.465
REMARK  2 active torsions:
REMARK  status: ('A' for Active; 'I' for Inactive)
REMARK    1  A    between atoms: C_2  and  O_5 
REMARK    2  A    between atoms: O_5  and  C_6 
ROOT
HETATM    1  C   UNK N   1      29.524  21.674  -6.054  0.00  0.00     0.045 C 
HETATM    2  C   UNK N   1      30.012  22.186  -4.716  0.00  0.00     0.059 C 
HETATM    3  C   UNK N   1      30.840  20.914  -4.566  0.00  0.00     0.045 C 
HETATM    4  C   UNK N   1      29.058  23.151  -5.387  0.00  0.00     0.045 C 
ENDROOT
BRANCH   2   5
HETATM    5  O   UNK N   1      30.163  23.036  -3.619  0.00  0.00    -0.318 OA
BRANCH   5   6
HETATM    6  C   UNK N   1      29.706  22.941  -2.335  0.00  0.00     0.398 C 
HETATM    7  O   UNK N   1      30.440  23.030  -1.366  0.00  0.00    -0.276 OA
ENDBRANCH   5   6
ENDBRANCH   2   5
TORSDOF 2
ENDMDL
