REMARK  6 active torsions:
REMARK  status: ('A' for Active; 'I' for Inactive)
REMARK    1  A    between atoms: C_4  and  C_1 
REMARK    2  A    between atoms: O_18  and  C_1 
REMARK    3  A    between atoms: C_6  and  O_19 
REMARK    4  A    between atoms: C_7  and  O_20 
REMARK    5  A    between atoms: Se_22  and  C_9 
REMARK    6  A    between atoms: C_10  and  N_17 
ROOT
HETATM    1  C   UNK N   1       5.241   0.533   0.631  0.00  0.00     0.182 A 
HETATM    2  C   UNK N   1       0.998  -0.359  -0.250  0.00  0.00     0.188 A 
HETATM    3  C   UNK N   1       3.057  -0.921  -0.098  0.00  0.00     0.107 A 
HETATM    4  C   UNK N   1       2.940   0.365   0.279  0.00  0.00     0.141 A 
HETATM    5  C   UNK N   1       4.301  -1.531  -0.116  0.00  0.00     0.093 A 
HETATM    6  N   UNK N   1       4.005   1.119   0.646  0.00  0.00    -0.336 N 
ATOM      7  HN  UNK N   1       3.888   2.093   0.926  1.00  0.00     0.168 HD
HETATM    8  N   UNK N   1       5.383  -0.781   0.252  0.00  0.00    -0.348 N 
ATOM      9  HN  UNK N   1       6.312  -1.203   0.246  1.00  0.00     0.167 HD
HETATM   10  N   UNK N   1       1.847  -1.410  -0.429  0.00  0.00    -0.347 N 
ATOM     11  HN  UNK N   1       1.618  -2.353  -0.743  1.00  0.00     0.167 HD
HETATM   12  N   UNK N   1       1.662   0.746   0.188  0.00  0.00    -0.297 N 
ENDROOT
BRANCH  12  13
HETATM   13  C   UNK N   1       1.139   2.085   0.483  0.00  0.00     0.262 C 
HETATM   14  C   UNK N   1      -0.317   2.302   0.035  0.00  0.00     0.198 C 
HETATM   15  C   UNK N   1      -0.332   3.806   0.021  0.00  0.00     0.182 C 
HETATM   16  C   UNK N   1       1.027   4.050  -0.646  0.00  0.00     0.179 C 
HETATM   17  O   UNK N   1       1.926   3.075  -0.159  0.00  0.00    -0.353 OA
BRANCH  14  18
HETATM   18  O   UNK N   1      -0.506   1.834  -1.273  0.00  0.00    -0.388 OA
HETATM   19  H   UNK N   1      -0.852   1.786  -2.178  0.00  0.00     0.210 HD
ENDBRANCH  14  18
BRANCH  15  20
HETATM   20  O   UNK N   1      -0.342   4.280   1.339  0.00  0.00    -0.390 OA
HETATM   21  H   UNK N   1      -0.061   4.451   2.252  0.00  0.00     0.210 HD
ENDBRANCH  15  20
BRANCH  16  22
HETATM   22  C   UNK N   1       1.573   5.466  -0.465  0.00  0.00     0.198 C 
BRANCH  22  23
HETATM   23  O   UNK N   1       1.909   5.714   0.868  0.00  0.00    -0.398 OA
HETATM   24  H   UNK N   1       2.175   5.599   1.793  0.00  0.00     0.209 HD
ENDBRANCH  22  23
ENDBRANCH  16  22
ENDBRANCH  12  13
BRANCH   5  25
HETATM   25 Se   UNK N   1       4.521  -3.358  -0.653  0.00  0.00     0.000 Se
HETATM   26  H   UNK N   1       3.362  -4.228  -1.076  0.00  0.00     0.000 HD
ENDBRANCH   5  25
TORSDOF 6
