REMARK  4 active torsions:
REMARK  status: ('A' for Active; 'I' for Inactive)
REMARK    1  A    between atoms: O_1  and  B_2 
REMARK    2  A    between atoms: B_2  and  O_3 
REMARK    3  A    between atoms: B_2  and  C_4 
REMARK    4  A    between atoms: C_8  and  N_10 
ROOT
HETATM    1  C   UNK N   1       1.677  -0.404  -0.000  0.00  0.00    -0.030 A 
HETATM    2  C   UNK N   1       0.456  -1.084  -0.000  0.00  0.00     0.001 A 
HETATM    3  C   UNK N   1      -0.742  -0.368  -0.000  0.00  0.00     0.002 A 
HETATM    4  C   UNK N   1      -0.719   1.028   0.000  0.00  0.00     0.036 A 
HETATM    5  C   UNK N   1       0.502   1.719   0.000  0.00  0.00     0.102 A 
HETATM    6  C   UNK N   1       1.701   0.992  -0.000  0.00  0.00     0.036 A 
ENDROOT
BRANCH   1   7
HETATM    7  B   UNK N   1       3.009  -1.205  -0.000  0.00  0.00     0.529 B 
BRANCH   7   8
HETATM    8  O   UNK N   1       2.978  -2.664   0.000  0.00  0.00    -0.433 OA
HETATM    9  H   UNK N   1       2.128  -3.131   0.000  0.00  0.00     0.185 HD
ENDBRANCH   7   8
BRANCH   7  10
HETATM   10  O   UNK N   1       4.288  -0.500   0.000  0.00  0.00    -0.433 OA
HETATM   11  H   UNK N   1       5.118  -1.003   0.000  0.00  0.00     0.185 HD
ENDBRANCH   7  10
ENDBRANCH   1   7
BRANCH   5  12
HETATM   12  N   UNK N   1       0.521   3.139   0.000  0.00  0.00    -0.116 N 
HETATM   13  O   UNK N   1      -0.610   3.812   0.000  0.00  0.00    -0.532 OA
HETATM   14  O   UNK N   1       1.557   3.730   0.000  0.00  0.00    -0.532 OA
ENDBRANCH   5  12
TORSDOF 4
