MODEL 1
REMARK VINA RESULT:      -6.0      0.000      0.000
REMARK  11 active torsions:
REMARK  status: ('A' for Active; 'I' for Inactive)
REMARK    1  A    between atoms: N_2  and  C_3 
REMARK    2  A    between atoms: N_2  and  C_27 
REMARK    3  A    between atoms: C_3  and  C_4 
REMARK    4  A    between atoms: C_4  and  C_5 
REMARK    5  A    between atoms: C_5  and  C_6 
REMARK    6  A    between atoms: C_6  and  C_7 
REMARK    7  A    between atoms: C_7  and  C_8 
REMARK    8  A    between atoms: C_8  and  O_9 
REMARK    9  A    between atoms: O_9  and  C_10 
REMARK   10  A    between atoms: C_18  and  C_19 
REMARK   11  A    between atoms: C_27  and  C_28 
ROOT
HETATM    1  C   UNK N   1      26.980  21.746  -8.186  0.00  0.00     0.070 A 
HETATM    2  C   UNK N   1      27.141  22.462  -6.975  0.00  0.00     0.038 A 
HETATM    3  C   UNK N   1      26.765  23.802  -6.874  0.00  0.00     0.018 A 
HETATM    4  C   UNK N   1      26.244  24.441  -7.997  0.00  0.00     0.011 A 
HETATM    5  C   UNK N   1      26.064  23.726  -9.174  0.00  0.00     0.036 A 
HETATM    6  S   UNK N   1      25.498  24.814 -10.257  0.00  0.00    -0.013 SA
HETATM    7  N   UNK N   1      25.460  26.203  -9.363  0.00  0.00    -0.324 N 
ATOM      8  HN  UNK N   1      25.172  27.132  -9.670  1.00  0.00     0.174 HD
HETATM    9  C   UNK N   1      25.901  25.834  -8.115  0.00  0.00     0.060 A 
HETATM   10  C   UNK N   1      26.406  22.382  -9.303  0.00  0.00     0.057 A 
ENDROOT
BRANCH   1  11
HETATM   11  O   UNK N   1      27.438  20.478  -8.296  0.00  0.00    -0.351 OA
BRANCH  11  12
HETATM   12  C   UNK N   1      28.766  20.227  -8.585  0.00  0.00     0.175 C 
BRANCH  12  13
HETATM   13  C   UNK N   1      29.399  19.274  -7.593  0.00  0.00     0.027 C 
BRANCH  13  14
HETATM   14  C   UNK N   1      30.609  19.905  -6.929  0.00  0.00     0.002 C 
BRANCH  14  15
HETATM   15  C   UNK N   1      30.127  20.932  -5.922  0.00  0.00     0.002 C 
BRANCH  15  16
HETATM   16  C   UNK N   1      30.814  22.278  -6.121  0.00  0.00     0.030 C 
BRANCH  16  17
HETATM   17  C   UNK N   1      31.119  23.001  -4.808  0.00  0.00     0.272 C 
BRANCH  17  18
HETATM   18  N   UNK N   1      29.998  22.904  -3.871  0.00  0.00     0.087 N 
HETATM   19  C   UNK N   1      30.473  22.642  -2.516  0.00  0.00     0.310 C 
BRANCH  18  20
HETATM   20  C   UNK N   1      29.171  24.117  -3.916  0.00  0.00     0.298 C 
BRANCH  20  21
HETATM   21  C   UNK N   1      27.803  23.961  -3.301  0.00  0.00    -0.007 C 
HETATM   22  C   UNK N   1      26.882  24.913  -3.413  0.00  0.00     0.008 C 
ENDBRANCH  20  21
ENDBRANCH  18  20
ENDBRANCH  17  18
ENDBRANCH  16  17
ENDBRANCH  15  16
ENDBRANCH  14  15
ENDBRANCH  13  14
ENDBRANCH  12  13
ENDBRANCH  11  12
ENDBRANCH   1  11
BRANCH   9  23
HETATM   23  C   UNK N   1      26.069  26.823  -7.021  0.00  0.00    -0.008 A 
HETATM   24  C   UNK N   1      25.119  26.923  -5.993  0.00  0.00     0.015 A 
HETATM   25  C   UNK N   1      25.302  27.812  -4.934  0.00  0.00     0.020 A 
HETATM   26  C   UNK N   1      26.447  28.604  -4.884  0.00  0.00     0.011 A 
HETATM   27 Br   UNK N   1      26.711  29.783  -3.411  0.00  0.00    -0.051 Br
HETATM   28  C   UNK N   1      27.400  28.521  -5.904  0.00  0.00     0.020 A 
HETATM   29  C   UNK N   1      27.209  27.638  -6.973  0.00  0.00     0.015 A 
ENDBRANCH   9  23
TORSDOF 11
ENDMDL
MODEL 2
REMARK VINA RESULT:      -5.8     16.941     21.402
REMARK  11 active torsions:
REMARK  status: ('A' for Active; 'I' for Inactive)
REMARK    1  A    between atoms: N_2  and  C_3 
REMARK    2  A    between atoms: N_2  and  C_27 
REMARK    3  A    between atoms: C_3  and  C_4 
REMARK    4  A    between atoms: C_4  and  C_5 
REMARK    5  A    between atoms: C_5  and  C_6 
REMARK    6  A    between atoms: C_6  and  C_7 
REMARK    7  A    between atoms: C_7  and  C_8 
REMARK    8  A    between atoms: C_8  and  O_9 
REMARK    9  A    between atoms: O_9  and  C_10 
REMARK   10  A    between atoms: C_18  and  C_19 
REMARK   11  A    between atoms: C_27  and  C_28 
ROOT
HETATM    1  C   UNK N   1      35.078  15.677   9.301  0.00  0.00     0.070 A 
HETATM    2  C   UNK N   1      34.567  15.926  10.597  0.00  0.00     0.038 A 
HETATM    3  C   UNK N   1      35.091  15.277  11.716  0.00  0.00     0.018 A 
HETATM    4  C   UNK N   1      36.121  14.356  11.538  0.00  0.00     0.011 A 
HETATM    5  C   UNK N   1      36.636  14.137  10.267  0.00  0.00     0.036 A 
HETATM    6  S   UNK N   1      37.767  12.970  10.456  0.00  0.00    -0.013 SA
HETATM    7  N   UNK N   1      37.676  12.660  12.077  0.00  0.00    -0.324 N 
ATOM      8  HN  UNK N   1      38.216  11.980  12.611  1.00  0.00     0.174 HD
HETATM    9  C   UNK N   1      36.714  13.519  12.549  0.00  0.00     0.060 A 
HETATM   10  C   UNK N   1      36.153  14.784   9.133  0.00  0.00     0.057 A 
ENDROOT
BRANCH   1  11
HETATM   11  O   UNK N   1      34.496  16.240   8.217  0.00  0.00    -0.351 OA
BRANCH  11  12
HETATM   12  C   UNK N   1      34.504  17.610   8.039  0.00  0.00     0.175 C 
BRANCH  12  13
HETATM   13  C   UNK N   1      33.107  18.193   8.009  0.00  0.00     0.027 C 
BRANCH  13  14
HETATM   14  C   UNK N   1      32.061  17.095   7.945  0.00  0.00     0.002 C 
BRANCH  14  15
HETATM   15  C   UNK N   1      30.748  17.646   8.469  0.00  0.00     0.002 C 
BRANCH  15  16
HETATM   16  C   UNK N   1      29.562  17.127   7.665  0.00  0.00     0.030 C 
BRANCH  16  17
HETATM   17  C   UNK N   1      29.435  17.777   6.286  0.00  0.00     0.272 C 
BRANCH  17  18
HETATM   18  N   UNK N   1      29.368  16.771   5.224  0.00  0.00     0.087 N 
HETATM   19  C   UNK N   1      28.542  17.239   4.116  0.00  0.00     0.310 C 
BRANCH  18  20
HETATM   20  C   UNK N   1      30.713  16.405   4.764  0.00  0.00     0.298 C 
BRANCH  20  21
HETATM   21  C   UNK N   1      31.570  17.576   4.353  0.00  0.00    -0.007 C 
HETATM   22  C   UNK N   1      32.845  17.413   4.011  0.00  0.00     0.008 C 
ENDBRANCH  20  21
ENDBRANCH  18  20
ENDBRANCH  17  18
ENDBRANCH  16  17
ENDBRANCH  15  16
ENDBRANCH  14  15
ENDBRANCH  13  14
ENDBRANCH  12  13
ENDBRANCH  11  12
ENDBRANCH   1  11
BRANCH   9  23
HETATM   23  C   UNK N   1      36.289  13.512  13.971  0.00  0.00    -0.008 A 
HETATM   24  C   UNK N   1      35.290  12.632  14.418  0.00  0.00     0.015 A 
HETATM   25  C   UNK N   1      34.929  12.584  15.763  0.00  0.00     0.020 A 
HETATM   26  C   UNK N   1      35.572  13.409  16.683  0.00  0.00     0.011 A 
HETATM   27 Br   UNK N   1      35.103  13.306  18.527  0.00  0.00    -0.051 Br
HETATM   28  C   UNK N   1      36.564  14.296  16.255  0.00  0.00     0.020 A 
HETATM   29  C   UNK N   1      36.918  14.352  14.901  0.00  0.00     0.015 A 
ENDBRANCH   9  23
TORSDOF 11
ENDMDL
MODEL 3
REMARK VINA RESULT:      -5.8     14.449     17.758
REMARK  11 active torsions:
REMARK  status: ('A' for Active; 'I' for Inactive)
REMARK    1  A    between atoms: N_2  and  C_3 
REMARK    2  A    between atoms: N_2  and  C_27 
REMARK    3  A    between atoms: C_3  and  C_4 
REMARK    4  A    between atoms: C_4  and  C_5 
REMARK    5  A    between atoms: C_5  and  C_6 
REMARK    6  A    between atoms: C_6  and  C_7 
REMARK    7  A    between atoms: C_7  and  C_8 
REMARK    8  A    between atoms: C_8  and  O_9 
REMARK    9  A    between atoms: O_9  and  C_10 
REMARK   10  A    between atoms: C_18  and  C_19 
REMARK   11  A    between atoms: C_27  and  C_28 
ROOT
HETATM    1  C   UNK N   1      31.872  16.199   7.330  0.00  0.00     0.070 A 
HETATM    2  C   UNK N   1      31.311  16.640   6.108  0.00  0.00     0.038 A 
HETATM    3  C   UNK N   1      30.161  17.431   6.085  0.00  0.00     0.018 A 
HETATM    4  C   UNK N   1      29.552  17.767   7.292  0.00  0.00     0.011 A 
HETATM    5  C   UNK N   1      30.123  17.353   8.489  0.00  0.00     0.036 A 
HETATM    6  S   UNK N   1      29.106  17.884   9.656  0.00  0.00    -0.013 SA
HETATM    7  N   UNK N   1      27.920  18.621   8.773  0.00  0.00    -0.324 N 
ATOM      8  HN  UNK N   1      27.080  19.082   9.122  1.00  0.00     0.174 HD
HETATM    9  C   UNK N   1      28.313  18.479   7.464  0.00  0.00     0.060 A 
HETATM   10  C   UNK N   1      31.282  16.584   8.550  0.00  0.00     0.057 A 
ENDROOT
BRANCH   1  11
HETATM   11  O   UNK N   1      32.928  15.355   7.332  0.00  0.00    -0.351 OA
BRANCH  11  12
HETATM   12  C   UNK N   1      34.215  15.830   7.496  0.00  0.00     0.175 C 
BRANCH  12  13
HETATM   13  C   UNK N   1      34.855  15.327   8.773  0.00  0.00     0.027 C 
BRANCH  13  14
HETATM   14  C   UNK N   1      34.854  16.405   9.842  0.00  0.00     0.002 C 
BRANCH  14  15
HETATM   15  C   UNK N   1      35.889  16.045  10.892  0.00  0.00     0.002 C 
BRANCH  15  16
HETATM   16  C   UNK N   1      36.621  14.756  10.539  0.00  0.00     0.030 C 
BRANCH  16  17
HETATM   17  C   UNK N   1      36.718  13.776  11.710  0.00  0.00     0.272 C 
BRANCH  17  18
HETATM   18  N   UNK N   1      35.391  13.384  12.189  0.00  0.00     0.087 N 
HETATM   19  C   UNK N   1      35.069  12.022  11.774  0.00  0.00     0.310 C 
BRANCH  18  20
HETATM   20  C   UNK N   1      35.298  13.528  13.648  0.00  0.00     0.298 C 
BRANCH  20  21
HETATM   21  C   UNK N   1      36.618  13.410  14.369  0.00  0.00    -0.007 C 
HETATM   22  C   UNK N   1      36.912  14.192  15.404  0.00  0.00     0.008 C 
ENDBRANCH  20  21
ENDBRANCH  18  20
ENDBRANCH  17  18
ENDBRANCH  16  17
ENDBRANCH  15  16
ENDBRANCH  14  15
ENDBRANCH  13  14
ENDBRANCH  12  13
ENDBRANCH  11  12
ENDBRANCH   1  11
BRANCH   9  23
HETATM   23  C   UNK N   1      27.475  18.965   6.339  0.00  0.00    -0.008 A 
HETATM   24  C   UNK N   1      26.795  18.060   5.508  0.00  0.00     0.015 A 
HETATM   25  C   UNK N   1      25.962  18.514   4.486  0.00  0.00     0.020 A 
HETATM   26  C   UNK N   1      25.789  19.883   4.291  0.00  0.00     0.011 A 
HETATM   27 Br   UNK N   1      24.615  20.494   2.920  0.00  0.00    -0.051 Br
HETATM   28  C   UNK N   1      26.463  20.797   5.105  0.00  0.00     0.020 A 
HETATM   29  C   UNK N   1      27.309  20.340   6.123  0.00  0.00     0.015 A 
ENDBRANCH   9  23
TORSDOF 11
ENDMDL
MODEL 4
REMARK VINA RESULT:      -5.6     16.997     21.356
REMARK  11 active torsions:
REMARK  status: ('A' for Active; 'I' for Inactive)
REMARK    1  A    between atoms: N_2  and  C_3 
REMARK    2  A    between atoms: N_2  and  C_27 
REMARK    3  A    between atoms: C_3  and  C_4 
REMARK    4  A    between atoms: C_4  and  C_5 
REMARK    5  A    between atoms: C_5  and  C_6 
REMARK    6  A    between atoms: C_6  and  C_7 
REMARK    7  A    between atoms: C_7  and  C_8 
REMARK    8  A    between atoms: C_8  and  O_9 
REMARK    9  A    between atoms: O_9  and  C_10 
REMARK   10  A    between atoms: C_18  and  C_19 
REMARK   11  A    between atoms: C_27  and  C_28 
ROOT
HETATM    1  C   UNK N   1      35.156  15.565   9.272  0.00  0.00     0.070 A 
HETATM    2  C   UNK N   1      35.021  15.965  10.623  0.00  0.00     0.038 A 
HETATM    3  C   UNK N   1      35.329  15.093  11.668  0.00  0.00     0.018 A 
HETATM    4  C   UNK N   1      35.757  13.803  11.363  0.00  0.00     0.011 A 
HETATM    5  C   UNK N   1      35.913  13.426  10.035  0.00  0.00     0.036 A 
HETATM    6  S   UNK N   1      36.363  11.854  10.085  0.00  0.00    -0.013 SA
HETATM    7  N   UNK N   1      36.373  11.548  11.709  0.00  0.00    -0.324 N 
ATOM      8  HN  UNK N   1      36.595  10.668  12.175  1.00  0.00     0.174 HD
HETATM    9  C   UNK N   1      36.018  12.738  12.296  0.00  0.00     0.060 A 
HETATM   10  C   UNK N   1      35.637  14.277   8.969  0.00  0.00     0.057 A 
ENDROOT
BRANCH   1  11
HETATM   11  O   UNK N   1      34.762  16.387   8.273  0.00  0.00    -0.351 OA
BRANCH  11  12
HETATM   12  C   UNK N   1      34.686  17.753   8.467  0.00  0.00     0.175 C 
BRANCH  12  13
HETATM   13  C   UNK N   1      33.420  18.347   7.885  0.00  0.00     0.027 C 
BRANCH  13  14
HETATM   14  C   UNK N   1      32.225  17.452   8.158  0.00  0.00     0.002 C 
BRANCH  14  15
HETATM   15  C   UNK N   1      31.516  17.177   6.846  0.00  0.00     0.002 C 
BRANCH  15  16
HETATM   16  C   UNK N   1      30.035  16.883   7.059  0.00  0.00     0.030 C 
BRANCH  16  17
HETATM   17  C   UNK N   1      29.123  17.636   6.089  0.00  0.00     0.272 C 
BRANCH  17  18
HETATM   18  N   UNK N   1      27.943  18.170   6.770  0.00  0.00     0.087 N 
HETATM   19  C   UNK N   1      28.286  18.654   8.103  0.00  0.00     0.310 C 
BRANCH  18  20
HETATM   20  C   UNK N   1      27.311  19.227   5.970  0.00  0.00     0.298 C 
BRANCH  20  21
HETATM   21  C   UNK N   1      27.058  20.510   6.723  0.00  0.00    -0.007 C 
HETATM   22  C   UNK N   1      27.189  21.695   6.133  0.00  0.00     0.008 C 
ENDBRANCH  20  21
ENDBRANCH  18  20
ENDBRANCH  17  18
ENDBRANCH  16  17
ENDBRANCH  15  16
ENDBRANCH  14  15
ENDBRANCH  13  14
ENDBRANCH  12  13
ENDBRANCH  11  12
ENDBRANCH   1  11
BRANCH   9  23
HETATM   23  C   UNK N   1      35.854  12.867  13.766  0.00  0.00    -0.008 A 
HETATM   24  C   UNK N   1      36.686  13.719  14.508  0.00  0.00     0.015 A 
HETATM   25  C   UNK N   1      36.499  13.885  15.880  0.00  0.00     0.020 A 
HETATM   26  C   UNK N   1      35.465  13.209  16.525  0.00  0.00     0.011 A 
HETATM   27 Br   UNK N   1      35.189  13.475  18.391  0.00  0.00    -0.051 Br
HETATM   28  C   UNK N   1      34.631  12.351  15.801  0.00  0.00     0.020 A 
HETATM   29  C   UNK N   1      34.828  12.175  14.426  0.00  0.00     0.015 A 
ENDBRANCH   9  23
TORSDOF 11
ENDMDL
MODEL 5
REMARK VINA RESULT:      -5.6     16.964     21.341
REMARK  11 active torsions:
REMARK  status: ('A' for Active; 'I' for Inactive)
REMARK    1  A    between atoms: N_2  and  C_3 
REMARK    2  A    between atoms: N_2  and  C_27 
REMARK    3  A    between atoms: C_3  and  C_4 
REMARK    4  A    between atoms: C_4  and  C_5 
REMARK    5  A    between atoms: C_5  and  C_6 
REMARK    6  A    between atoms: C_6  and  C_7 
REMARK    7  A    between atoms: C_7  and  C_8 
REMARK    8  A    between atoms: C_8  and  O_9 
REMARK    9  A    between atoms: O_9  and  C_10 
REMARK   10  A    between atoms: C_18  and  C_19 
REMARK   11  A    between atoms: C_27  and  C_28 
ROOT
HETATM    1  C   UNK N   1      34.957  15.396   9.196  0.00  0.00     0.070 A 
HETATM    2  C   UNK N   1      34.420  15.627  10.486  0.00  0.00     0.038 A 
HETATM    3  C   UNK N   1      34.986  15.040  11.618  0.00  0.00     0.018 A 
HETATM    4  C   UNK N   1      36.084  14.196  11.461  0.00  0.00     0.011 A 
HETATM    5  C   UNK N   1      36.621  13.996  10.196  0.00  0.00     0.036 A 
HETATM    6  S   UNK N   1      37.836  12.921  10.410  0.00  0.00    -0.013 SA
HETATM    7  N   UNK N   1      37.759  12.632  12.036  0.00  0.00    -0.324 N 
ATOM      8  HN  UNK N   1      38.347  12.004  12.584  1.00  0.00     0.174 HD
HETATM    9  C   UNK N   1      36.732  13.424  12.488  0.00  0.00     0.060 A 
HETATM   10  C   UNK N   1      36.097  14.584   9.049  0.00  0.00     0.057 A 
ENDROOT
BRANCH   1  11
HETATM   11  O   UNK N   1      34.340  15.895   8.101  0.00  0.00    -0.351 OA
BRANCH  11  12
HETATM   12  C   UNK N   1      34.363  17.249   7.828  0.00  0.00     0.175 C 
BRANCH  12  13
HETATM   13  C   UNK N   1      33.066  17.933   8.205  0.00  0.00     0.027 C 
BRANCH  13  14
HETATM   14  C   UNK N   1      31.887  16.991   8.042  0.00  0.00     0.002 C 
BRANCH  14  15
HETATM   15  C   UNK N   1      30.651  17.658   8.615  0.00  0.00     0.002 C 
BRANCH  15  16
HETATM   16  C   UNK N   1      29.453  17.510   7.685  0.00  0.00     0.030 C 
BRANCH  16  17
HETATM   17  C   UNK N   1      29.841  17.432   6.207  0.00  0.00     0.272 C 
BRANCH  17  18
HETATM   18  N   UNK N   1      28.815  18.030   5.352  0.00  0.00     0.087 N 
HETATM   19  C   UNK N   1      28.469  17.138   4.250  0.00  0.00     0.310 C 
BRANCH  18  20
HETATM   20  C   UNK N   1      27.625  18.389   6.135  0.00  0.00     0.298 C 
BRANCH  20  21
HETATM   21  C   UNK N   1      27.260  19.852   6.076  0.00  0.00    -0.007 C 
HETATM   22  C   UNK N   1      27.468  20.573   4.978  0.00  0.00     0.008 C 
ENDBRANCH  20  21
ENDBRANCH  18  20
ENDBRANCH  17  18
ENDBRANCH  16  17
ENDBRANCH  15  16
ENDBRANCH  14  15
ENDBRANCH  13  14
ENDBRANCH  12  13
ENDBRANCH  11  12
ENDBRANCH   1  11
BRANCH   9  23
HETATM   23  C   UNK N   1      36.301  13.409  13.909  0.00  0.00    -0.008 A 
HETATM   24  C   UNK N   1      35.362  12.470  14.364  0.00  0.00     0.015 A 
HETATM   25  C   UNK N   1      34.997  12.417  15.708  0.00  0.00     0.020 A 
HETATM   26  C   UNK N   1      35.579  13.297  16.619  0.00  0.00     0.011 A 
HETATM   27 Br   UNK N   1      35.107  13.189  18.462  0.00  0.00    -0.051 Br
HETATM   28  C   UNK N   1      36.511  14.242  16.182  0.00  0.00     0.020 A 
HETATM   29  C   UNK N   1      36.868  14.303  14.829  0.00  0.00     0.015 A 
ENDBRANCH   9  23
TORSDOF 11
ENDMDL
MODEL 6
REMARK VINA RESULT:      -5.5     12.488     16.391
REMARK  11 active torsions:
REMARK  status: ('A' for Active; 'I' for Inactive)
REMARK    1  A    between atoms: N_2  and  C_3 
REMARK    2  A    between atoms: N_2  and  C_27 
REMARK    3  A    between atoms: C_3  and  C_4 
REMARK    4  A    between atoms: C_4  and  C_5 
REMARK    5  A    between atoms: C_5  and  C_6 
REMARK    6  A    between atoms: C_6  and  C_7 
REMARK    7  A    between atoms: C_7  and  C_8 
REMARK    8  A    between atoms: C_8  and  O_9 
REMARK    9  A    between atoms: O_9  and  C_10 
REMARK   10  A    between atoms: C_18  and  C_19 
REMARK   11  A    between atoms: C_27  and  C_28 
ROOT
HETATM    1  C   UNK N   1      28.553  18.204   5.243  0.00  0.00     0.070 A 
HETATM    2  C   UNK N   1      29.759  17.489   5.048  0.00  0.00     0.038 A 
HETATM    3  C   UNK N   1      30.522  17.051   6.132  0.00  0.00     0.018 A 
HETATM    4  C   UNK N   1      30.089  17.349   7.422  0.00  0.00     0.011 A 
HETATM    5  C   UNK N   1      28.892  18.028   7.607  0.00  0.00     0.036 A 
HETATM    6  S   UNK N   1      28.761  18.236   9.224  0.00  0.00    -0.013 SA
HETATM    7  N   UNK N   1      30.150  17.533   9.777  0.00  0.00    -0.324 N 
ATOM      8  HN  UNK N   1      30.465  17.454  10.744  1.00  0.00     0.174 HD
HETATM    9  C   UNK N   1      30.789  17.076   8.651  0.00  0.00     0.060 A 
HETATM   10  C   UNK N   1      28.095  18.458   6.550  0.00  0.00     0.057 A 
ENDROOT
BRANCH   1  11
HETATM   11  O   UNK N   1      27.877  18.705   4.184  0.00  0.00    -0.351 OA
BRANCH  11  12
HETATM   12  C   UNK N   1      27.644  20.062   4.069  0.00  0.00     0.175 C 
BRANCH  12  13
HETATM   13  C   UNK N   1      26.223  20.367   3.645  0.00  0.00     0.027 C 
BRANCH  13  14
HETATM   14  C   UNK N   1      25.470  19.092   3.311  0.00  0.00     0.002 C 
BRANCH  14  15
HETATM   15  C   UNK N   1      24.031  19.245   3.767  0.00  0.00     0.002 C 
BRANCH  15  16
HETATM   16  C   UNK N   1      23.691  18.269   4.886  0.00  0.00     0.030 C 
BRANCH  16  17
HETATM   17  C   UNK N   1      22.224  17.835   4.884  0.00  0.00     0.272 C 
BRANCH  17  18
HETATM   18  N   UNK N   1      21.681  17.792   3.525  0.00  0.00     0.087 N 
HETATM   19  C   UNK N   1      21.355  16.423   3.138  0.00  0.00     0.310 C 
BRANCH  18  20
HETATM   20  C   UNK N   1      20.511  18.670   3.401  0.00  0.00     0.298 C 
BRANCH  20  21
HETATM   21  C   UNK N   1      20.502  19.523   2.156  0.00  0.00    -0.007 C 
HETATM   22  C   UNK N   1      20.895  20.793   2.185  0.00  0.00     0.008 C 
ENDBRANCH  20  21
ENDBRANCH  18  20
ENDBRANCH  17  18
ENDBRANCH  16  17
ENDBRANCH  15  16
ENDBRANCH  14  15
ENDBRANCH  13  14
ENDBRANCH  12  13
ENDBRANCH  11  12
ENDBRANCH   1  11
BRANCH   9  23
HETATM   23  C   UNK N   1      32.121  16.424   8.717  0.00  0.00    -0.008 A 
HETATM   24  C   UNK N   1      33.297  17.189   8.680  0.00  0.00     0.015 A 
HETATM   25  C   UNK N   1      34.548  16.585   8.798  0.00  0.00     0.020 A 
HETATM   26  C   UNK N   1      34.637  15.205   8.969  0.00  0.00     0.011 A 
HETATM   27 Br   UNK N   1      36.348  14.392   9.174  0.00  0.00    -0.051 Br
HETATM   28  C   UNK N   1      33.476  14.427   9.002  0.00  0.00     0.020 A 
HETATM   29  C   UNK N   1      32.221  15.033   8.870  0.00  0.00     0.015 A 
ENDBRANCH   9  23
TORSDOF 11
ENDMDL
MODEL 7
REMARK VINA RESULT:      -5.5      3.632      7.150
REMARK  11 active torsions:
REMARK  status: ('A' for Active; 'I' for Inactive)
REMARK    1  A    between atoms: N_2  and  C_3 
REMARK    2  A    between atoms: N_2  and  C_27 
REMARK    3  A    between atoms: C_3  and  C_4 
REMARK    4  A    between atoms: C_4  and  C_5 
REMARK    5  A    between atoms: C_5  and  C_6 
REMARK    6  A    between atoms: C_6  and  C_7 
REMARK    7  A    between atoms: C_7  and  C_8 
REMARK    8  A    between atoms: C_8  and  O_9 
REMARK    9  A    between atoms: O_9  and  C_10 
REMARK   10  A    between atoms: C_18  and  C_19 
REMARK   11  A    between atoms: C_27  and  C_28 
ROOT
HETATM    1  C   UNK N   1      26.819  26.190  -4.119  0.00  0.00     0.070 A 
HETATM    2  C   UNK N   1      27.183  24.822  -4.080  0.00  0.00     0.038 A 
HETATM    3  C   UNK N   1      28.519  24.435  -3.970  0.00  0.00     0.018 A 
HETATM    4  C   UNK N   1      29.503  25.419  -3.920  0.00  0.00     0.011 A 
HETATM    5  C   UNK N   1      29.137  26.759  -3.932  0.00  0.00     0.036 A 
HETATM    6  S   UNK N   1      30.547  27.590  -3.920  0.00  0.00    -0.013 SA
HETATM    7  N   UNK N   1      31.665  26.373  -3.918  0.00  0.00    -0.324 N 
ATOM      8  HN  UNK N   1      32.681  26.463  -3.920  1.00  0.00     0.174 HD
HETATM    9  C   UNK N   1      30.928  25.214  -3.912  0.00  0.00     0.060 A 
HETATM   10  C   UNK N   1      27.814  27.181  -4.017  0.00  0.00     0.057 A 
ENDROOT
BRANCH   1  11
HETATM   11  O   UNK N   1      25.531  26.548  -4.324  0.00  0.00    -0.351 OA
BRANCH  11  12
HETATM   12  C   UNK N   1      24.909  26.299  -5.532  0.00  0.00     0.175 C 
BRANCH  12  13
HETATM   13  C   UNK N   1      25.454  27.166  -6.648  0.00  0.00     0.027 C 
BRANCH  13  14
HETATM   14  C   UNK N   1      26.003  26.315  -7.778  0.00  0.00     0.002 C 
BRANCH  14  15
HETATM   15  C   UNK N   1      27.496  26.558  -7.886  0.00  0.00     0.002 C 
BRANCH  15  16
HETATM   16  C   UNK N   1      28.293  25.294  -7.585  0.00  0.00     0.030 C 
BRANCH  16  17
HETATM   17  C   UNK N   1      27.659  24.028  -8.165  0.00  0.00     0.272 C 
BRANCH  17  18
HETATM   18  N   UNK N   1      27.394  23.036  -7.121  0.00  0.00     0.087 N 
HETATM   19  C   UNK N   1      25.978  22.690  -7.080  0.00  0.00     0.310 C 
BRANCH  18  20
HETATM   20  C   UNK N   1      28.226  21.841  -7.311  0.00  0.00     0.298 C 
BRANCH  20  21
HETATM   21  C   UNK N   1      29.357  21.707  -6.322  0.00  0.00    -0.007 C 
HETATM   22  C   UNK N   1      30.159  20.646  -6.328  0.00  0.00     0.008 C 
ENDBRANCH  20  21
ENDBRANCH  18  20
ENDBRANCH  17  18
ENDBRANCH  16  17
ENDBRANCH  15  16
ENDBRANCH  14  15
ENDBRANCH  13  14
ENDBRANCH  12  13
ENDBRANCH  11  12
ENDBRANCH   1  11
BRANCH   9  23
HETATM   23  C   UNK N   1      31.573  23.878  -3.967  0.00  0.00    -0.008 A 
HETATM   24  C   UNK N   1      32.507  23.572  -4.970  0.00  0.00     0.015 A 
HETATM   25  C   UNK N   1      33.155  22.339  -4.991  0.00  0.00     0.020 A 
HETATM   26  C   UNK N   1      32.886  21.397  -4.000  0.00  0.00     0.011 A 
HETATM   27 Br   UNK N   1      33.809  19.730  -4.011  0.00  0.00    -0.051 Br
HETATM   28  C   UNK N   1      31.954  21.683  -2.998  0.00  0.00     0.020 A 
HETATM   29  C   UNK N   1      31.294  22.918  -2.984  0.00  0.00     0.015 A 
ENDBRANCH   9  23
TORSDOF 11
ENDMDL
MODEL 8
REMARK VINA RESULT:      -5.4     14.197     17.643
REMARK  11 active torsions:
REMARK  status: ('A' for Active; 'I' for Inactive)
REMARK    1  A    between atoms: N_2  and  C_3 
REMARK    2  A    between atoms: N_2  and  C_27 
REMARK    3  A    between atoms: C_3  and  C_4 
REMARK    4  A    between atoms: C_4  and  C_5 
REMARK    5  A    between atoms: C_5  and  C_6 
REMARK    6  A    between atoms: C_6  and  C_7 
REMARK    7  A    between atoms: C_7  and  C_8 
REMARK    8  A    between atoms: C_8  and  O_9 
REMARK    9  A    between atoms: O_9  and  C_10 
REMARK   10  A    between atoms: C_18  and  C_19 
REMARK   11  A    between atoms: C_27  and  C_28 
ROOT
HETATM    1  C   UNK N   1      31.989  16.093   7.623  0.00  0.00     0.070 A 
HETATM    2  C   UNK N   1      31.507  16.585   6.386  0.00  0.00     0.038 A 
HETATM    3  C   UNK N   1      30.355  17.372   6.323  0.00  0.00     0.018 A 
HETATM    4  C   UNK N   1      29.666  17.651   7.501  0.00  0.00     0.011 A 
HETATM    5  C   UNK N   1      30.160  17.187   8.713  0.00  0.00     0.036 A 
HETATM    6  S   UNK N   1      29.065  17.661   9.833  0.00  0.00    -0.013 SA
HETATM    7  N   UNK N   1      27.935  18.432   8.907  0.00  0.00    -0.324 N 
ATOM      8  HN  UNK N   1      27.070  18.873   9.220  1.00  0.00     0.174 HD
HETATM    9  C   UNK N   1      28.413  18.350   7.622  0.00  0.00     0.060 A 
HETATM   10  C   UNK N   1      31.318  16.421   8.816  0.00  0.00     0.057 A 
ENDROOT
BRANCH   1  11
HETATM   11  O   UNK N   1      33.049  15.253   7.657  0.00  0.00    -0.351 OA
BRANCH  11  12
HETATM   12  C   UNK N   1      34.340  15.739   7.577  0.00  0.00     0.175 C 
BRANCH  12  13
HETATM   13  C   UNK N   1      34.712  16.582   8.779  0.00  0.00     0.027 C 
BRANCH  13  14
HETATM   14  C   UNK N   1      35.611  15.810   9.728  0.00  0.00     0.002 C 
BRANCH  14  15
HETATM   15  C   UNK N   1      34.963  15.788  11.099  0.00  0.00     0.002 C 
BRANCH  15  16
HETATM   16  C   UNK N   1      35.707  14.865  12.056  0.00  0.00     0.030 C 
BRANCH  16  17
HETATM   17  C   UNK N   1      35.045  13.494  12.211  0.00  0.00     0.272 C 
BRANCH  17  18
HETATM   18  N   UNK N   1      35.880  12.431  11.649  0.00  0.00     0.087 N 
HETATM   19  C   UNK N   1      35.409  12.047  10.322  0.00  0.00     0.310 C 
BRANCH  18  20
HETATM   20  C   UNK N   1      37.291  12.837  11.612  0.00  0.00     0.298 C 
BRANCH  20  21
HETATM   21  C   UNK N   1      37.932  12.737  10.251  0.00  0.00    -0.007 C 
HETATM   22  C   UNK N   1      38.647  13.739   9.747  0.00  0.00     0.008 C 
ENDBRANCH  20  21
ENDBRANCH  18  20
ENDBRANCH  17  18
ENDBRANCH  16  17
ENDBRANCH  15  16
ENDBRANCH  14  15
ENDBRANCH  13  14
ENDBRANCH  12  13
ENDBRANCH  11  12
ENDBRANCH   1  11
BRANCH   9  23
HETATM   23  C   UNK N   1      27.648  18.882   6.467  0.00  0.00    -0.008 A 
HETATM   24  C   UNK N   1      27.643  20.256   6.180  0.00  0.00     0.015 A 
HETATM   25  C   UNK N   1      26.972  20.752   5.064  0.00  0.00     0.020 A 
HETATM   26  C   UNK N   1      26.305  19.875   4.211  0.00  0.00     0.011 A 
HETATM   27 Br   UNK N   1      25.426  20.556   2.663  0.00  0.00    -0.051 Br
HETATM   28  C   UNK N   1      26.294  18.505   4.485  0.00  0.00     0.020 A 
HETATM   29  C   UNK N   1      26.958  18.009   5.613  0.00  0.00     0.015 A 
ENDBRANCH   9  23
TORSDOF 11
ENDMDL
MODEL 9
REMARK VINA RESULT:      -5.3     18.217     21.915
REMARK  11 active torsions:
REMARK  status: ('A' for Active; 'I' for Inactive)
REMARK    1  A    between atoms: N_2  and  C_3 
REMARK    2  A    between atoms: N_2  and  C_27 
REMARK    3  A    between atoms: C_3  and  C_4 
REMARK    4  A    between atoms: C_4  and  C_5 
REMARK    5  A    between atoms: C_5  and  C_6 
REMARK    6  A    between atoms: C_6  and  C_7 
REMARK    7  A    between atoms: C_7  and  C_8 
REMARK    8  A    between atoms: C_8  and  O_9 
REMARK    9  A    between atoms: O_9  and  C_10 
REMARK   10  A    between atoms: C_18  and  C_19 
REMARK   11  A    between atoms: C_27  and  C_28 
ROOT
HETATM    1  C   UNK N   1      35.902  12.350  10.191  0.00  0.00     0.070 A 
HETATM    2  C   UNK N   1      35.047  12.409   9.064  0.00  0.00     0.038 A 
HETATM    3  C   UNK N   1      34.477  13.615   8.654  0.00  0.00     0.018 A 
HETATM    4  C   UNK N   1      34.744  14.769   9.387  0.00  0.00     0.011 A 
HETATM    5  C   UNK N   1      35.604  14.709  10.476  0.00  0.00     0.036 A 
HETATM    6  S   UNK N   1      35.618  16.222  11.098  0.00  0.00    -0.013 SA
HETATM    7  N   UNK N   1      34.573  17.017  10.095  0.00  0.00    -0.324 N 
ATOM      8  HN  UNK N   1      34.289  17.996  10.142  1.00  0.00     0.174 HD
HETATM    9  C   UNK N   1      34.170  16.073   9.183  0.00  0.00     0.060 A 
HETATM   10  C   UNK N   1      36.209  13.528  10.899  0.00  0.00     0.057 A 
ENDROOT
BRANCH   1  11
HETATM   11  O   UNK N   1      36.368  11.160  10.633  0.00  0.00    -0.351 OA
BRANCH  11  12
HETATM   12  C   UNK N   1      35.871  10.588  11.789  0.00  0.00     0.175 C 
BRANCH  12  13
HETATM   13  C   UNK N   1      34.358  10.522  11.792  0.00  0.00     0.027 C 
BRANCH  13  14
HETATM   14  C   UNK N   1      33.821  10.435  13.209  0.00  0.00     0.002 C 
BRANCH  14  15
HETATM   15  C   UNK N   1      34.935   9.957  14.120  0.00  0.00     0.002 C 
BRANCH  15  16
HETATM   16  C   UNK N   1      35.168  10.922  15.276  0.00  0.00     0.030 C 
BRANCH  16  17
HETATM   17  C   UNK N   1      36.384  11.828  15.071  0.00  0.00     0.272 C 
BRANCH  17  18
HETATM   18  N   UNK N   1      36.372  12.958  16.002  0.00  0.00     0.087 N 
HETATM   19  C   UNK N   1      36.848  14.174  15.351  0.00  0.00     0.310 C 
BRANCH  18  20
HETATM   20  C   UNK N   1      35.032  13.152  16.572  0.00  0.00     0.298 C 
BRANCH  20  21
HETATM   21  C   UNK N   1      35.017  13.366  18.065  0.00  0.00    -0.007 C 
HETATM   22  C   UNK N   1      35.338  12.387  18.907  0.00  0.00     0.008 C 
ENDBRANCH  20  21
ENDBRANCH  18  20
ENDBRANCH  17  18
ENDBRANCH  16  17
ENDBRANCH  15  16
ENDBRANCH  14  15
ENDBRANCH  13  14
ENDBRANCH  12  13
ENDBRANCH  11  12
ENDBRANCH   1  11
BRANCH   9  23
HETATM   23  C   UNK N   1      33.169  16.381   8.130  0.00  0.00    -0.008 A 
HETATM   24  C   UNK N   1      31.794  16.270   8.392  0.00  0.00     0.015 A 
HETATM   25  C   UNK N   1      30.852  16.612   7.424  0.00  0.00     0.020 A 
HETATM   26  C   UNK N   1      31.273  17.082   6.182  0.00  0.00     0.011 A 
HETATM   27 Br   UNK N   1      29.978  17.589   4.880  0.00  0.00    -0.051 Br
HETATM   28  C   UNK N   1      32.639  17.193   5.902  0.00  0.00     0.020 A 
HETATM   29  C   UNK N   1      33.585  16.837   6.871  0.00  0.00     0.015 A 
ENDBRANCH   9  23
TORSDOF 11
ENDMDL
