MODEL 1
REMARK VINA RESULT:      -6.2      0.000      0.000
REMARK  7 active torsions:
REMARK  status: ('A' for Active; 'I' for Inactive)
REMARK    1  A    between atoms: N_1  and  C_2 
REMARK    2  A    between atoms: C_10  and  N_7 
REMARK    3  A    between atoms: C_13  and  C_14 
REMARK    4  A    between atoms: C_14  and  O_15 
REMARK    5  A    between atoms: O_15  and  P_16 
REMARK    6  A    between atoms: P_16  and  O_17 
REMARK    7  A    between atoms: P_16  and  O_18 
ROOT
HETATM    1  C   UNK N   1      34.553  14.286  10.160  0.00  0.00     0.232 C 
HETATM    2  C   UNK N   1      34.211  12.934   9.585  0.00  0.00     0.057 C 
HETATM    3  C   UNK N   1      33.128  13.291   8.608  0.00  0.00     0.038 C 
HETATM    4  C   UNK N   1      32.666  14.670   9.060  0.00  0.00     0.148 C 
HETATM    5  O   UNK N   1      33.371  15.035  10.221  0.00  0.00    -0.359 OA
ENDROOT
BRANCH   1   6
HETATM    6  N   UNK N   1      35.202  14.211  11.468  0.00  0.00    -0.282 N 
HETATM    7  C   UNK N   1      36.082  15.175  11.929  0.00  0.00     0.330 A 
HETATM    8  N   UNK N   1      36.689  15.019  13.148  0.00  0.00    -0.295 N 
HETATM    9  O   UNK N   1      36.329  16.164  11.259  0.00  0.00    -0.246 OA
HETATM   10  C   UNK N   1      36.442  13.926  13.914  0.00  0.00     0.103 A 
ATOM     11  HN  UNK N   1      37.335  15.733  13.485  1.00  0.00     0.172 HD
HETATM   12  C   UNK N   1      35.553  12.953  13.470  0.00  0.00     0.065 A 
HETATM   13  C   UNK N   1      34.938  13.118  12.233  0.00  0.00     0.102 A 
BRANCH  10  14
HETATM   14  N   UNK N   1      37.089  13.773  15.155  0.00  0.00    -0.385 N 
HETATM   15  H   UNK N   1      37.901  13.221  15.223  0.00  0.00     0.157 HD
HETATM   16  H   UNK N   1      36.728  14.218  15.956  0.00  0.00     0.157 HD
ENDBRANCH  10  14
ENDBRANCH   1   6
BRANCH   4  17
HETATM   17  C   UNK N   1      32.837  15.715   7.954  0.00  0.00     0.212 C 
BRANCH  17  18
HETATM   18  O   UNK N   1      34.094  16.332   8.022  0.00  0.00    -0.295 OA
BRANCH  18  19
HETATM   19  P   UNK N   1      33.756  18.037   8.084  0.00  0.00     0.390 P 
HETATM   20  O   UNK N   1      34.592  17.919   6.780  0.00  0.00    -0.632 OA
BRANCH  19  21
HETATM   21  O   UNK N   1      35.031  19.188   8.335  0.00  0.00    -0.307 OA
HETATM   22  H   UNK N   1      35.501  19.448   9.143  0.00  0.00     0.222 HD
ENDBRANCH  19  21
BRANCH  19  23
HETATM   23  O   UNK N   1      34.733  17.585   9.446  0.00  0.00    -0.307 OA
HETATM   24  H   UNK N   1      34.897  16.670   9.723  0.00  0.00     0.222 HD
ENDBRANCH  19  23
ENDBRANCH  18  19
ENDBRANCH  17  18
ENDBRANCH   4  17
TORSDOF 7
ENDMDL
MODEL 2
REMARK VINA RESULT:      -6.0     14.581     16.502
REMARK  7 active torsions:
REMARK  status: ('A' for Active; 'I' for Inactive)
REMARK    1  A    between atoms: N_1  and  C_2 
REMARK    2  A    between atoms: C_10  and  N_7 
REMARK    3  A    between atoms: C_13  and  C_14 
REMARK    4  A    between atoms: C_14  and  O_15 
REMARK    5  A    between atoms: O_15  and  P_16 
REMARK    6  A    between atoms: P_16  and  O_17 
REMARK    7  A    between atoms: P_16  and  O_18 
ROOT
HETATM    1  C   UNK N   1      21.339  17.022   4.419  0.00  0.00     0.232 C 
HETATM    2  C   UNK N   1      22.771  17.033   4.893  0.00  0.00     0.057 C 
HETATM    3  C   UNK N   1      22.650  16.337   6.219  0.00  0.00     0.038 C 
HETATM    4  C   UNK N   1      21.167  16.431   6.550  0.00  0.00     0.148 C 
HETATM    5  O   UNK N   1      20.516  17.166   5.543  0.00  0.00    -0.359 OA
ENDROOT
BRANCH   1   6
HETATM    6  N   UNK N   1      21.053  18.048   3.417  0.00  0.00    -0.282 N 
HETATM    7  C   UNK N   1      20.401  17.778   2.226  0.00  0.00     0.330 A 
HETATM    8  N   UNK N   1      20.205  18.780   1.312  0.00  0.00    -0.295 N 
HETATM    9  O   UNK N   1      19.999  16.653   1.978  0.00  0.00    -0.246 OA
HETATM   10  C   UNK N   1      20.647  20.040   1.555  0.00  0.00     0.103 A 
ATOM     11  HN  UNK N   1      19.721  18.577   0.437  1.00  0.00     0.172 HD
HETATM   12  C   UNK N   1      21.297  20.331   2.749  0.00  0.00     0.065 A 
HETATM   13  C   UNK N   1      21.489  19.310   3.675  0.00  0.00     0.102 A 
BRANCH  10  14
HETATM   14  N   UNK N   1      20.455  21.053   0.596  0.00  0.00    -0.385 N 
HETATM   15  H   UNK N   1      19.735  21.714   0.713  0.00  0.00     0.157 HD
HETATM   16  H   UNK N   1      21.042  21.100  -0.194  0.00  0.00     0.157 HD
ENDBRANCH  10  14
ENDBRANCH   1   6
BRANCH   4  17
HETATM   17  C   UNK N   1      20.537  15.047   6.723  0.00  0.00     0.212 C 
BRANCH  17  18
HETATM   18  O   UNK N   1      19.684  15.007   7.834  0.00  0.00    -0.295 OA
BRANCH  18  19
HETATM   19  P   UNK N   1      20.675  14.432   9.143  0.00  0.00     0.390 P 
HETATM   20  O   UNK N   1      20.750  13.251   8.136  0.00  0.00    -0.632 OA
BRANCH  19  21
HETATM   21  O   UNK N   1      20.181  13.072  10.101  0.00  0.00    -0.307 OA
HETATM   22  H   UNK N   1      19.627  12.307   9.879  0.00  0.00     0.222 HD
ENDBRANCH  19  21
BRANCH  19  23
HETATM   23  O   UNK N   1      19.039  14.628   9.691  0.00  0.00    -0.307 OA
HETATM   24  H   UNK N   1      18.431  13.894   9.872  0.00  0.00     0.222 HD
ENDBRANCH  19  23
ENDBRANCH  18  19
ENDBRANCH  17  18
ENDBRANCH   4  17
TORSDOF 7
ENDMDL
MODEL 3
REMARK VINA RESULT:      -5.9      3.328      4.020
REMARK  7 active torsions:
REMARK  status: ('A' for Active; 'I' for Inactive)
REMARK    1  A    between atoms: N_1  and  C_2 
REMARK    2  A    between atoms: C_10  and  N_7 
REMARK    3  A    between atoms: C_13  and  C_14 
REMARK    4  A    between atoms: C_14  and  O_15 
REMARK    5  A    between atoms: O_15  and  P_16 
REMARK    6  A    between atoms: P_16  and  O_17 
REMARK    7  A    between atoms: P_16  and  O_18 
ROOT
HETATM    1  C   UNK N   1      33.645  16.529   8.977  0.00  0.00     0.232 C 
HETATM    2  C   UNK N   1      34.154  16.771   7.578  0.00  0.00     0.057 C 
HETATM    3  C   UNK N   1      32.871  17.003   6.831  0.00  0.00     0.038 C 
HETATM    4  C   UNK N   1      31.803  16.421   7.747  0.00  0.00     0.148 C 
HETATM    5  O   UNK N   1      32.422  15.855   8.876  0.00  0.00    -0.359 OA
ENDROOT
BRANCH   1   6
HETATM    6  N   UNK N   1      34.589  15.792   9.817  0.00  0.00    -0.282 N 
HETATM    7  C   UNK N   1      35.633  16.401  10.490  0.00  0.00     0.330 A 
HETATM    8  N   UNK N   1      36.508  15.642  11.224  0.00  0.00    -0.295 N 
HETATM    9  O   UNK N   1      35.789  17.610  10.436  0.00  0.00    -0.246 OA
HETATM   10  C   UNK N   1      36.367  14.294  11.298  0.00  0.00     0.103 A 
ATOM     11  HN  UNK N   1      37.275  16.096  11.722  1.00  0.00     0.172 HD
HETATM   12  C   UNK N   1      35.318  13.667  10.635  0.00  0.00     0.065 A 
HETATM   13  C   UNK N   1      34.432  14.443   9.894  0.00  0.00     0.102 A 
BRANCH  10  14
HETATM   14  N   UNK N   1      37.286  13.528  12.041  0.00  0.00    -0.385 N 
HETATM   15  H   UNK N   1      37.166  12.554  12.121  0.00  0.00     0.157 HD
HETATM   16  H   UNK N   1      38.050  13.967  12.481  0.00  0.00     0.157 HD
ENDBRANCH  10  14
ENDBRANCH   1   6
BRANCH   4  17
HETATM   17  C   UNK N   1      30.769  17.475   8.151  0.00  0.00     0.212 C 
BRANCH  17  18
HETATM   18  O   UNK N   1      29.519  17.216   7.572  0.00  0.00    -0.295 OA
BRANCH  18  19
HETATM   19  P   UNK N   1      28.501  18.527   8.090  0.00  0.00     0.390 P 
HETATM   20  O   UNK N   1      29.421  18.322   9.325  0.00  0.00    -0.632 OA
BRANCH  19  21
HETATM   21  O   UNK N   1      27.368  18.314   9.388  0.00  0.00    -0.307 OA
HETATM   22  H   UNK N   1      26.447  18.009   9.381  0.00  0.00     0.222 HD
ENDBRANCH  19  21
BRANCH  19  23
HETATM   23  O   UNK N   1      27.538  17.105   7.837  0.00  0.00    -0.307 OA
HETATM   24  H   UNK N   1      27.418  16.670   6.979  0.00  0.00     0.222 HD
ENDBRANCH  19  23
ENDBRANCH  18  19
ENDBRANCH  17  18
ENDBRANCH   4  17
TORSDOF 7
ENDMDL
MODEL 4
REMARK VINA RESULT:      -5.8      2.540      4.003
REMARK  7 active torsions:
REMARK  status: ('A' for Active; 'I' for Inactive)
REMARK    1  A    between atoms: N_1  and  C_2 
REMARK    2  A    between atoms: C_10  and  N_7 
REMARK    3  A    between atoms: C_13  and  C_14 
REMARK    4  A    between atoms: C_14  and  O_15 
REMARK    5  A    between atoms: O_15  and  P_16 
REMARK    6  A    between atoms: P_16  and  O_17 
REMARK    7  A    between atoms: P_16  and  O_18 
ROOT
HETATM    1  C   UNK N   1      36.472  13.757  13.878  0.00  0.00     0.232 C 
HETATM    2  C   UNK N   1      37.001  12.405  13.470  0.00  0.00     0.057 C 
HETATM    3  C   UNK N   1      36.777  12.433  11.985  0.00  0.00     0.038 C 
HETATM    4  C   UNK N   1      35.756  13.546  11.789  0.00  0.00     0.148 C 
HETATM    5  O   UNK N   1      35.386  14.059  13.045  0.00  0.00    -0.359 OA
ENDROOT
BRANCH   1   6
HETATM    6  N   UNK N   1      36.093  13.830  15.288  0.00  0.00    -0.282 N 
HETATM    7  C   UNK N   1      36.708  14.681  16.190  0.00  0.00     0.330 A 
HETATM    8  N   UNK N   1      36.334  14.665  17.509  0.00  0.00    -0.295 N 
HETATM    9  O   UNK N   1      37.585  15.446  15.827  0.00  0.00    -0.246 OA
HETATM   10  C   UNK N   1      35.366  13.820  17.948  0.00  0.00     0.103 A 
ATOM     11  HN  UNK N   1      36.787  15.296  18.170  1.00  0.00     0.172 HD
HETATM   12  C   UNK N   1      34.732  12.964  17.053  0.00  0.00     0.065 A 
HETATM   13  C   UNK N   1      35.115  12.988  15.715  0.00  0.00     0.102 A 
BRANCH  10  14
HETATM   14  N   UNK N   1      35.008  13.803  19.309  0.00  0.00    -0.385 N 
HETATM   15  H   UNK N   1      34.748  14.638  19.761  0.00  0.00     0.157 HD
HETATM   16  H   UNK N   1      35.016  12.955  19.810  0.00  0.00     0.157 HD
ENDBRANCH  10  14
ENDBRANCH   1   6
BRANCH   4  17
HETATM   17  C   UNK N   1      36.292  14.650  10.874  0.00  0.00     0.212 C 
BRANCH  17  18
HETATM   18  O   UNK N   1      35.605  15.856  11.067  0.00  0.00    -0.295 OA
BRANCH  18  19
HETATM   19  P   UNK N   1      34.804  16.166   9.555  0.00  0.00     0.390 P 
HETATM   20  O   UNK N   1      35.337  17.575   9.934  0.00  0.00    -0.632 OA
BRANCH  19  21
HETATM   21  O   UNK N   1      33.377  17.152   9.490  0.00  0.00    -0.307 OA
HETATM   22  H   UNK N   1      32.518  17.054   9.930  0.00  0.00     0.222 HD
ENDBRANCH  19  21
BRANCH  19  23
HETATM   23  O   UNK N   1      33.642  15.644  10.735  0.00  0.00    -0.307 OA
HETATM   24  H   UNK N   1      33.103  16.243  11.275  0.00  0.00     0.222 HD
ENDBRANCH  19  23
ENDBRANCH  18  19
ENDBRANCH  17  18
ENDBRANCH   4  17
TORSDOF 7
ENDMDL
MODEL 5
REMARK VINA RESULT:      -5.8      1.813      2.368
REMARK  7 active torsions:
REMARK  status: ('A' for Active; 'I' for Inactive)
REMARK    1  A    between atoms: N_1  and  C_2 
REMARK    2  A    between atoms: C_10  and  N_7 
REMARK    3  A    between atoms: C_13  and  C_14 
REMARK    4  A    between atoms: C_14  and  O_15 
REMARK    5  A    between atoms: O_15  and  P_16 
REMARK    6  A    between atoms: P_16  and  O_17 
REMARK    7  A    between atoms: P_16  and  O_18 
ROOT
HETATM    1  C   UNK N   1      35.521  13.832  12.161  0.00  0.00     0.232 C 
HETATM    2  C   UNK N   1      35.854  12.850  11.066  0.00  0.00     0.057 C 
HETATM    3  C   UNK N   1      35.365  13.583   9.849  0.00  0.00     0.038 C 
HETATM    4  C   UNK N   1      34.421  14.638  10.412  0.00  0.00     0.148 C 
HETATM    5  O   UNK N   1      34.331  14.479  11.806  0.00  0.00    -0.359 OA
ENDROOT
BRANCH   1   6
HETATM    6  N   UNK N   1      35.414  13.213  13.481  0.00  0.00    -0.282 N 
HETATM    7  C   UNK N   1      36.075  13.698  14.597  0.00  0.00     0.330 A 
HETATM    8  N   UNK N   1      35.966  13.041  15.795  0.00  0.00    -0.295 N 
HETATM    9  O   UNK N   1      36.759  14.705  14.526  0.00  0.00    -0.246 OA
HETATM   10  C   UNK N   1      35.218  11.913  15.905  0.00  0.00     0.103 A 
ATOM     11  HN  UNK N   1      36.452  13.404  16.616  1.00  0.00     0.172 HD
HETATM   12  C   UNK N   1      34.541  11.417  14.796  0.00  0.00     0.065 A 
HETATM   13  C   UNK N   1      34.654  12.090  13.584  0.00  0.00     0.102 A 
BRANCH  10  14
HETATM   14  N   UNK N   1      35.133  11.241  17.139  0.00  0.00    -0.385 N 
HETATM   15  H   UNK N   1      35.950  10.912  17.579  0.00  0.00     0.157 HD
HETATM   16  H   UNK N   1      34.255  11.098  17.562  0.00  0.00     0.157 HD
ENDBRANCH  10  14
ENDBRANCH   1   6
BRANCH   4  17
HETATM   17  C   UNK N   1      34.870  16.054  10.041  0.00  0.00     0.212 C 
BRANCH  17  18
HETATM   18  O   UNK N   1      34.778  16.277   8.660  0.00  0.00    -0.295 OA
BRANCH  18  19
HETATM   19  P   UNK N   1      34.141  17.888   8.505  0.00  0.00     0.390 P 
HETATM   20  O   UNK N   1      34.792  17.660   7.113  0.00  0.00    -0.632 OA
BRANCH  19  21
HETATM   21  O   UNK N   1      35.202  19.252   8.345  0.00  0.00    -0.307 OA
HETATM   22  H   UNK N   1      36.120  19.378   8.634  0.00  0.00     0.222 HD
ENDBRANCH  19  21
BRANCH  19  23
HETATM   23  O   UNK N   1      35.367  17.860   9.734  0.00  0.00    -0.307 OA
HETATM   24  H   UNK N   1      35.192  17.937  10.685  0.00  0.00     0.222 HD
ENDBRANCH  19  23
ENDBRANCH  18  19
ENDBRANCH  17  18
ENDBRANCH   4  17
TORSDOF 7
ENDMDL
MODEL 6
REMARK VINA RESULT:      -5.7      5.859      7.940
REMARK  7 active torsions:
REMARK  status: ('A' for Active; 'I' for Inactive)
REMARK    1  A    between atoms: N_1  and  C_2 
REMARK    2  A    between atoms: C_10  and  N_7 
REMARK    3  A    between atoms: C_13  and  C_14 
REMARK    4  A    between atoms: C_14  and  O_15 
REMARK    5  A    between atoms: O_15  and  P_16 
REMARK    6  A    between atoms: P_16  and  O_17 
REMARK    7  A    between atoms: P_16  and  O_18 
ROOT
HETATM    1  C   UNK N   1      30.974  16.743   5.954  0.00  0.00     0.232 C 
HETATM    2  C   UNK N   1      30.968  15.496   5.105  0.00  0.00     0.057 C 
HETATM    3  C   UNK N   1      32.436  15.308   4.844  0.00  0.00     0.038 C 
HETATM    4  C   UNK N   1      33.042  16.669   5.156  0.00  0.00     0.148 C 
HETATM    5  O   UNK N   1      32.013  17.565   5.498  0.00  0.00    -0.359 OA
ENDROOT
BRANCH   1   6
HETATM    6  N   UNK N   1      29.696  17.454   5.947  0.00  0.00    -0.282 N 
HETATM    7  C   UNK N   1      28.924  17.627   7.084  0.00  0.00     0.330 A 
HETATM    8  N   UNK N   1      27.714  18.264   6.997  0.00  0.00    -0.295 N 
HETATM    9  O   UNK N   1      29.307  17.214   8.165  0.00  0.00    -0.246 OA
HETATM   10  C   UNK N   1      27.255  18.728   5.806  0.00  0.00     0.103 A 
ATOM     11  HN  UNK N   1      27.149  18.393   7.837  1.00  0.00     0.172 HD
HETATM   12  C   UNK N   1      28.021  18.570   4.656  0.00  0.00     0.065 A 
HETATM   13  C   UNK N   1      29.250  17.925   4.752  0.00  0.00     0.102 A 
BRANCH  10  14
HETATM   14  N   UNK N   1      26.001  19.363   5.732  0.00  0.00    -0.385 N 
HETATM   15  H   UNK N   1      25.201  18.848   5.478  0.00  0.00     0.157 HD
HETATM   16  H   UNK N   1      25.923  20.324   5.935  0.00  0.00     0.157 HD
ENDBRANCH  10  14
ENDBRANCH   1   6
BRANCH   4  17
HETATM   17  C   UNK N   1      34.093  16.579   6.266  0.00  0.00     0.212 C 
BRANCH  17  18
HETATM   18  O   UNK N   1      34.487  17.851   6.703  0.00  0.00    -0.295 OA
BRANCH  18  19
HETATM   19  P   UNK N   1      34.041  17.910   8.383  0.00  0.00     0.390 P 
HETATM   20  O   UNK N   1      35.026  19.105   8.267  0.00  0.00    -0.632 OA
BRANCH  19  21
HETATM   21  O   UNK N   1      35.207  17.575   9.624  0.00  0.00    -0.307 OA
HETATM   22  H   UNK N   1      35.722  18.173  10.188  0.00  0.00     0.222 HD
ENDBRANCH  19  21
BRANCH  19  23
HETATM   23  O   UNK N   1      34.883  16.427   8.052  0.00  0.00    -0.307 OA
HETATM   24  H   UNK N   1      34.464  15.552   8.033  0.00  0.00     0.222 HD
ENDBRANCH  19  23
ENDBRANCH  18  19
ENDBRANCH  17  18
ENDBRANCH   4  17
TORSDOF 7
ENDMDL
MODEL 7
REMARK VINA RESULT:      -5.7     10.642     12.465
REMARK  7 active torsions:
REMARK  status: ('A' for Active; 'I' for Inactive)
REMARK    1  A    between atoms: N_1  and  C_2 
REMARK    2  A    between atoms: C_10  and  N_7 
REMARK    3  A    between atoms: C_13  and  C_14 
REMARK    4  A    between atoms: C_14  and  O_15 
REMARK    5  A    between atoms: O_15  and  P_16 
REMARK    6  A    between atoms: P_16  and  O_17 
REMARK    7  A    between atoms: P_16  and  O_18 
ROOT
HETATM    1  C   UNK N   1      25.837  19.768   4.735  0.00  0.00     0.232 C 
HETATM    2  C   UNK N   1      26.479  20.460   3.558  0.00  0.00     0.057 C 
HETATM    3  C   UNK N   1      25.365  20.426   2.550  0.00  0.00     0.038 C 
HETATM    4  C   UNK N   1      24.427  19.347   3.075  0.00  0.00     0.148 C 
HETATM    5  O   UNK N   1      24.984  18.776   4.233  0.00  0.00    -0.359 OA
ENDROOT
BRANCH   1   6
HETATM    6  N   UNK N   1      26.806  19.207   5.675  0.00  0.00    -0.282 N 
HETATM    7  C   UNK N   1      27.271  19.898   6.780  0.00  0.00     0.330 A 
HETATM    8  N   UNK N   1      28.214  19.329   7.596  0.00  0.00    -0.295 N 
HETATM    9  O   UNK N   1      26.853  21.015   7.038  0.00  0.00    -0.246 OA
HETATM   10  C   UNK N   1      28.706  18.091   7.332  0.00  0.00     0.103 A 
ATOM     11  HN  UNK N   1      28.552  19.840   8.411  1.00  0.00     0.172 HD
HETATM   12  C   UNK N   1      28.244  17.379   6.231  0.00  0.00     0.065 A 
HETATM   13  C   UNK N   1      27.284  17.961   5.409  0.00  0.00     0.102 A 
BRANCH  10  14
HETATM   14  N   UNK N   1      29.689  17.529   8.169  0.00  0.00    -0.385 N 
HETATM   15  H   UNK N   1      30.044  16.630   7.979  0.00  0.00     0.157 HD
HETATM   16  H   UNK N   1      30.022  18.035   8.946  0.00  0.00     0.157 HD
ENDBRANCH  10  14
ENDBRANCH   1   6
BRANCH   4  17
HETATM   17  C   UNK N   1      23.026  19.899   3.346  0.00  0.00     0.212 C 
BRANCH  17  18
HETATM   18  O   UNK N   1      22.644  20.831   2.370  0.00  0.00    -0.295 OA
BRANCH  18  19
HETATM   19  P   UNK N   1      21.153  20.216   1.718  0.00  0.00     0.390 P 
HETATM   20  O   UNK N   1      21.892  20.700   0.440  0.00  0.00    -0.632 OA
BRANCH  19  21
HETATM   21  O   UNK N   1      19.998  21.281   0.982  0.00  0.00    -0.307 OA
HETATM   22  H   UNK N   1      19.028  21.269   0.990  0.00  0.00     0.222 HD
ENDBRANCH  19  21
BRANCH  19  23
HETATM   23  O   UNK N   1      20.824  21.572   2.750  0.00  0.00    -0.307 OA
HETATM   24  H   UNK N   1      21.504  22.151   3.128  0.00  0.00     0.222 HD
ENDBRANCH  19  23
ENDBRANCH  18  19
ENDBRANCH  17  18
ENDBRANCH   4  17
TORSDOF 7
ENDMDL
MODEL 8
REMARK VINA RESULT:      -5.6      4.796      7.320
REMARK  7 active torsions:
REMARK  status: ('A' for Active; 'I' for Inactive)
REMARK    1  A    between atoms: N_1  and  C_2 
REMARK    2  A    between atoms: C_10  and  N_7 
REMARK    3  A    between atoms: C_13  and  C_14 
REMARK    4  A    between atoms: C_14  and  O_15 
REMARK    5  A    between atoms: O_15  and  P_16 
REMARK    6  A    between atoms: P_16  and  O_17 
REMARK    7  A    between atoms: P_16  and  O_18 
ROOT
HETATM    1  C   UNK N   1      31.305  16.995   8.105  0.00  0.00     0.232 C 
HETATM    2  C   UNK N   1      31.567  15.681   7.410  0.00  0.00     0.057 C 
HETATM    3  C   UNK N   1      33.046  15.525   7.617  0.00  0.00     0.038 C 
HETATM    4  C   UNK N   1      33.518  16.930   7.970  0.00  0.00     0.148 C 
HETATM    5  O   UNK N   1      32.425  17.813   7.907  0.00  0.00    -0.359 OA
ENDROOT
BRANCH   1   6
HETATM    6  N   UNK N   1      30.081  17.655   7.653  0.00  0.00    -0.282 N 
HETATM    7  C   UNK N   1      29.254  18.370   8.502  0.00  0.00     0.330 A 
HETATM    8  N   UNK N   1      28.097  18.926   8.020  0.00  0.00    -0.295 N 
HETATM    9  O   UNK N   1      29.540  18.511   9.679  0.00  0.00    -0.246 OA
HETATM   10  C   UNK N   1      27.746  18.781   6.717  0.00  0.00     0.103 A 
ATOM     11  HN  UNK N   1      27.492  19.455   8.648  1.00  0.00     0.172 HD
HETATM   12  C   UNK N   1      28.569  18.073   5.849  0.00  0.00     0.065 A 
HETATM   13  C   UNK N   1      29.744  17.514   6.343  0.00  0.00     0.102 A 
BRANCH  10  14
HETATM   14  N   UNK N   1      26.544  19.342   6.243  0.00  0.00    -0.385 N 
HETATM   15  H   UNK N   1      25.679  19.014   6.581  0.00  0.00     0.157 HD
HETATM   16  H   UNK N   1      26.568  20.064   5.574  0.00  0.00     0.157 HD
ENDBRANCH  10  14
ENDBRANCH   1   6
BRANCH   4  17
HETATM   17  C   UNK N   1      34.188  16.972   9.346  0.00  0.00     0.212 C 
BRANCH  17  18
HETATM   18  O   UNK N   1      34.145  15.721   9.976  0.00  0.00    -0.295 OA
BRANCH  18  19
HETATM   19  P   UNK N   1      35.366  15.796  11.212  0.00  0.00     0.390 P 
HETATM   20  O   UNK N   1      35.326  17.264  10.705  0.00  0.00    -0.632 OA
BRANCH  19  21
HETATM   21  O   UNK N   1      37.024  16.111  10.805  0.00  0.00    -0.307 OA
HETATM   22  H   UNK N   1      37.841  15.945  11.300  0.00  0.00     0.222 HD
ENDBRANCH  19  21
BRANCH  19  23
HETATM   23  O   UNK N   1      35.894  14.750   9.930  0.00  0.00    -0.307 OA
HETATM   24  H   UNK N   1      36.758  14.310   9.903  0.00  0.00     0.222 HD
ENDBRANCH  19  23
ENDBRANCH  18  19
ENDBRANCH  17  18
ENDBRANCH   4  17
TORSDOF 7
ENDMDL
MODEL 9
REMARK VINA RESULT:      -5.4      2.800      3.862
REMARK  7 active torsions:
REMARK  status: ('A' for Active; 'I' for Inactive)
REMARK    1  A    between atoms: N_1  and  C_2 
REMARK    2  A    between atoms: C_10  and  N_7 
REMARK    3  A    between atoms: C_13  and  C_14 
REMARK    4  A    between atoms: C_14  and  O_15 
REMARK    5  A    between atoms: O_15  and  P_16 
REMARK    6  A    between atoms: P_16  and  O_17 
REMARK    7  A    between atoms: P_16  and  O_18 
ROOT
HETATM    1  C   UNK N   1      33.993  16.047   8.466  0.00  0.00     0.232 C 
HETATM    2  C   UNK N   1      32.961  17.110   8.749  0.00  0.00     0.057 C 
HETATM    3  C   UNK N   1      32.818  17.753   7.399  0.00  0.00     0.038 C 
HETATM    4  C   UNK N   1      34.072  17.320   6.651  0.00  0.00     0.148 C 
HETATM    5  O   UNK N   1      34.882  16.559   7.513  0.00  0.00    -0.359 OA
ENDROOT
BRANCH   1   6
HETATM    6  N   UNK N   1      34.701  15.594   9.662  0.00  0.00    -0.282 N 
HETATM    7  C   UNK N   1      35.494  16.430  10.430  0.00  0.00     0.330 A 
HETATM    8  N   UNK N   1      36.166  15.927  11.514  0.00  0.00    -0.295 N 
HETATM    9  O   UNK N   1      35.605  17.612  10.152  0.00  0.00    -0.246 OA
HETATM   10  C   UNK N   1      36.070  14.614  11.846  0.00  0.00     0.103 A 
ATOM     11  HN  UNK N   1      36.747  16.547  12.080  1.00  0.00     0.172 HD
HETATM   12  C   UNK N   1      35.271  13.763  11.090  0.00  0.00     0.065 A 
HETATM   13  C   UNK N   1      34.589  14.279   9.993  0.00  0.00     0.102 A 
BRANCH  10  14
HETATM   14  N   UNK N   1      36.783  14.111  12.951  0.00  0.00    -0.385 N 
HETATM   15  H   UNK N   1      37.751  13.948  12.881  0.00  0.00     0.157 HD
HETATM   16  H   UNK N   1      36.312  13.922  13.795  0.00  0.00     0.157 HD
ENDBRANCH  10  14
ENDBRANCH   1   6
BRANCH   4  17
HETATM   17  C   UNK N   1      33.731  16.543   5.378  0.00  0.00     0.212 C 
BRANCH  17  18
HETATM   18  O   UNK N   1      33.143  17.372   4.413  0.00  0.00    -0.295 OA
BRANCH  18  19
HETATM   19  P   UNK N   1      31.854  16.424   3.729  0.00  0.00     0.390 P 
HETATM   20  O   UNK N   1      32.886  16.456   2.567  0.00  0.00    -0.632 OA
BRANCH  19  21
HETATM   21  O   UNK N   1      30.920  17.025   2.395  0.00  0.00    -0.307 OA
HETATM   22  H   UNK N   1      30.626  17.925   2.181  0.00  0.00     0.222 HD
ENDBRANCH  19  21
BRANCH  19  23
HETATM   23  O   UNK N   1      31.289  18.034   4.051  0.00  0.00    -0.307 OA
HETATM   24  H   UNK N   1      30.563  18.248   4.657  0.00  0.00     0.222 HD
ENDBRANCH  19  23
ENDBRANCH  18  19
ENDBRANCH  17  18
ENDBRANCH   4  17
TORSDOF 7
ENDMDL
