MODEL 1
REMARK VINA RESULT:      -6.3      0.000      0.000
REMARK  4 active torsions:
REMARK  status: ('A' for Active; 'I' for Inactive)
REMARK    1  A    between atoms: C_10  and  N_4 
REMARK    2  A    between atoms: C_12  and  O_13 
REMARK    3  A    between atoms: C_14  and  C_15 
REMARK    4  A    between atoms: C_15  and  O_16 
ROOT
HETATM    1  C   UNK N   1      22.874  12.466   9.094  0.00  0.00     0.048 A 
HETATM    2  C   UNK N   1      24.338  12.821   9.387  0.00  0.00     0.064 C 
HETATM    3  C   UNK N   1      24.608  12.293  10.778  0.00  0.00     0.127 C 
HETATM    4  C   UNK N   1      23.273  12.437  11.464  0.00  0.00     0.044 C 
HETATM    5  C   UNK N   1      22.284  11.969  10.418  0.00  0.00     0.025 A 
HETATM    6  C   UNK N   1      21.758  13.237   9.773  0.00  0.00     0.039 A 
ENDROOT
BRANCH   1   7
HETATM    7  N   UNK N   1      22.548  11.627   7.909  0.00  0.00    -0.299 N 
HETATM    8  C   UNK N   1      23.374  10.571   7.643  0.00  0.00     0.109 A 
HETATM    9  C   UNK N   1      23.197   9.772   6.517  0.00  0.00     0.022 A 
HETATM   10  C   UNK N   1      24.134   8.643   6.258  0.00  0.00     0.056 C 
HETATM   11  C   UNK N   1      22.148  10.063   5.646  0.00  0.00     0.256 A 
HETATM   12  N   UNK N   1      21.313  11.108   5.923  0.00  0.00    -0.275 N 
HETATM   13  O   UNK N   1      21.969   9.396   4.641  0.00  0.00    -0.267 OA
HETATM   14  C   UNK N   1      21.497  11.890   7.034  0.00  0.00     0.330 A 
HETATM   15  H   UNK N   1      20.565  11.304   5.313  0.00  0.00     0.173 HD
HETATM   16  O   UNK N   1      20.731  12.816   7.230  0.00  0.00    -0.246 OA
ENDBRANCH   1   7
BRANCH   3  17
HETATM   17  O   UNK N   1      25.590  13.055  11.413  0.00  0.00    -0.395 OA
HETATM   18  H   UNK N   1      26.378  13.436  10.996  0.00  0.00     0.210 HD
ENDBRANCH   3  17
BRANCH   4  19
HETATM   19  C   UNK N   1      23.183  11.667  12.770  0.00  0.00     0.171 C 
BRANCH  19  20
HETATM   20  O   UNK N   1      23.799  12.399  13.787  0.00  0.00    -0.400 OA
HETATM   21  H   UNK N   1      23.613  12.242  14.726  0.00  0.00     0.209 HD
ENDBRANCH  19  20
ENDBRANCH   4  19
TORSDOF 4
ENDMDL
MODEL 2
REMARK VINA RESULT:      -6.2      9.298     10.677
REMARK  4 active torsions:
REMARK  status: ('A' for Active; 'I' for Inactive)
REMARK    1  A    between atoms: C_10  and  N_4 
REMARK    2  A    between atoms: C_12  and  O_13 
REMARK    3  A    between atoms: C_14  and  C_15 
REMARK    4  A    between atoms: C_15  and  O_16 
ROOT
HETATM    1  C   UNK N   1      30.084  17.307   7.209  0.00  0.00     0.048 A 
HETATM    2  C   UNK N   1      30.845  17.420   8.538  0.00  0.00     0.064 C 
HETATM    3  C   UNK N   1      32.285  17.677   8.155  0.00  0.00     0.127 C 
HETATM    4  C   UNK N   1      32.432  16.931   6.853  0.00  0.00     0.044 C 
HETATM    5  C   UNK N   1      31.153  17.255   6.111  0.00  0.00     0.025 A 
HETATM    6  C   UNK N   1      30.242  16.066   6.351  0.00  0.00     0.039 A 
ENDROOT
BRANCH   1   7
HETATM    7  N   UNK N   1      28.949  18.229   6.936  0.00  0.00    -0.299 N 
HETATM    8  C   UNK N   1      28.662  18.499   5.628  0.00  0.00     0.109 A 
HETATM    9  C   UNK N   1      27.667  19.405   5.272  0.00  0.00     0.022 A 
HETATM   10  C   UNK N   1      27.402  19.682   3.831  0.00  0.00     0.056 C 
HETATM   11  C   UNK N   1      26.952  20.048   6.281  0.00  0.00     0.256 A 
HETATM   12  N   UNK N   1      27.230  19.764   7.587  0.00  0.00    -0.275 N 
HETATM   13  O   UNK N   1      26.084  20.861   6.009  0.00  0.00    -0.267 OA
HETATM   14  C   UNK N   1      28.212  18.871   7.928  0.00  0.00     0.330 A 
HETATM   15  H   UNK N   1      26.715  20.210   8.299  0.00  0.00     0.173 HD
HETATM   16  O   UNK N   1      28.427  18.661   9.109  0.00  0.00    -0.246 OA
ENDBRANCH   1   7
BRANCH   3  17
HETATM   17  O   UNK N   1      33.151  17.176   9.128  0.00  0.00    -0.395 OA
HETATM   18  H   UNK N   1      33.696  17.700   9.734  0.00  0.00     0.210 HD
ENDBRANCH   3  17
BRANCH   4  19
HETATM   19  C   UNK N   1      33.688  17.305   6.085  0.00  0.00     0.171 C 
BRANCH  19  20
HETATM   20  O   UNK N   1      34.493  18.124   6.879  0.00  0.00    -0.400 OA
HETATM   21  H   UNK N   1      34.241  19.032   7.111  0.00  0.00     0.209 HD
ENDBRANCH  19  20
ENDBRANCH   4  19
TORSDOF 4
ENDMDL
MODEL 3
REMARK VINA RESULT:      -6.1      1.289      2.073
REMARK  4 active torsions:
REMARK  status: ('A' for Active; 'I' for Inactive)
REMARK    1  A    between atoms: C_10  and  N_4 
REMARK    2  A    between atoms: C_12  and  O_13 
REMARK    3  A    between atoms: C_14  and  C_15 
REMARK    4  A    between atoms: C_15  and  O_16 
ROOT
HETATM    1  C   UNK N   1      22.776  12.673   8.952  0.00  0.00     0.048 A 
HETATM    2  C   UNK N   1      24.258  12.952   9.237  0.00  0.00     0.064 C 
HETATM    3  C   UNK N   1      24.528  12.341  10.595  0.00  0.00     0.127 C 
HETATM    4  C   UNK N   1      23.211  12.505  11.311  0.00  0.00     0.044 C 
HETATM    5  C   UNK N   1      22.186  12.134  10.260  0.00  0.00     0.025 A 
HETATM    6  C   UNK N   1      21.705  13.454   9.689  0.00  0.00     0.039 A 
ENDROOT
BRANCH   1   7
HETATM    7  N   UNK N   1      22.397  11.911   7.732  0.00  0.00    -0.299 N 
HETATM    8  C   UNK N   1      21.355  12.391   6.991  0.00  0.00     0.109 A 
HETATM    9  C   UNK N   1      20.879  11.710   5.875  0.00  0.00     0.022 A 
HETATM   10  C   UNK N   1      19.726  12.262   5.108  0.00  0.00     0.056 C 
HETATM   11  C   UNK N   1      21.486  10.509   5.511  0.00  0.00     0.256 A 
HETATM   12  N   UNK N   1      22.539  10.039   6.243  0.00  0.00    -0.275 N 
HETATM   13  O   UNK N   1      21.087   9.875   4.549  0.00  0.00    -0.267 OA
HETATM   14  C   UNK N   1      23.001  10.717   7.342  0.00  0.00     0.330 A 
HETATM   15  H   UNK N   1      22.976   9.198   5.977  0.00  0.00     0.173 HD
HETATM   16  O   UNK N   1      23.936  10.250   7.967  0.00  0.00    -0.246 OA
ENDBRANCH   1   7
BRANCH   3  17
HETATM   17  O   UNK N   1      25.550  13.028  11.250  0.00  0.00    -0.395 OA
HETATM   18  H   UNK N   1      25.747  12.995  12.199  0.00  0.00     0.210 HD
ENDBRANCH   3  17
BRANCH   4  19
HETATM   19  C   UNK N   1      23.108  11.673  12.577  0.00  0.00     0.171 C 
BRANCH  19  20
HETATM   20  O   UNK N   1      23.794  12.312  13.612  0.00  0.00    -0.400 OA
HETATM   21  H   UNK N   1      24.044  13.248  13.569  0.00  0.00     0.209 HD
ENDBRANCH  19  20
ENDBRANCH   4  19
TORSDOF 4
ENDMDL
MODEL 4
REMARK VINA RESULT:      -6.1     11.114     13.211
REMARK  4 active torsions:
REMARK  status: ('A' for Active; 'I' for Inactive)
REMARK    1  A    between atoms: C_10  and  N_4 
REMARK    2  A    between atoms: C_12  and  O_13 
REMARK    3  A    between atoms: C_14  and  C_15 
REMARK    4  A    between atoms: C_15  and  O_16 
ROOT
HETATM    1  C   UNK N   1      34.158  15.338   8.919  0.00  0.00     0.048 A 
HETATM    2  C   UNK N   1      34.883  16.114   7.810  0.00  0.00     0.064 C 
HETATM    3  C   UNK N   1      34.003  17.309   7.515  0.00  0.00     0.127 C 
HETATM    4  C   UNK N   1      32.614  16.783   7.776  0.00  0.00     0.044 C 
HETATM    5  C   UNK N   1      32.771  15.978   9.048  0.00  0.00     0.025 A 
HETATM    6  C   UNK N   1      32.912  14.538   8.592  0.00  0.00     0.039 A 
ENDROOT
BRANCH   1   7
HETATM    7  N   UNK N   1      34.854  15.087  10.210  0.00  0.00    -0.299 N 
HETATM    8  C   UNK N   1      34.748  13.835  10.747  0.00  0.00     0.109 A 
HETATM    9  C   UNK N   1      35.301  13.523  11.984  0.00  0.00     0.022 A 
HETATM   10  C   UNK N   1      35.143  12.148  12.539  0.00  0.00     0.056 C 
HETATM   11  C   UNK N   1      35.980  14.518  12.687  0.00  0.00     0.256 A 
HETATM   12  N   UNK N   1      36.100  15.764  12.141  0.00  0.00    -0.275 N 
HETATM   13  O   UNK N   1      36.464  14.288  13.782  0.00  0.00    -0.267 OA
HETATM   14  C   UNK N   1      35.550  16.062  10.921  0.00  0.00     0.330 A 
HETATM   15  H   UNK N   1      36.590  16.462  12.633  0.00  0.00     0.173 HD
HETATM   16  O   UNK N   1      35.677  17.192  10.484  0.00  0.00    -0.246 OA
ENDBRANCH   1   7
BRANCH   3  17
HETATM   17  O   UNK N   1      34.152  17.715   6.189  0.00  0.00    -0.395 OA
HETATM   18  H   UNK N   1      34.623  18.504   5.881  0.00  0.00     0.210 HD
ENDBRANCH   3  17
BRANCH   4  19
HETATM   19  C   UNK N   1      31.568  17.879   7.878  0.00  0.00     0.171 C 
BRANCH  19  20
HETATM   20  O   UNK N   1      31.072  17.930   9.183  0.00  0.00    -0.400 OA
HETATM   21  H   UNK N   1      31.362  18.599   9.823  0.00  0.00     0.209 HD
ENDBRANCH  19  20
ENDBRANCH   4  19
TORSDOF 4
ENDMDL
MODEL 5
REMARK VINA RESULT:      -6.0     10.379     11.480
REMARK  4 active torsions:
REMARK  status: ('A' for Active; 'I' for Inactive)
REMARK    1  A    between atoms: C_10  and  N_4 
REMARK    2  A    between atoms: C_12  and  O_13 
REMARK    3  A    between atoms: C_14  and  C_15 
REMARK    4  A    between atoms: C_15  and  O_16 
ROOT
HETATM    1  C   UNK N   1      32.509  16.904   7.852  0.00  0.00     0.048 A 
HETATM    2  C   UNK N   1      33.588  17.716   8.582  0.00  0.00     0.064 C 
HETATM    3  C   UNK N   1      34.401  16.700   9.355  0.00  0.00     0.127 C 
HETATM    4  C   UNK N   1      33.384  15.641   9.702  0.00  0.00     0.044 C 
HETATM    5  C   UNK N   1      32.585  15.485   8.426  0.00  0.00     0.025 A 
HETATM    6  C   UNK N   1      31.341  16.328   8.629  0.00  0.00     0.039 A 
ENDROOT
BRANCH   1   7
HETATM    7  N   UNK N   1      32.419  16.976   6.369  0.00  0.00    -0.299 N 
HETATM    8  C   UNK N   1      31.171  17.078   5.821  0.00  0.00     0.109 A 
HETATM    9  C   UNK N   1      30.978  17.078   4.443  0.00  0.00     0.022 A 
HETATM   10  C   UNK N   1      29.596  17.173   3.891  0.00  0.00     0.056 C 
HETATM   11  C   UNK N   1      32.090  16.972   3.609  0.00  0.00     0.256 A 
HETATM   12  N   UNK N   1      33.337  16.886   4.158  0.00  0.00    -0.275 N 
HETATM   13  O   UNK N   1      31.959  16.952   2.397  0.00  0.00    -0.267 OA
HETATM   14  C   UNK N   1      33.517  16.886   5.517  0.00  0.00     0.330 A 
HETATM   15  H   UNK N   1      34.122  16.824   3.567  0.00  0.00     0.173 HD
HETATM   16  O   UNK N   1      34.650  16.797   5.956  0.00  0.00    -0.246 OA
ENDBRANCH   1   7
BRANCH   3  17
HETATM   17  O   UNK N   1      34.947  17.276  10.503  0.00  0.00    -0.395 OA
HETATM   18  H   UNK N   1      34.538  17.965  11.048  0.00  0.00     0.210 HD
ENDBRANCH   3  17
BRANCH   4  19
HETATM   19  C   UNK N   1      34.009  14.346  10.188  0.00  0.00     0.171 C 
BRANCH  19  20
HETATM   20  O   UNK N   1      34.100  14.366  11.581  0.00  0.00    -0.400 OA
HETATM   21  H   UNK N   1      34.733  14.931  12.053  0.00  0.00     0.209 HD
ENDBRANCH  19  20
ENDBRANCH   4  19
TORSDOF 4
ENDMDL
MODEL 6
REMARK VINA RESULT:      -5.9      6.442      8.453
REMARK  4 active torsions:
REMARK  status: ('A' for Active; 'I' for Inactive)
REMARK    1  A    between atoms: C_10  and  N_4 
REMARK    2  A    between atoms: C_12  and  O_13 
REMARK    3  A    between atoms: C_14  and  C_15 
REMARK    4  A    between atoms: C_15  and  O_16 
ROOT
HETATM    1  C   UNK N   1      21.770  17.253   4.147  0.00  0.00     0.048 A 
HETATM    2  C   UNK N   1      23.120  17.982   4.117  0.00  0.00     0.064 C 
HETATM    3  C   UNK N   1      22.789  19.431   3.836  0.00  0.00     0.127 C 
HETATM    4  C   UNK N   1      21.559  19.338   2.967  0.00  0.00     0.044 C 
HETATM    5  C   UNK N   1      20.733  18.260   3.636  0.00  0.00     0.025 A 
HETATM    6  C   UNK N   1      21.022  16.993   2.853  0.00  0.00     0.039 A 
ENDROOT
BRANCH   1   7
HETATM    7  N   UNK N   1      21.369  16.507   5.370  0.00  0.00    -0.299 N 
HETATM    8  C   UNK N   1      21.153  15.164   5.242  0.00  0.00     0.109 A 
HETATM    9  C   UNK N   1      20.705  14.392   6.310  0.00  0.00     0.022 A 
HETATM   10  C   UNK N   1      20.466  12.934   6.119  0.00  0.00     0.056 C 
HETATM   11  C   UNK N   1      20.474  15.013   7.537  0.00  0.00     0.256 A 
HETATM   12  N   UNK N   1      20.706  16.353   7.667  0.00  0.00    -0.275 N 
HETATM   13  O   UNK N   1      20.066  14.374   8.492  0.00  0.00    -0.267 OA
HETATM   14  C   UNK N   1      21.147  17.104   6.609  0.00  0.00     0.330 A 
HETATM   15  H   UNK N   1      20.554  16.787   8.537  0.00  0.00     0.173 HD
HETATM   16  O   UNK N   1      21.328  18.298   6.774  0.00  0.00    -0.246 OA
ENDBRANCH   1   7
BRANCH   3  17
HETATM   17  O   UNK N   1      23.839  20.056   3.162  0.00  0.00    -0.395 OA
HETATM   18  H   UNK N   1      23.785  20.497   2.301  0.00  0.00     0.210 HD
ENDBRANCH   3  17
BRANCH   4  19
HETATM   19  C   UNK N   1      20.826  20.659   2.821  0.00  0.00     0.171 C 
BRANCH  19  20
HETATM   20  O   UNK N   1      21.752  21.692   2.662  0.00  0.00    -0.400 OA
HETATM   21  H   UNK N   1      21.706  22.322   1.926  0.00  0.00     0.209 HD
ENDBRANCH  19  20
ENDBRANCH   4  19
TORSDOF 4
ENDMDL
MODEL 7
REMARK VINA RESULT:      -5.9      8.396      9.497
REMARK  4 active torsions:
REMARK  status: ('A' for Active; 'I' for Inactive)
REMARK    1  A    between atoms: C_10  and  N_4 
REMARK    2  A    between atoms: C_12  and  O_13 
REMARK    3  A    between atoms: C_14  and  C_15 
REMARK    4  A    between atoms: C_15  and  O_16 
ROOT
HETATM    1  C   UNK N   1      26.213  19.943   4.554  0.00  0.00     0.048 A 
HETATM    2  C   UNK N   1      27.311  19.147   3.835  0.00  0.00     0.064 C 
HETATM    3  C   UNK N   1      28.073  18.434   4.931  0.00  0.00     0.127 C 
HETATM    4  C   UNK N   1      27.976  19.391   6.093  0.00  0.00     0.044 C 
HETATM    5  C   UNK N   1      26.537  19.858   6.050  0.00  0.00     0.025 A 
HETATM    6  C   UNK N   1      26.573  21.194   5.333  0.00  0.00     0.039 A 
ENDROOT
BRANCH   1   7
HETATM    7  N   UNK N   1      24.787  19.700   4.206  0.00  0.00    -0.299 N 
HETATM    8  C   UNK N   1      24.117  18.756   4.933  0.00  0.00     0.109 A 
HETATM    9  C   UNK N   1      22.804  18.404   4.637  0.00  0.00     0.022 A 
HETATM   10  C   UNK N   1      22.120  17.356   5.446  0.00  0.00     0.056 C 
HETATM   11  C   UNK N   1      22.164  19.035   3.571  0.00  0.00     0.256 A 
HETATM   12  N   UNK N   1      22.830  19.990   2.857  0.00  0.00    -0.275 N 
HETATM   13  O   UNK N   1      21.019  18.743   3.271  0.00  0.00    -0.267 OA
HETATM   14  C   UNK N   1      24.123  20.329   3.156  0.00  0.00     0.330 A 
HETATM   15  H   UNK N   1      22.371  20.444   2.113  0.00  0.00     0.173 HD
HETATM   16  O   UNK N   1      24.676  21.180   2.481  0.00  0.00    -0.246 OA
ENDBRANCH   1   7
BRANCH   3  17
HETATM   17  O   UNK N   1      29.400  18.226   4.554  0.00  0.00    -0.395 OA
HETATM   18  H   UNK N   1      30.166  18.743   4.846  0.00  0.00     0.210 HD
ENDBRANCH   3  17
BRANCH   4  19
HETATM   19  C   UNK N   1      28.371  18.765   7.419  0.00  0.00     0.171 C 
BRANCH  19  20
HETATM   20  O   UNK N   1      27.496  19.197   8.417  0.00  0.00    -0.400 OA
HETATM   21  H   UNK N   1      26.993  18.579   8.971  0.00  0.00     0.209 HD
ENDBRANCH  19  20
ENDBRANCH   4  19
TORSDOF 4
ENDMDL
MODEL 8
REMARK VINA RESULT:      -5.8      7.469      9.153
REMARK  4 active torsions:
REMARK  status: ('A' for Active; 'I' for Inactive)
REMARK    1  A    between atoms: C_10  and  N_4 
REMARK    2  A    between atoms: C_12  and  O_13 
REMARK    3  A    between atoms: C_14  and  C_15 
REMARK    4  A    between atoms: C_15  and  O_16 
ROOT
HETATM    1  C   UNK N   1      21.020  18.240   3.829  0.00  0.00     0.048 A 
HETATM    2  C   UNK N   1      20.606  19.618   3.294  0.00  0.00     0.064 C 
HETATM    3  C   UNK N   1      21.875  20.234   2.747  0.00  0.00     0.127 C 
HETATM    4  C   UNK N   1      22.945  19.669   3.647  0.00  0.00     0.044 C 
HETATM    5  C   UNK N   1      22.552  18.215   3.796  0.00  0.00     0.025 A 
HETATM    6  C   UNK N   1      21.812  18.136   5.118  0.00  0.00     0.039 A 
ENDROOT
BRANCH   1   7
HETATM    7  N   UNK N   1      20.362  17.019   3.290  0.00  0.00    -0.299 N 
HETATM    8  C   UNK N   1      20.028  16.041   4.184  0.00  0.00     0.109 A 
HETATM    9  C   UNK N   1      19.475  14.833   3.770  0.00  0.00     0.022 A 
HETATM   10  C   UNK N   1      19.144  13.788   4.780  0.00  0.00     0.056 C 
HETATM   11  C   UNK N   1      19.261  14.624   2.408  0.00  0.00     0.256 A 
HETATM   12  N   UNK N   1      19.580  15.610   1.519  0.00  0.00    -0.275 N 
HETATM   13  O   UNK N   1      18.794  13.572   2.005  0.00  0.00    -0.267 OA
HETATM   14  C   UNK N   1      20.124  16.796   1.936  0.00  0.00     0.330 A 
HETATM   15  H   UNK N   1      19.416  15.466   0.558  0.00  0.00     0.173 HD
HETATM   16  O   UNK N   1      20.401  17.639   1.101  0.00  0.00    -0.246 OA
ENDBRANCH   1   7
BRANCH   3  17
HETATM   17  O   UNK N   1      21.823  21.626   2.832  0.00  0.00    -0.395 OA
HETATM   18  H   UNK N   1      21.347  22.219   2.231  0.00  0.00     0.210 HD
ENDBRANCH   3  17
BRANCH   4  19
HETATM   19  C   UNK N   1      24.350  19.864   3.105  0.00  0.00     0.171 C 
BRANCH  19  20
HETATM   20  O   UNK N   1      24.354  20.917   2.188  0.00  0.00    -0.400 OA
HETATM   21  H   UNK N   1      23.665  21.021   1.512  0.00  0.00     0.209 HD
ENDBRANCH  19  20
ENDBRANCH   4  19
TORSDOF 4
ENDMDL
MODEL 9
REMARK VINA RESULT:      -5.8     10.986     13.025
REMARK  4 active torsions:
REMARK  status: ('A' for Active; 'I' for Inactive)
REMARK    1  A    between atoms: C_10  and  N_4 
REMARK    2  A    between atoms: C_12  and  O_13 
REMARK    3  A    between atoms: C_14  and  C_15 
REMARK    4  A    between atoms: C_15  and  O_16 
ROOT
HETATM    1  C   UNK N   1      33.591  17.071   8.407  0.00  0.00     0.048 A 
HETATM    2  C   UNK N   1      32.058  16.998   8.356  0.00  0.00     0.064 C 
HETATM    3  C   UNK N   1      31.713  16.820   6.894  0.00  0.00     0.127 C 
HETATM    4  C   UNK N   1      32.812  17.575   6.189  0.00  0.00     0.044 C 
HETATM    5  C   UNK N   1      34.059  17.182   6.952  0.00  0.00     0.025 A 
HETATM    6  C   UNK N   1      34.304  18.319   7.925  0.00  0.00     0.039 A 
ENDROOT
BRANCH   1   7
HETATM    7  N   UNK N   1      34.342  16.088   9.233  0.00  0.00    -0.299 N 
HETATM    8  C   UNK N   1      34.042  14.766   9.062  0.00  0.00     0.109 A 
HETATM    9  C   UNK N   1      34.637  13.777   9.839  0.00  0.00     0.022 A 
HETATM   10  C   UNK N   1      34.265  12.348   9.628  0.00  0.00     0.056 C 
HETATM   11  C   UNK N   1      35.561  14.153  10.813  0.00  0.00     0.256 A 
HETATM   12  N   UNK N   1      35.871  15.473  10.971  0.00  0.00    -0.275 N 
HETATM   13  O   UNK N   1      36.091  13.317  11.525  0.00  0.00    -0.267 OA
HETATM   14  C   UNK N   1      35.279  16.440  10.202  0.00  0.00     0.330 A 
HETATM   15  H   UNK N   1      36.533  15.736  11.652  0.00  0.00     0.173 HD
HETATM   16  O   UNK N   1      35.583  17.605  10.390  0.00  0.00    -0.246 OA
ENDBRANCH   1   7
BRANCH   3  17
HETATM   17  O   UNK N   1      30.460  17.367   6.613  0.00  0.00    -0.395 OA
HETATM   18  H   UNK N   1      30.277  18.290   6.384  0.00  0.00     0.210 HD
ENDBRANCH   3  17
BRANCH   4  19
HETATM   19  C   UNK N   1      32.890  17.272   4.703  0.00  0.00     0.171 C 
BRANCH  19  20
HETATM   20  O   UNK N   1      31.877  17.960   4.033  0.00  0.00    -0.400 OA
HETATM   21  H   UNK N   1      30.975  18.030   4.385  0.00  0.00     0.209 HD
ENDBRANCH  19  20
ENDBRANCH   4  19
TORSDOF 4
ENDMDL
