REMARK  0 active torsions:
REMARK  status: ('A' for Active; 'I' for Inactive)
ROOT
HETATM    1  C   UNK N   1       1.652   0.570   0.000  0.00  0.00     0.126 A 
HETATM    2  C   UNK N   1      -0.550   0.565  -0.000  0.00  0.00     0.126 A 
HETATM    3  C   UNK N   1       0.549   1.390   0.000  0.00  0.00     0.040 A 
HETATM    4  I   UNK N   1       0.553   3.485  -0.000  0.00  0.00    -0.042 I 
HETATM    5  N   UNK N   1       1.215  -0.703   0.000  0.00  0.00    -0.311 N 
HETATM    6  N   UNK N   1      -0.108  -0.706  -0.000  0.00  0.00    -0.311 N 
ATOM      7  HN  UNK N   1      -0.697  -1.538  -0.000  1.00  0.00     0.186 HD
HETATM    8  H   UNK N   1       1.789  -1.503   0.000  0.00  0.00     0.186 HD
ENDROOT
TORSDOF 0
