MODEL 1
REMARK VINA RESULT:      -6.1      0.000      0.000
REMARK  6 active torsions:
REMARK  status: ('A' for Active; 'I' for Inactive)
REMARK    1  A    between atoms: C_5  and  C_2 
REMARK    2  A    between atoms: O_17  and  C_2 
REMARK    3  A    between atoms: C_10  and  C_4 
REMARK    4  A    between atoms: C_8  and  O_18 
REMARK    5  A    between atoms: C_9  and  O_19 
REMARK    6  A    between atoms: O_20  and  C_11 
ROOT
HETATM    1  C   UNK N   1      33.999  18.538   8.162  0.00  0.00     0.101 A 
HETATM    2  C   UNK N   1      33.395  14.778  10.525  0.00  0.00     0.183 A 
HETATM    3  C   UNK N   1      32.918  17.672   8.344  0.00  0.00     0.018 A 
HETATM    4  C   UNK N   1      33.363  16.697   9.194  0.00  0.00     0.074 A 
HETATM    5  C   UNK N   1      34.648  16.974   9.503  0.00  0.00     0.111 A 
HETATM    6  C   UNK N   1      35.347  16.136  10.361  0.00  0.00     0.170 A 
HETATM    7  N   UNK N   1      35.064  18.097   8.887  0.00  0.00    -0.360 N 
HETATM    8  N   UNK N   1      32.714  15.615   9.686  0.00  0.00    -0.350 N 
ATOM      9  HN  UNK N   1      31.742  15.429   9.436  1.00  0.00     0.166 HD
HETATM   10  N   UNK N   1      34.700  15.040  10.859  0.00  0.00    -0.331 N 
ATOM     11  HN  UNK N   1      35.194  14.408  11.489  1.00  0.00     0.168 HD
HETATM   12  H   UNK N   1      35.955  18.512   8.947  0.00  0.00     0.165 HD
ENDROOT
BRANCH   3  13
HETATM   13  C   UNK N   1      31.527  17.748   7.781  0.00  0.00     0.190 C 
HETATM   14  C   UNK N   1      31.151  16.800   6.631  0.00  0.00     0.183 C 
HETATM   15  C   UNK N   1      29.645  16.637   6.850  0.00  0.00     0.180 C 
HETATM   16  C   UNK N   1      29.363  17.585   8.011  0.00  0.00     0.177 C 
HETATM   17  O   UNK N   1      30.545  17.560   8.775  0.00  0.00    -0.368 OA
BRANCH  14  18
HETATM   18  O   UNK N   1      31.757  15.548   6.786  0.00  0.00    -0.390 OA
HETATM   19  H   UNK N   1      32.255  14.862   6.312  0.00  0.00     0.210 HD
ENDBRANCH  14  18
BRANCH  15  20
HETATM   20  O   UNK N   1      28.887  16.943   5.717  0.00  0.00    -0.390 OA
HETATM   21  H   UNK N   1      28.612  17.757   5.268  0.00  0.00     0.210 HD
ENDBRANCH  15  20
BRANCH  16  22
HETATM   22  C   UNK N   1      28.156  17.181   8.847  0.00  0.00     0.198 C 
BRANCH  22  23
HETATM   23  O   UNK N   1      27.506  18.314   9.338  0.00  0.00    -0.398 OA
HETATM   24  H   UNK N   1      27.919  19.175   9.508  0.00  0.00     0.209 HD
ENDBRANCH  22  23
ENDBRANCH  16  22
ENDBRANCH   3  13
BRANCH   6  25
HETATM   25  O   UNK N   1      36.623  16.388  10.697  0.00  0.00    -0.344 OA
HETATM   26  H   UNK N   1      36.851  16.841  11.484  0.00  0.00     0.219 HD
ENDBRANCH   6  25
TORSDOF 6
ENDMDL
MODEL 2
REMARK VINA RESULT:      -6.1      2.720      5.858
REMARK  6 active torsions:
REMARK  status: ('A' for Active; 'I' for Inactive)
REMARK    1  A    between atoms: C_5  and  C_2 
REMARK    2  A    between atoms: O_17  and  C_2 
REMARK    3  A    between atoms: C_10  and  C_4 
REMARK    4  A    between atoms: C_8  and  O_18 
REMARK    5  A    between atoms: C_9  and  O_19 
REMARK    6  A    between atoms: O_20  and  C_11 
ROOT
HETATM    1  C   UNK N   1      32.971  17.523   4.632  0.00  0.00     0.101 A 
HETATM    2  C   UNK N   1      29.165  16.799   6.884  0.00  0.00     0.183 A 
HETATM    3  C   UNK N   1      32.680  17.141   5.943  0.00  0.00     0.018 A 
HETATM    4  C   UNK N   1      31.316  17.086   6.019  0.00  0.00     0.074 A 
HETATM    5  C   UNK N   1      30.821  17.418   4.807  0.00  0.00     0.111 A 
HETATM    6  C   UNK N   1      29.448  17.438   4.605  0.00  0.00     0.170 A 
HETATM    7  N   UNK N   1      31.812  17.689   3.936  0.00  0.00    -0.360 N 
HETATM    8  N   UNK N   1      30.519  16.774   7.069  0.00  0.00    -0.350 N 
ATOM      9  HN  UNK N   1      30.920  16.526   7.975  1.00  0.00     0.166 HD
HETATM   10  N   UNK N   1      28.637  17.127   5.660  0.00  0.00    -0.331 N 
ATOM     11  HN  UNK N   1      27.625  17.139   5.536  1.00  0.00     0.168 HD
HETATM   12  H   UNK N   1      31.717  17.953   2.993  0.00  0.00     0.165 HD
ENDROOT
BRANCH   3  13
HETATM   13  C   UNK N   1      33.616  16.817   7.075  0.00  0.00     0.190 C 
HETATM   14  C   UNK N   1      33.854  17.885   8.154  0.00  0.00     0.183 C 
HETATM   15  C   UNK N   1      34.173  17.019   9.375  0.00  0.00     0.180 C 
HETATM   16  C   UNK N   1      34.175  15.606   8.801  0.00  0.00     0.177 C 
HETATM   17  O   UNK N   1      33.225  15.651   7.764  0.00  0.00    -0.368 OA
BRANCH  14  18
HETATM   18  O   UNK N   1      32.687  18.610   8.419  0.00  0.00    -0.390 OA
HETATM   19  H   UNK N   1      32.044  18.819   9.115  0.00  0.00     0.210 HD
ENDBRANCH  14  18
BRANCH  15  20
HETATM   20  O   UNK N   1      35.387  17.348   9.982  0.00  0.00    -0.390 OA
HETATM   21  H   UNK N   1      35.710  18.079  10.532  0.00  0.00     0.210 HD
ENDBRANCH  15  20
BRANCH  16  22
HETATM   22  C   UNK N   1      33.825  14.534   9.824  0.00  0.00     0.198 C 
BRANCH  22  23
HETATM   23  O   UNK N   1      33.406  15.122  11.019  0.00  0.00    -0.398 OA
HETATM   24  H   UNK N   1      33.320  16.074  11.181  0.00  0.00     0.209 HD
ENDBRANCH  22  23
ENDBRANCH  16  22
ENDBRANCH   3  13
BRANCH   6  25
HETATM   25  O   UNK N   1      28.923  17.754   3.409  0.00  0.00    -0.344 OA
HETATM   26  H   UNK N   1      28.117  17.385   3.106  0.00  0.00     0.219 HD
ENDBRANCH   6  25
TORSDOF 6
ENDMDL
MODEL 3
REMARK VINA RESULT:      -6.0      3.519      5.285
REMARK  6 active torsions:
REMARK  status: ('A' for Active; 'I' for Inactive)
REMARK    1  A    between atoms: C_5  and  C_2 
REMARK    2  A    between atoms: O_17  and  C_2 
REMARK    3  A    between atoms: C_10  and  C_4 
REMARK    4  A    between atoms: C_8  and  O_18 
REMARK    5  A    between atoms: C_9  and  O_19 
REMARK    6  A    between atoms: O_20  and  C_11 
ROOT
HETATM    1  C   UNK N   1      37.438  14.294  10.110  0.00  0.00     0.101 A 
HETATM    2  C   UNK N   1      34.761  12.426  13.181  0.00  0.00     0.183 A 
HETATM    3  C   UNK N   1      36.061  14.326  10.342  0.00  0.00     0.018 A 
HETATM    4  C   UNK N   1      35.853  13.548  11.448  0.00  0.00     0.074 A 
HETATM    5  C   UNK N   1      37.053  13.079  11.854  0.00  0.00     0.111 A 
HETATM    6  C   UNK N   1      37.130  12.258  12.970  0.00  0.00     0.170 A 
HETATM    7  N   UNK N   1      38.043  13.522  11.055  0.00  0.00    -0.360 N 
HETATM    8  N   UNK N   1      34.699  13.241  12.086  0.00  0.00    -0.350 N 
ATOM      9  HN  UNK N   1      33.805  13.610  11.758  1.00  0.00     0.166 HD
HETATM   10  N   UNK N   1      35.969  11.941  13.618  0.00  0.00    -0.331 N 
ATOM     11  HN  UNK N   1      36.000  11.336  14.438  1.00  0.00     0.168 HD
HETATM   12  H   UNK N   1      39.004  13.325  11.136  0.00  0.00     0.165 HD
ENDROOT
BRANCH   3  13
HETATM   13  C   UNK N   1      34.982  15.058   9.594  0.00  0.00     0.190 C 
HETATM   14  C   UNK N   1      34.591  16.466  10.070  0.00  0.00     0.183 C 
HETATM   15  C   UNK N   1      34.114  17.108   8.765  0.00  0.00     0.180 C 
HETATM   16  C   UNK N   1      34.201  15.958   7.766  0.00  0.00     0.177 C 
HETATM   17  O   UNK N   1      35.283  15.183   8.222  0.00  0.00    -0.368 OA
BRANCH  14  18
HETATM   18  O   UNK N   1      35.706  17.176  10.529  0.00  0.00    -0.390 OA
HETATM   19  H   UNK N   1      36.676  17.190  10.519  0.00  0.00     0.210 HD
ENDBRANCH  14  18
BRANCH  15  20
HETATM   20  O   UNK N   1      32.827  17.642   8.851  0.00  0.00    -0.390 OA
HETATM   21  H   UNK N   1      31.986  17.499   8.388  0.00  0.00     0.210 HD
ENDBRANCH  15  20
BRANCH  16  22
HETATM   22  C   UNK N   1      34.415  16.415   6.330  0.00  0.00     0.198 C 
BRANCH  22  23
HETATM   23  O   UNK N   1      34.302  17.803   6.240  0.00  0.00    -0.398 OA
HETATM   24  H   UNK N   1      33.481  18.295   6.082  0.00  0.00     0.209 HD
ENDBRANCH  22  23
ENDBRANCH  16  22
ENDBRANCH   3  13
BRANCH   6  25
HETATM   25  O   UNK N   1      38.308  11.782  13.407  0.00  0.00    -0.344 OA
HETATM   26  H   UNK N   1      38.366  11.034  13.968  0.00  0.00     0.219 HD
ENDBRANCH   6  25
TORSDOF 6
ENDMDL
MODEL 4
REMARK VINA RESULT:      -6.0      9.925     12.067
REMARK  6 active torsions:
REMARK  status: ('A' for Active; 'I' for Inactive)
REMARK    1  A    between atoms: C_5  and  C_2 
REMARK    2  A    between atoms: O_17  and  C_2 
REMARK    3  A    between atoms: C_10  and  C_4 
REMARK    4  A    between atoms: C_8  and  O_18 
REMARK    5  A    between atoms: C_9  and  O_19 
REMARK    6  A    between atoms: O_20  and  C_11 
ROOT
HETATM    1  C   UNK N   1      24.118  17.638   4.889  0.00  0.00     0.101 A 
HETATM    2  C   UNK N   1      20.979  20.265   3.064  0.00  0.00     0.183 A 
HETATM    3  C   UNK N   1      22.722  17.647   4.926  0.00  0.00     0.018 A 
HETATM    4  C   UNK N   1      22.337  18.709   4.154  0.00  0.00     0.074 A 
HETATM    5  C   UNK N   1      23.454  19.301   3.679  0.00  0.00     0.111 A 
HETATM    6  C   UNK N   1      23.349  20.413   2.857  0.00  0.00     0.170 A 
HETATM    7  N   UNK N   1      24.560  18.665   4.111  0.00  0.00    -0.360 N 
HETATM    8  N   UNK N   1      21.094  19.164   3.866  0.00  0.00    -0.350 N 
ATOM      9  HN  UNK N   1      20.266  18.697   4.238  1.00  0.00     0.166 HD
HETATM   10  N   UNK N   1      22.098  20.881   2.564  0.00  0.00    -0.331 N 
ATOM     11  HN  UNK N   1      21.996  21.700   1.965  1.00  0.00     0.168 HD
HETATM   12  H   UNK N   1      25.495  18.897   3.908  0.00  0.00     0.165 HD
ENDROOT
BRANCH   3  13
HETATM   13  C   UNK N   1      21.778  16.706   5.621  0.00  0.00     0.190 C 
HETATM   14  C   UNK N   1      21.234  17.104   7.002  0.00  0.00     0.183 C 
HETATM   15  C   UNK N   1      19.882  16.388   7.016  0.00  0.00     0.180 C 
HETATM   16  C   UNK N   1      19.893  15.610   5.705  0.00  0.00     0.177 C 
HETATM   17  O   UNK N   1      20.648  16.412   4.830  0.00  0.00    -0.368 OA
BRANCH  14  18
HETATM   18  O   UNK N   1      21.005  18.483   7.080  0.00  0.00    -0.390 OA
HETATM   19  H   UNK N   1      20.342  19.147   7.329  0.00  0.00     0.210 HD
ENDBRANCH  14  18
BRANCH  15  20
HETATM   20  O   UNK N   1      19.708  15.559   8.126  0.00  0.00    -0.390 OA
HETATM   21  H   UNK N   1      18.986  15.376   8.747  0.00  0.00     0.210 HD
ENDBRANCH  15  20
BRANCH  16  22
HETATM   22  C   UNK N   1      18.503  15.339   5.145  0.00  0.00     0.198 C 
BRANCH  22  23
HETATM   23  O   UNK N   1      17.529  15.894   5.976  0.00  0.00    -0.398 OA
HETATM   24  H   UNK N   1      16.588  15.987   5.762  0.00  0.00     0.209 HD
ENDBRANCH  22  23
ENDBRANCH  16  22
ENDBRANCH   3  13
BRANCH   6  25
HETATM   25  O   UNK N   1      24.439  21.021   2.360  0.00  0.00    -0.344 OA
HETATM   26  H   UNK N   1      25.156  20.539   1.999  0.00  0.00     0.219 HD
ENDBRANCH   6  25
TORSDOF 6
ENDMDL
MODEL 5
REMARK VINA RESULT:      -5.9      7.095      9.279
REMARK  6 active torsions:
REMARK  status: ('A' for Active; 'I' for Inactive)
REMARK    1  A    between atoms: C_5  and  C_2 
REMARK    2  A    between atoms: O_17  and  C_2 
REMARK    3  A    between atoms: C_10  and  C_4 
REMARK    4  A    between atoms: C_8  and  O_18 
REMARK    5  A    between atoms: C_9  and  O_19 
REMARK    6  A    between atoms: O_20  and  C_11 
ROOT
HETATM    1  C   UNK N   1      25.737  17.689   3.459  0.00  0.00     0.101 A 
HETATM    2  C   UNK N   1      27.078  20.318   6.832  0.00  0.00     0.183 A 
HETATM    3  C   UNK N   1      25.154  18.757   4.145  0.00  0.00     0.018 A 
HETATM    4  C   UNK N   1      26.076  19.147   5.077  0.00  0.00     0.074 A 
HETATM    5  C   UNK N   1      27.158  18.349   4.947  0.00  0.00     0.111 A 
HETATM    6  C   UNK N   1      28.255  18.534   5.777  0.00  0.00     0.170 A 
HETATM    7  N   UNK N   1      26.980  17.447   3.962  0.00  0.00    -0.360 N 
HETATM    8  N   UNK N   1      26.007  20.133   6.003  0.00  0.00    -0.350 N 
ATOM      9  HN  UNK N   1      25.177  20.723   6.079  1.00  0.00     0.166 HD
HETATM   10  N   UNK N   1      28.192  19.525   6.716  0.00  0.00    -0.331 N 
ATOM     11  HN  UNK N   1      28.984  19.676   7.339  1.00  0.00     0.168 HD
HETATM   12  H   UNK N   1      27.616  16.756   3.668  0.00  0.00     0.165 HD
ENDROOT
BRANCH   3  13
HETATM   13  C   UNK N   1      23.815  19.408   3.940  0.00  0.00     0.190 C 
HETATM   14  C   UNK N   1      23.741  20.665   3.060  0.00  0.00     0.183 C 
HETATM   15  C   UNK N   1      22.316  20.571   2.510  0.00  0.00     0.180 C 
HETATM   16  C   UNK N   1      21.753  19.348   3.227  0.00  0.00     0.177 C 
HETATM   17  O   UNK N   1      22.867  18.508   3.409  0.00  0.00    -0.368 OA
BRANCH  14  18
HETATM   18  O   UNK N   1      24.635  20.588   1.986  0.00  0.00    -0.390 OA
HETATM   19  H   UNK N   1      24.805  20.923   1.091  0.00  0.00     0.210 HD
ENDBRANCH  14  18
BRANCH  15  20
HETATM   20  O   UNK N   1      21.558  21.721   2.743  0.00  0.00    -0.390 OA
HETATM   21  H   UNK N   1      20.625  21.908   2.931  0.00  0.00     0.210 HD
ENDBRANCH  15  20
BRANCH  16  22
HETATM   22  C   UNK N   1      20.650  18.642   2.451  0.00  0.00     0.198 C 
BRANCH  22  23
HETATM   23  O   UNK N   1      20.392  19.314   1.255  0.00  0.00    -0.398 OA
HETATM   24  H   UNK N   1      19.644  19.908   1.090  0.00  0.00     0.209 HD
ENDBRANCH  22  23
ENDBRANCH  16  22
ENDBRANCH   3  13
BRANCH   6  25
HETATM   25  O   UNK N   1      29.350  17.764   5.668  0.00  0.00    -0.344 OA
HETATM   26  H   UNK N   1      29.797  17.424   6.418  0.00  0.00     0.219 HD
ENDBRANCH   6  25
TORSDOF 6
ENDMDL
MODEL 6
REMARK VINA RESULT:      -5.9      3.203      5.056
REMARK  6 active torsions:
REMARK  status: ('A' for Active; 'I' for Inactive)
REMARK    1  A    between atoms: C_5  and  C_2 
REMARK    2  A    between atoms: O_17  and  C_2 
REMARK    3  A    between atoms: C_10  and  C_4 
REMARK    4  A    between atoms: C_8  and  O_18 
REMARK    5  A    between atoms: C_9  and  O_19 
REMARK    6  A    between atoms: O_20  and  C_11 
ROOT
HETATM    1  C   UNK N   1      35.997  15.397  12.077  0.00  0.00     0.101 A 
HETATM    2  C   UNK N   1      36.720  11.265  10.498  0.00  0.00     0.183 A 
HETATM    3  C   UNK N   1      35.681  14.749  10.880  0.00  0.00     0.018 A 
HETATM    4  C   UNK N   1      36.174  13.479  11.006  0.00  0.00     0.074 A 
HETATM    5  C   UNK N   1      36.753  13.378  12.222  0.00  0.00     0.111 A 
HETATM    6  C   UNK N   1      37.335  12.181  12.611  0.00  0.00     0.170 A 
HETATM    7  N   UNK N   1      36.658  14.538  12.901  0.00  0.00    -0.360 N 
HETATM    8  N   UNK N   1      36.142  12.447  10.128  0.00  0.00    -0.350 N 
ATOM      9  HN  UNK N   1      35.696  12.550   9.216  1.00  0.00     0.166 HD
HETATM   10  N   UNK N   1      37.309  11.136  11.731  0.00  0.00    -0.331 N 
ATOM     11  HN  UNK N   1      37.734  10.247  11.994  1.00  0.00     0.168 HD
HETATM   12  H   UNK N   1      36.998  14.725  13.806  0.00  0.00     0.165 HD
ENDROOT
BRANCH   3  13
HETATM   13  C   UNK N   1      34.937  15.265   9.681  0.00  0.00     0.190 C 
HETATM   14  C   UNK N   1      33.425  15.008   9.593  0.00  0.00     0.183 C 
HETATM   15  C   UNK N   1      32.959  16.207   8.764  0.00  0.00     0.180 C 
HETATM   16  C   UNK N   1      34.266  16.910   8.413  0.00  0.00     0.177 C 
HETATM   17  O   UNK N   1      35.104  16.655   9.515  0.00  0.00    -0.368 OA
BRANCH  14  18
HETATM   18  O   UNK N   1      32.822  15.082  10.854  0.00  0.00    -0.390 OA
HETATM   19  H   UNK N   1      32.829  14.691  11.742  0.00  0.00     0.210 HD
ENDBRANCH  14  18
BRANCH  15  20
HETATM   20  O   UNK N   1      32.229  15.844   7.630  0.00  0.00    -0.390 OA
HETATM   21  H   UNK N   1      31.668  16.309   6.990  0.00  0.00     0.210 HD
ENDBRANCH  15  20
BRANCH  16  22
HETATM   22  C   UNK N   1      34.109  18.405   8.173  0.00  0.00     0.198 C 
BRANCH  22  23
HETATM   23  O   UNK N   1      35.283  19.077   8.517  0.00  0.00    -0.398 OA
HETATM   24  H   UNK N   1      35.975  18.742   9.107  0.00  0.00     0.209 HD
ENDBRANCH  22  23
ENDBRANCH  16  22
ENDBRANCH   3  13
BRANCH   6  25
HETATM   25  O   UNK N   1      37.911  12.044  13.818  0.00  0.00    -0.344 OA
HETATM   26  H   UNK N   1      37.412  12.041  14.610  0.00  0.00     0.219 HD
ENDBRANCH   6  25
TORSDOF 6
ENDMDL
MODEL 7
REMARK VINA RESULT:      -5.9      9.040     10.847
REMARK  6 active torsions:
REMARK  status: ('A' for Active; 'I' for Inactive)
REMARK    1  A    between atoms: C_5  and  C_2 
REMARK    2  A    between atoms: O_17  and  C_2 
REMARK    3  A    between atoms: C_10  and  C_4 
REMARK    4  A    between atoms: C_8  and  O_18 
REMARK    5  A    between atoms: C_9  and  O_19 
REMARK    6  A    between atoms: O_20  and  C_11 
ROOT
HETATM    1  C   UNK N   1      20.368  13.381   9.897  0.00  0.00     0.101 A 
HETATM    2  C   UNK N   1      24.795  12.773  10.243  0.00  0.00     0.183 A 
HETATM    3  C   UNK N   1      21.461  13.752   9.110  0.00  0.00     0.018 A 
HETATM    4  C   UNK N   1      22.564  13.262   9.753  0.00  0.00     0.074 A 
HETATM    5  C   UNK N   1      22.145  12.627  10.869  0.00  0.00     0.111 A 
HETATM    6  C   UNK N   1      23.071  12.030  11.711  0.00  0.00     0.170 A 
HETATM    7  N   UNK N   1      20.804  12.682  10.983  0.00  0.00    -0.360 N 
HETATM    8  N   UNK N   1      23.873  13.350   9.415  0.00  0.00    -0.350 N 
ATOM      9  HN  UNK N   1      24.163  13.835   8.565  1.00  0.00     0.166 HD
HETATM   10  N   UNK N   1      24.394  12.117  11.379  0.00  0.00    -0.331 N 
ATOM     11  HN  UNK N   1      25.093  11.688  11.986  1.00  0.00     0.168 HD
HETATM   12  H   UNK N   1      20.253  12.298  11.702  0.00  0.00     0.165 HD
ENDROOT
BRANCH   3  13
HETATM   13  C   UNK N   1      21.490  14.504   7.809  0.00  0.00     0.190 C 
HETATM   14  C   UNK N   1      20.721  15.831   7.715  0.00  0.00     0.183 C 
HETATM   15  C   UNK N   1      21.537  16.583   6.662  0.00  0.00     0.180 C 
HETATM   16  C   UNK N   1      22.577  15.553   6.235  0.00  0.00     0.177 C 
HETATM   17  O   UNK N   1      22.806  14.789   7.394  0.00  0.00    -0.368 OA
BRANCH  14  18
HETATM   18  O   UNK N   1      20.788  16.544   8.918  0.00  0.00    -0.390 OA
HETATM   19  H   UNK N   1      21.406  16.941   9.552  0.00  0.00     0.210 HD
ENDBRANCH  14  18
BRANCH  15  20
HETATM   20  O   UNK N   1      20.767  17.039   5.589  0.00  0.00    -0.390 OA
HETATM   21  H   UNK N   1      20.898  17.666   4.861  0.00  0.00     0.210 HD
ENDBRANCH  15  20
BRANCH  16  22
HETATM   22  C   UNK N   1      23.868  16.170   5.716  0.00  0.00     0.198 C 
BRANCH  22  23
HETATM   23  O   UNK N   1      23.743  17.558   5.633  0.00  0.00    -0.398 OA
HETATM   24  H   UNK N   1      23.004  18.036   5.227  0.00  0.00     0.209 HD
ENDBRANCH  22  23
ENDBRANCH  16  22
ENDBRANCH   3  13
BRANCH   6  25
HETATM   25  O   UNK N   1      22.687  11.382  12.824  0.00  0.00    -0.344 OA
HETATM   26  H   UNK N   1      21.833  11.491  13.194  0.00  0.00     0.219 HD
ENDBRANCH   6  25
TORSDOF 6
ENDMDL
MODEL 8
REMARK VINA RESULT:      -5.9      2.701      5.611
REMARK  6 active torsions:
REMARK  status: ('A' for Active; 'I' for Inactive)
REMARK    1  A    between atoms: C_5  and  C_2 
REMARK    2  A    between atoms: O_17  and  C_2 
REMARK    3  A    between atoms: C_10  and  C_4 
REMARK    4  A    between atoms: C_8  and  O_18 
REMARK    5  A    between atoms: C_9  and  O_19 
REMARK    6  A    between atoms: O_20  and  C_11 
ROOT
HETATM    1  C   UNK N   1      30.497  16.989   5.690  0.00  0.00     0.101 A 
HETATM    2  C   UNK N   1      29.424  18.138   9.887  0.00  0.00     0.183 A 
HETATM    3  C   UNK N   1      31.078  16.750   6.938  0.00  0.00     0.018 A 
HETATM    4  C   UNK N   1      30.265  17.367   7.849  0.00  0.00     0.074 A 
HETATM    5  C   UNK N   1      29.248  17.944   7.173  0.00  0.00     0.111 A 
HETATM    6  C   UNK N   1      28.268  18.641   7.864  0.00  0.00     0.170 A 
HETATM    7  N   UNK N   1      29.363  17.727   5.848  0.00  0.00    -0.360 N 
HETATM    8  N   UNK N   1      30.379  17.446   9.197  0.00  0.00    -0.350 N 
ATOM      9  HN  UNK N   1      31.158  17.000   9.683  1.00  0.00     0.166 HD
HETATM   10  N   UNK N   1      28.377  18.727   9.223  0.00  0.00    -0.331 N 
ATOM     11  HN  UNK N   1      27.670  19.238   9.752  1.00  0.00     0.168 HD
HETATM   12  H   UNK N   1      28.753  18.039   5.141  0.00  0.00     0.165 HD
ENDROOT
BRANCH   3  13
HETATM   13  C   UNK N   1      32.314  15.967   7.283  0.00  0.00     0.190 C 
HETATM   14  C   UNK N   1      33.665  16.458   6.740  0.00  0.00     0.183 C 
HETATM   15  C   UNK N   1      34.629  15.950   7.814  0.00  0.00     0.180 C 
HETATM   16  C   UNK N   1      33.716  15.163   8.748  0.00  0.00     0.177 C 
HETATM   17  O   UNK N   1      32.482  15.835   8.676  0.00  0.00    -0.368 OA
BRANCH  14  18
HETATM   18  O   UNK N   1      33.726  17.857   6.717  0.00  0.00    -0.390 OA
HETATM   19  H   UNK N   1      34.181  18.608   6.303  0.00  0.00     0.210 HD
ENDBRANCH  14  18
BRANCH  15  20
HETATM   20  O   UNK N   1      35.666  15.169   7.300  0.00  0.00    -0.390 OA
HETATM   21  H   UNK N   1      35.768  14.561   6.551  0.00  0.00     0.210 HD
ENDBRANCH  15  20
BRANCH  16  22
HETATM   22  C   UNK N   1      34.225  15.094  10.182  0.00  0.00     0.198 C 
BRANCH  22  23
HETATM   23  O   UNK N   1      33.154  15.018  11.073  0.00  0.00    -0.398 OA
HETATM   24  H   UNK N   1      33.184  15.245  12.015  0.00  0.00     0.209 HD
ENDBRANCH  22  23
ENDBRANCH  16  22
ENDBRANCH   3  13
BRANCH   6  25
HETATM   25  O   UNK N   1      27.238  19.218   7.222  0.00  0.00    -0.344 OA
HETATM   26  H   UNK N   1      26.776  18.786   6.531  0.00  0.00     0.219 HD
ENDBRANCH   6  25
TORSDOF 6
ENDMDL
MODEL 9
REMARK VINA RESULT:      -5.8      6.950      9.079
REMARK  6 active torsions:
REMARK  status: ('A' for Active; 'I' for Inactive)
REMARK    1  A    between atoms: C_5  and  C_2 
REMARK    2  A    between atoms: O_17  and  C_2 
REMARK    3  A    between atoms: C_10  and  C_4 
REMARK    4  A    between atoms: C_8  and  O_18 
REMARK    5  A    between atoms: C_9  and  O_19 
REMARK    6  A    between atoms: O_20  and  C_11 
ROOT
HETATM    1  C   UNK N   1      27.115  20.163   4.483  0.00  0.00     0.101 A 
HETATM    2  C   UNK N   1      26.637  15.996   2.903  0.00  0.00     0.183 A 
HETATM    3  C   UNK N   1      26.020  19.411   4.051  0.00  0.00     0.018 A 
HETATM    4  C   UNK N   1      26.527  18.193   3.689  0.00  0.00     0.074 A 
HETATM    5  C   UNK N   1      27.861  18.221   3.899  0.00  0.00     0.111 A 
HETATM    6  C   UNK N   1      28.627  17.100   3.614  0.00  0.00     0.170 A 
HETATM    7  N   UNK N   1      28.250  19.414   4.387  0.00  0.00    -0.360 N 
HETATM    8  N   UNK N   1      25.891  17.103   3.196  0.00  0.00    -0.350 N 
ATOM      9  HN  UNK N   1      24.881  17.109   3.048  1.00  0.00     0.166 HD
HETATM   10  N   UNK N   1      27.993  15.997   3.114  0.00  0.00    -0.331 N 
ATOM     11  HN  UNK N   1      28.537  15.163   2.893  1.00  0.00     0.168 HD
HETATM   12  H   UNK N   1      29.165  19.689   4.624  0.00  0.00     0.165 HD
ENDROOT
BRANCH   3  13
HETATM   13  C   UNK N   1      24.566  19.785   3.996  0.00  0.00     0.190 C 
HETATM   14  C   UNK N   1      24.117  20.817   2.948  0.00  0.00     0.183 C 
HETATM   15  C   UNK N   1      22.668  20.389   2.700  0.00  0.00     0.180 C 
HETATM   16  C   UNK N   1      22.469  19.258   3.704  0.00  0.00     0.177 C 
HETATM   17  O   UNK N   1      23.738  18.660   3.810  0.00  0.00    -0.368 OA
BRANCH  14  18
HETATM   18  O   UNK N   1      24.831  20.672   1.753  0.00  0.00    -0.390 OA
HETATM   19  H   UNK N   1      25.623  20.974   1.280  0.00  0.00     0.210 HD
ENDBRANCH  14  18
BRANCH  15  20
HETATM   20  O   UNK N   1      21.749  21.425   2.876  0.00  0.00    -0.390 OA
HETATM   21  H   UNK N   1      20.868  21.508   3.273  0.00  0.00     0.210 HD
ENDBRANCH  15  20
BRANCH  16  22
HETATM   22  C   UNK N   1      21.415  18.245   3.278  0.00  0.00     0.198 C 
BRANCH  22  23
HETATM   23  O   UNK N   1      20.559  18.806   2.328  0.00  0.00    -0.398 OA
HETATM   24  H   UNK N   1      19.774  18.379   1.952  0.00  0.00     0.209 HD
ENDBRANCH  22  23
ENDBRANCH  16  22
ENDBRANCH   3  13
BRANCH   6  25
HETATM   25  O   UNK N   1      29.955  17.091   3.820  0.00  0.00    -0.344 OA
HETATM   26  H   UNK N   1      30.568  17.212   3.122  0.00  0.00     0.219 HD
ENDBRANCH   6  25
TORSDOF 6
ENDMDL
