MODEL 1
REMARK VINA RESULT:      -4.8      0.000      0.000
REMARK  10 active torsions:
REMARK  status: ('A' for Active; 'I' for Inactive)
REMARK    1  A    between atoms: P_1  and  O_2 
REMARK    2  A    between atoms: P_1  and  O_6 
REMARK    3  A    between atoms: P_1  and  O_7 
REMARK    4  A    between atoms: O_2  and  C_12 
REMARK    5  A    between atoms: C_10  and  O_3 
REMARK    6  A    between atoms: O_4  and  C_13 
REMARK    7  A    between atoms: C_11  and  N_9 
REMARK    8  A    between atoms: C_10  and  C_11 
REMARK    9  A    between atoms: C_10  and  C_12 
REMARK   10  A    between atoms: C_11  and  C_13 
ROOT
HETATM    1  C   UNK N   1      19.558  17.556   3.030  0.00  0.00     0.175 C 
ENDROOT
BRANCH   1   2
HETATM    2  O   UNK N   1      18.657  18.467   2.478  0.00  0.00    -0.391 OA
HETATM    3  H   UNK N   1      18.863  18.946   1.661  0.00  0.00     0.210 HD
ENDBRANCH   1   2
BRANCH   1   4
HETATM    4  C   UNK N   1      19.988  16.513   1.983  0.00  0.00     0.204 C 
BRANCH   4   5
HETATM    5  N   UNK N   1      21.363  16.094   2.204  0.00  0.00    -0.416 N 
HETATM    6  H   UNK N   1      21.699  15.878   3.143  0.00  0.00     0.150 HD
HETATM    7  H   UNK N   1      21.999  16.015   1.411  0.00  0.00     0.150 HD
ENDBRANCH   4   5
BRANCH   4   8
HETATM    8  C   UNK N   1      19.791  16.906   0.543  0.00  0.00     0.165 C 
HETATM    9  O   UNK N   1      19.086  16.241  -0.201  0.00  0.00    -0.648 OA
BRANCH   8  10
HETATM   10  O   UNK N   1      20.428  17.990   0.063  0.00  0.00    -0.775 OA
HETATM   11  H   UNK N   1      21.224  17.897  -0.423  0.00  0.00     0.167 HD
ENDBRANCH   8  10
ENDBRANCH   4   8
ENDBRANCH   1   4
BRANCH   1  12
HETATM   12  C   UNK N   1      20.699  18.306   3.726  0.00  0.00     0.214 C 
BRANCH  12  13
HETATM   13  O   UNK N   1      21.580  18.883   2.800  0.00  0.00    -0.294 OA
BRANCH  13  14
HETATM   14  P   UNK N   1      21.093  20.550   2.593  0.00  0.00     0.390 P 
HETATM   15  O   UNK N   1      20.124  20.883   3.759  0.00  0.00    -0.632 OA
BRANCH  14  16
HETATM   16  O   UNK N   1      22.438  21.637   2.735  0.00  0.00    -0.307 OA
HETATM   17  H   UNK N   1      23.345  21.389   2.973  0.00  0.00     0.222 HD
ENDBRANCH  14  16
BRANCH  14  18
HETATM   18  O   UNK N   1      20.222  20.826   1.115  0.00  0.00    -0.307 OA
HETATM   19  H   UNK N   1      20.410  20.325   0.305  0.00  0.00     0.222 HD
ENDBRANCH  14  18
ENDBRANCH  13  14
ENDBRANCH  12  13
ENDBRANCH   1  12
TORSDOF 10
ENDMDL
MODEL 2
REMARK VINA RESULT:      -4.7     15.860     17.214
REMARK  10 active torsions:
REMARK  status: ('A' for Active; 'I' for Inactive)
REMARK    1  A    between atoms: P_1  and  O_2 
REMARK    2  A    between atoms: P_1  and  O_6 
REMARK    3  A    between atoms: P_1  and  O_7 
REMARK    4  A    between atoms: O_2  and  C_12 
REMARK    5  A    between atoms: C_10  and  O_3 
REMARK    6  A    between atoms: O_4  and  C_13 
REMARK    7  A    between atoms: C_11  and  N_9 
REMARK    8  A    between atoms: C_10  and  C_11 
REMARK    9  A    between atoms: C_10  and  C_12 
REMARK   10  A    between atoms: C_11  and  C_13 
ROOT
HETATM    1  C   UNK N   1      35.979  15.482  10.162  0.00  0.00     0.175 C 
ENDROOT
BRANCH   1   2
HETATM    2  O   UNK N   1      36.978  16.036  10.963  0.00  0.00    -0.391 OA
HETATM    3  H   UNK N   1      37.838  16.288  10.592  0.00  0.00     0.210 HD
ENDBRANCH   1   2
BRANCH   1   4
HETATM    4  C   UNK N   1      35.459  14.168  10.771  0.00  0.00     0.204 C 
BRANCH   4   5
HETATM    5  N   UNK N   1      34.022  14.046  10.589  0.00  0.00    -0.416 N 
HETATM    6  H   UNK N   1      33.400  14.827  10.802  0.00  0.00     0.150 HD
HETATM    7  H   UNK N   1      33.630  13.169  10.245  0.00  0.00     0.150 HD
ENDBRANCH   4   5
BRANCH   4   8
HETATM    8  C   UNK N   1      35.822  13.921  12.211  0.00  0.00     0.165 C 
HETATM    9  O   UNK N   1      34.971  13.936  13.087  0.00  0.00    -0.648 OA
BRANCH   8  10
HETATM   10  O   UNK N   1      37.110  13.710  12.540  0.00  0.00    -0.775 OA
HETATM   11  H   UNK N   1      37.456  14.044  13.344  0.00  0.00     0.167 HD
ENDBRANCH   8  10
ENDBRANCH   4   8
ENDBRANCH   1   4
BRANCH   1  12
HETATM   12  C   UNK N   1      34.912  16.537   9.851  0.00  0.00     0.214 C 
BRANCH  12  13
HETATM   13  O   UNK N   1      34.356  16.351   8.576  0.00  0.00    -0.294 OA
BRANCH  13  14
HETATM   14  P   UNK N   1      34.135  17.936   7.872  0.00  0.00     0.390 P 
HETATM   15  O   UNK N   1      32.714  18.413   8.275  0.00  0.00    -0.632 OA
BRANCH  14  16
HETATM   16  O   UNK N   1      35.254  19.091   8.523  0.00  0.00    -0.307 OA
HETATM   17  H   UNK N   1      35.043  20.003   8.780  0.00  0.00     0.222 HD
ENDBRANCH  14  16
BRANCH  14  18
HETATM   18  O   UNK N   1      34.192  17.923   6.135  0.00  0.00    -0.307 OA
HETATM   19  H   UNK N   1      33.518  17.473   5.602  0.00  0.00     0.222 HD
ENDBRANCH  14  18
ENDBRANCH  13  14
ENDBRANCH  12  13
ENDBRANCH   1  12
TORSDOF 10
ENDMDL
MODEL 3
REMARK VINA RESULT:      -4.4     17.427     18.723
REMARK  10 active torsions:
REMARK  status: ('A' for Active; 'I' for Inactive)
REMARK    1  A    between atoms: P_1  and  O_2 
REMARK    2  A    between atoms: P_1  and  O_6 
REMARK    3  A    between atoms: P_1  and  O_7 
REMARK    4  A    between atoms: O_2  and  C_12 
REMARK    5  A    between atoms: C_10  and  O_3 
REMARK    6  A    between atoms: O_4  and  C_13 
REMARK    7  A    between atoms: C_11  and  N_9 
REMARK    8  A    between atoms: C_10  and  C_11 
REMARK    9  A    between atoms: C_10  and  C_12 
REMARK   10  A    between atoms: C_11  and  C_13 
ROOT
HETATM    1  C   UNK N   1      34.591  14.332  10.745  0.00  0.00     0.175 C 
ENDROOT
BRANCH   1   2
HETATM    2  O   UNK N   1      33.466  14.937  11.307  0.00  0.00    -0.391 OA
HETATM    3  H   UNK N   1      33.022  15.678  10.868  0.00  0.00     0.210 HD
ENDBRANCH   1   2
BRANCH   1   4
HETATM    4  C   UNK N   1      35.551  15.391  10.176  0.00  0.00     0.204 C 
BRANCH   4   5
HETATM    5  N   UNK N   1      36.735  15.518  11.011  0.00  0.00    -0.416 N 
HETATM    6  H   UNK N   1      37.541  14.906  10.873  0.00  0.00     0.150 HD
HETATM    7  H   UNK N   1      36.762  16.228  11.743  0.00  0.00     0.150 HD
ENDBRANCH   4   5
BRANCH   4   8
HETATM    8  C   UNK N   1      34.955  16.748   9.913  0.00  0.00     0.165 C 
HETATM    9  O   UNK N   1      35.568  17.769  10.184  0.00  0.00    -0.648 OA
BRANCH   8  10
HETATM   10  O   UNK N   1      33.714  16.834   9.400  0.00  0.00    -0.775 OA
HETATM   11  H   UNK N   1      33.584  17.121   8.517  0.00  0.00     0.167 HD
ENDBRANCH   8  10
ENDBRANCH   4   8
ENDBRANCH   1   4
BRANCH   1  12
HETATM   12  C   UNK N   1      35.206  13.345  11.743  0.00  0.00     0.214 C 
BRANCH  12  13
HETATM   13  O   UNK N   1      34.790  13.609  13.056  0.00  0.00    -0.294 OA
BRANCH  13  14
HETATM   14  P   UNK N   1      36.225  13.643  14.055  0.00  0.00     0.390 P 
HETATM   15  O   UNK N   1      35.783  13.249  15.490  0.00  0.00    -0.632 OA
BRANCH  14  16
HETATM   16  O   UNK N   1      37.391  12.463  13.549  0.00  0.00    -0.307 OA
HETATM   17  H   UNK N   1      37.189  11.597  13.161  0.00  0.00     0.222 HD
ENDBRANCH  14  16
BRANCH  14  18
HETATM   18  O   UNK N   1      36.942  15.222  14.162  0.00  0.00    -0.307 OA
HETATM   19  H   UNK N   1      37.573  15.547  13.500  0.00  0.00     0.222 HD
ENDBRANCH  14  18
ENDBRANCH  13  14
ENDBRANCH  12  13
ENDBRANCH   1  12
TORSDOF 10
ENDMDL
MODEL 4
REMARK VINA RESULT:      -4.4     16.117     17.486
REMARK  10 active torsions:
REMARK  status: ('A' for Active; 'I' for Inactive)
REMARK    1  A    between atoms: P_1  and  O_2 
REMARK    2  A    between atoms: P_1  and  O_6 
REMARK    3  A    between atoms: P_1  and  O_7 
REMARK    4  A    between atoms: O_2  and  C_12 
REMARK    5  A    between atoms: C_10  and  O_3 
REMARK    6  A    between atoms: O_4  and  C_13 
REMARK    7  A    between atoms: C_11  and  N_9 
REMARK    8  A    between atoms: C_10  and  C_11 
REMARK    9  A    between atoms: C_10  and  C_12 
REMARK   10  A    between atoms: C_11  and  C_13 
ROOT
HETATM    1  C   UNK N   1      34.697  15.218  11.308  0.00  0.00     0.175 C 
ENDROOT
BRANCH   1   2
HETATM    2  O   UNK N   1      33.329  15.036  11.098  0.00  0.00    -0.391 OA
HETATM    3  H   UNK N   1      32.836  14.348  11.570  0.00  0.00     0.210 HD
ENDBRANCH   1   2
BRANCH   1   4
HETATM    4  C   UNK N   1      35.331  13.948  11.902  0.00  0.00     0.204 C 
BRANCH   4   5
HETATM    5  N   UNK N   1      34.489  12.787  11.659  0.00  0.00    -0.416 N 
HETATM    6  H   UNK N   1      34.840  11.843  11.824  0.00  0.00     0.150 HD
HETATM    7  H   UNK N   1      33.537  12.918  11.319  0.00  0.00     0.150 HD
ENDBRANCH   4   5
BRANCH   4   8
HETATM    8  C   UNK N   1      35.706  14.019  13.358  0.00  0.00     0.165 C 
HETATM    9  O   UNK N   1      35.013  13.493  14.215  0.00  0.00    -0.648 OA
BRANCH   8  10
HETATM   10  O   UNK N   1      36.809  14.700  13.722  0.00  0.00    -0.775 OA
HETATM   11  H   UNK N   1      37.297  15.189  13.087  0.00  0.00     0.167 HD
ENDBRANCH   8  10
ENDBRANCH   4   8
ENDBRANCH   1   4
BRANCH   1  12
HETATM   12  C   UNK N   1      35.354  15.753  10.030  0.00  0.00     0.214 C 
BRANCH  12  13
HETATM   13  O   UNK N   1      35.377  17.156  10.009  0.00  0.00    -0.294 OA
BRANCH  13  14
HETATM   14  P   UNK N   1      34.461  17.665   8.609  0.00  0.00     0.390 P 
HETATM   15  O   UNK N   1      34.883  19.128   8.303  0.00  0.00    -0.632 OA
BRANCH  14  16
HETATM   16  O   UNK N   1      34.856  16.727   7.205  0.00  0.00    -0.307 OA
HETATM   17  H   UNK N   1      35.341  15.887   7.201  0.00  0.00     0.222 HD
ENDBRANCH  14  16
BRANCH  14  18
HETATM   18  O   UNK N   1      32.746  17.681   8.887  0.00  0.00    -0.307 OA
HETATM   19  H   UNK N   1      32.353  17.336   9.705  0.00  0.00     0.222 HD
ENDBRANCH  14  18
ENDBRANCH  13  14
ENDBRANCH  12  13
ENDBRANCH   1  12
TORSDOF 10
ENDMDL
MODEL 5
REMARK VINA RESULT:      -4.4     15.810     17.252
REMARK  10 active torsions:
REMARK  status: ('A' for Active; 'I' for Inactive)
REMARK    1  A    between atoms: P_1  and  O_2 
REMARK    2  A    between atoms: P_1  and  O_6 
REMARK    3  A    between atoms: P_1  and  O_7 
REMARK    4  A    between atoms: O_2  and  C_12 
REMARK    5  A    between atoms: C_10  and  O_3 
REMARK    6  A    between atoms: O_4  and  C_13 
REMARK    7  A    between atoms: C_11  and  N_9 
REMARK    8  A    between atoms: C_10  and  C_11 
REMARK    9  A    between atoms: C_10  and  C_12 
REMARK   10  A    between atoms: C_11  and  C_13 
ROOT
HETATM    1  C   UNK N   1      34.757  16.611   9.986  0.00  0.00     0.175 C 
ENDROOT
BRANCH   1   2
HETATM    2  O   UNK N   1      35.748  17.503  10.400  0.00  0.00    -0.391 OA
HETATM    3  H   UNK N   1      35.938  18.311   9.899  0.00  0.00     0.210 HD
ENDBRANCH   1   2
BRANCH   1   4
HETATM    4  C   UNK N   1      33.844  17.262   8.933  0.00  0.00     0.204 C 
BRANCH   4   5
HETATM    5  N   UNK N   1      33.114  16.250   8.185  0.00  0.00    -0.416 N 
HETATM    6  H   UNK N   1      33.547  15.354   7.958  0.00  0.00     0.150 HD
HETATM    7  H   UNK N   1      32.158  16.439   7.884  0.00  0.00     0.150 HD
ENDBRANCH   4   5
BRANCH   4   8
HETATM    8  C   UNK N   1      34.512  18.224   7.986  0.00  0.00     0.165 C 
HETATM    9  O   UNK N   1      35.082  19.222   8.400  0.00  0.00    -0.648 OA
BRANCH   8  10
HETATM   10  O   UNK N   1      34.451  17.994   6.661  0.00  0.00    -0.775 OA
HETATM   11  H   UNK N   1      34.106  18.644   6.081  0.00  0.00     0.167 HD
ENDBRANCH   8  10
ENDBRANCH   4   8
ENDBRANCH   1   4
BRANCH   1  12
HETATM   12  C   UNK N   1      35.392  15.276   9.582  0.00  0.00     0.214 C 
BRANCH  12  13
HETATM   13  O   UNK N   1      34.704  14.187  10.137  0.00  0.00    -0.294 OA
BRANCH  13  14
HETATM   14  P   UNK N   1      35.523  13.763  11.623  0.00  0.00     0.390 P 
HETATM   15  O   UNK N   1      36.466  12.575  11.293  0.00  0.00    -0.632 OA
BRANCH  14  16
HETATM   16  O   UNK N   1      36.528  15.055  12.196  0.00  0.00    -0.307 OA
HETATM   17  H   UNK N   1      37.430  15.248  11.897  0.00  0.00     0.222 HD
ENDBRANCH  14  16
BRANCH  14  18
HETATM   18  O   UNK N   1      34.438  13.218  12.866  0.00  0.00    -0.307 OA
HETATM   19  H   UNK N   1      34.728  12.628  13.580  0.00  0.00     0.222 HD
ENDBRANCH  14  18
ENDBRANCH  13  14
ENDBRANCH  12  13
ENDBRANCH   1  12
TORSDOF 10
ENDMDL
MODEL 6
REMARK VINA RESULT:      -4.3     12.289     13.770
REMARK  10 active torsions:
REMARK  status: ('A' for Active; 'I' for Inactive)
REMARK    1  A    between atoms: P_1  and  O_2 
REMARK    2  A    between atoms: P_1  and  O_6 
REMARK    3  A    between atoms: P_1  and  O_7 
REMARK    4  A    between atoms: O_2  and  C_12 
REMARK    5  A    between atoms: C_10  and  O_3 
REMARK    6  A    between atoms: O_4  and  C_13 
REMARK    7  A    between atoms: C_11  and  N_9 
REMARK    8  A    between atoms: C_10  and  C_11 
REMARK    9  A    between atoms: C_10  and  C_12 
REMARK   10  A    between atoms: C_11  and  C_13 
ROOT
HETATM    1  C   UNK N   1      32.583  16.444   8.485  0.00  0.00     0.175 C 
ENDROOT
BRANCH   1   2
HETATM    2  O   UNK N   1      32.410  15.708   7.312  0.00  0.00    -0.391 OA
HETATM    3  H   UNK N   1      32.328  16.146   6.452  0.00  0.00     0.210 HD
ENDBRANCH   1   2
BRANCH   1   4
HETATM    4  C   UNK N   1      34.050  16.881   8.644  0.00  0.00     0.204 C 
BRANCH   4   5
HETATM    5  N   UNK N   1      34.382  17.079  10.045  0.00  0.00    -0.416 N 
HETATM    6  H   UNK N   1      35.089  17.762  10.324  0.00  0.00     0.150 HD
HETATM    7  H   UNK N   1      33.904  16.530  10.759  0.00  0.00     0.150 HD
ENDBRANCH   4   5
BRANCH   4   8
HETATM    8  C   UNK N   1      34.471  18.080   7.837  0.00  0.00     0.165 C 
HETATM    9  O   UNK N   1      34.928  19.075   8.378  0.00  0.00    -0.648 OA
BRANCH   8  10
HETATM   10  O   UNK N   1      34.311  18.065   6.500  0.00  0.00    -0.775 OA
HETATM   11  H   UNK N   1      33.901  17.334   6.079  0.00  0.00     0.167 HD
ENDBRANCH   8  10
ENDBRANCH   4   8
ENDBRANCH   1   4
BRANCH   1  12
HETATM   12  C   UNK N   1      31.544  17.570   8.553  0.00  0.00     0.214 C 
BRANCH  12  13
HETATM   13  O   UNK N   1      30.277  17.129   8.142  0.00  0.00    -0.294 OA
BRANCH  13  14
HETATM   14  P   UNK N   1      29.094  18.011   9.081  0.00  0.00     0.390 P 
HETATM   15  O   UNK N   1      28.457  19.060   8.132  0.00  0.00    -0.632 OA
BRANCH  14  16
HETATM   16  O   UNK N   1      27.808  16.982   9.626  0.00  0.00    -0.307 OA
HETATM   17  H   UNK N   1      27.442  16.959  10.524  0.00  0.00     0.222 HD
ENDBRANCH  14  16
BRANCH  14  18
HETATM   18  O   UNK N   1      29.796  18.888  10.408  0.00  0.00    -0.307 OA
HETATM   19  H   UNK N   1      30.740  18.825  10.625  0.00  0.00     0.222 HD
ENDBRANCH  14  18
ENDBRANCH  13  14
ENDBRANCH  12  13
ENDBRANCH   1  12
TORSDOF 10
ENDMDL
MODEL 7
REMARK VINA RESULT:      -4.2     14.858     16.281
REMARK  10 active torsions:
REMARK  status: ('A' for Active; 'I' for Inactive)
REMARK    1  A    between atoms: P_1  and  O_2 
REMARK    2  A    between atoms: P_1  and  O_6 
REMARK    3  A    between atoms: P_1  and  O_7 
REMARK    4  A    between atoms: O_2  and  C_12 
REMARK    5  A    between atoms: C_10  and  O_3 
REMARK    6  A    between atoms: O_4  and  C_13 
REMARK    7  A    between atoms: C_11  and  N_9 
REMARK    8  A    between atoms: C_10  and  C_11 
REMARK    9  A    between atoms: C_10  and  C_12 
REMARK   10  A    between atoms: C_11  and  C_13 
ROOT
HETATM    1  C   UNK N   1      35.053  14.298   8.964  0.00  0.00     0.175 C 
ENDROOT
BRANCH   1   2
HETATM    2  O   UNK N   1      36.302  13.680   8.894  0.00  0.00    -0.391 OA
HETATM    3  H   UNK N   1      37.113  14.161   9.116  0.00  0.00     0.210 HD
ENDBRANCH   1   2
BRANCH   1   4
HETATM    4  C   UNK N   1      34.845  14.953  10.341  0.00  0.00     0.204 C 
BRANCH   4   5
HETATM    5  N   UNK N   1      33.430  15.163  10.606  0.00  0.00    -0.416 N 
HETATM    6  H   UNK N   1      32.875  15.785  10.016  0.00  0.00     0.150 HD
HETATM    7  H   UNK N   1      32.988  14.684  11.390  0.00  0.00     0.150 HD
ENDBRANCH   4   5
BRANCH   4   8
HETATM    8  C   UNK N   1      35.612  16.224  10.587  0.00  0.00     0.165 C 
HETATM    9  O   UNK N   1      35.068  17.315  10.507  0.00  0.00    -0.648 OA
BRANCH   8  10
HETATM   10  O   UNK N   1      36.927  16.156  10.871  0.00  0.00    -0.775 OA
HETATM   11  H   UNK N   1      37.255  15.492  11.446  0.00  0.00     0.167 HD
ENDBRANCH   8  10
ENDBRANCH   4   8
ENDBRANCH   1   4
BRANCH   1  12
HETATM   12  C   UNK N   1      34.857  15.218   7.754  0.00  0.00     0.214 C 
BRANCH  12  13
HETATM   13  O   UNK N   1      33.497  15.417   7.470  0.00  0.00    -0.294 OA
BRANCH  13  14
HETATM   14  P   UNK N   1      33.201  17.139   7.545  0.00  0.00     0.390 P 
HETATM   15  O   UNK N   1      32.278  17.489   6.347  0.00  0.00    -0.632 OA
BRANCH  14  16
HETATM   16  O   UNK N   1      32.343  17.583   8.985  0.00  0.00    -0.307 OA
HETATM   17  H   UNK N   1      32.047  18.477   9.216  0.00  0.00     0.222 HD
ENDBRANCH  14  16
BRANCH  14  18
HETATM   18  O   UNK N   1      34.647  18.087   7.363  0.00  0.00    -0.307 OA
HETATM   19  H   UNK N   1      34.631  18.983   6.992  0.00  0.00     0.222 HD
ENDBRANCH  14  18
ENDBRANCH  13  14
ENDBRANCH  12  13
ENDBRANCH   1  12
TORSDOF 10
ENDMDL
MODEL 8
REMARK VINA RESULT:      -4.0      2.924      4.359
REMARK  10 active torsions:
REMARK  status: ('A' for Active; 'I' for Inactive)
REMARK    1  A    between atoms: P_1  and  O_2 
REMARK    2  A    between atoms: P_1  and  O_6 
REMARK    3  A    between atoms: P_1  and  O_7 
REMARK    4  A    between atoms: O_2  and  C_12 
REMARK    5  A    between atoms: C_10  and  O_3 
REMARK    6  A    between atoms: O_4  and  C_13 
REMARK    7  A    between atoms: C_11  and  N_9 
REMARK    8  A    between atoms: C_10  and  C_11 
REMARK    9  A    between atoms: C_10  and  C_12 
REMARK   10  A    between atoms: C_11  and  C_13 
ROOT
HETATM    1  C   UNK N   1      20.671  17.655   1.231  0.00  0.00     0.175 C 
ENDROOT
BRANCH   1   2
HETATM    2  O   UNK N   1      20.222  17.711  -0.089  0.00  0.00    -0.391 OA
HETATM    3  H   UNK N   1      20.198  18.548  -0.577  0.00  0.00     0.210 HD
ENDBRANCH   1   2
BRANCH   1   4
HETATM    4  C   UNK N   1      20.316  18.950   1.982  0.00  0.00     0.204 C 
BRANCH   4   5
HETATM    5  N   UNK N   1      18.892  19.009   2.268  0.00  0.00    -0.416 N 
HETATM    6  H   UNK N   1      18.449  19.888   2.542  0.00  0.00     0.150 HD
HETATM    7  H   UNK N   1      18.327  18.163   2.193  0.00  0.00     0.150 HD
ENDBRANCH   4   5
BRANCH   4   8
HETATM    8  C   UNK N   1      20.768  20.232   1.334  0.00  0.00     0.165 C 
HETATM    9  O   UNK N   1      21.312  21.110   1.986  0.00  0.00    -0.648 OA
BRANCH   8  10
HETATM   10  O   UNK N   1      20.540  20.423   0.022  0.00  0.00    -0.775 OA
HETATM   11  H   UNK N   1      21.184  20.839  -0.517  0.00  0.00     0.167 HD
ENDBRANCH   8  10
ENDBRANCH   4   8
ENDBRANCH   1   4
BRANCH   1  12
HETATM   12  C   UNK N   1      20.198  16.355   1.890  0.00  0.00     0.214 C 
BRANCH  12  13
HETATM   13  O   UNK N   1      21.125  15.885   2.833  0.00  0.00    -0.294 OA
BRANCH  13  14
HETATM   14  P   UNK N   1      20.344  15.943   4.397  0.00  0.00     0.390 P 
HETATM   15  O   UNK N   1      21.174  16.915   5.278  0.00  0.00    -0.632 OA
BRANCH  14  16
HETATM   16  O   UNK N   1      18.744  16.604   4.293  0.00  0.00    -0.307 OA
HETATM   17  H   UNK N   1      18.065  16.558   4.985  0.00  0.00     0.222 HD
ENDBRANCH  14  16
BRANCH  14  18
HETATM   18  O   UNK N   1      20.334  14.407   5.209  0.00  0.00    -0.307 OA
HETATM   19  H   UNK N   1      20.948  13.694   4.971  0.00  0.00     0.222 HD
ENDBRANCH  14  18
ENDBRANCH  13  14
ENDBRANCH  12  13
ENDBRANCH   1  12
TORSDOF 10
ENDMDL
MODEL 9
REMARK VINA RESULT:      -4.0     17.927     19.254
REMARK  10 active torsions:
REMARK  status: ('A' for Active; 'I' for Inactive)
REMARK    1  A    between atoms: P_1  and  O_2 
REMARK    2  A    between atoms: P_1  and  O_6 
REMARK    3  A    between atoms: P_1  and  O_7 
REMARK    4  A    between atoms: O_2  and  C_12 
REMARK    5  A    between atoms: C_10  and  O_3 
REMARK    6  A    between atoms: O_4  and  C_13 
REMARK    7  A    between atoms: C_11  and  N_9 
REMARK    8  A    between atoms: C_10  and  C_11 
REMARK    9  A    between atoms: C_10  and  C_12 
REMARK   10  A    between atoms: C_11  and  C_13 
ROOT
HETATM    1  C   UNK N   1      35.381  13.653  11.297  0.00  0.00     0.175 C 
ENDROOT
BRANCH   1   2
HETATM    2  O   UNK N   1      34.843  12.985  10.196  0.00  0.00    -0.391 OA
HETATM    3  H   UNK N   1      35.328  12.922   9.360  0.00  0.00     0.210 HD
ENDBRANCH   1   2
BRANCH   1   4
HETATM    4  C   UNK N   1      34.767  15.057  11.436  0.00  0.00     0.204 C 
BRANCH   4   5
HETATM    5  N   UNK N   1      33.473  15.124  10.776  0.00  0.00    -0.416 N 
HETATM    6  H   UNK N   1      33.109  14.325  10.256  0.00  0.00     0.150 HD
HETATM    7  H   UNK N   1      32.921  15.980  10.834  0.00  0.00     0.150 HD
ENDBRANCH   4   5
BRANCH   4   8
HETATM    8  C   UNK N   1      35.636  16.203  10.989  0.00  0.00     0.165 C 
HETATM    9  O   UNK N   1      35.149  17.277  10.673  0.00  0.00    -0.648 OA
BRANCH   8  10
HETATM   10  O   UNK N   1      36.968  16.027  10.908  0.00  0.00    -0.775 OA
HETATM   11  H   UNK N   1      37.528  16.741  10.670  0.00  0.00     0.167 HD
ENDBRANCH   8  10
ENDBRANCH   4   8
ENDBRANCH   1   4
BRANCH   1  12
HETATM   12  C   UNK N   1      35.293  12.764  12.542  0.00  0.00     0.214 C 
BRANCH  12  13
HETATM   13  O   UNK N   1      34.846  13.483  13.661  0.00  0.00    -0.294 OA
BRANCH  13  14
HETATM   14  P   UNK N   1      36.200  13.625  14.758  0.00  0.00     0.390 P 
HETATM   15  O   UNK N   1      37.149  12.434  14.457  0.00  0.00    -0.632 OA
BRANCH  14  16
HETATM   16  O   UNK N   1      37.111  15.074  14.474  0.00  0.00    -0.307 OA
HETATM   17  H   UNK N   1      36.749  15.921  14.169  0.00  0.00     0.222 HD
ENDBRANCH  14  16
BRANCH  14  18
HETATM   18  O   UNK N   1      35.740  13.496  16.429  0.00  0.00    -0.307 OA
HETATM   19  H   UNK N   1      35.230  12.742  16.765  0.00  0.00     0.222 HD
ENDBRANCH  14  18
ENDBRANCH  13  14
ENDBRANCH  12  13
ENDBRANCH   1  12
TORSDOF 10
ENDMDL
