MODEL 1
REMARK VINA RESULT:      -3.3      0.000      0.000
REMARK  2 active torsions:
REMARK  status: ('A' for Active; 'I' for Inactive)
REMARK    1  A    between atoms: O_1  and  C_2 
REMARK    2  A    between atoms: C_2  and  C_4 
ROOT
HETATM    1  C   UNK N   1      34.330  18.234   7.843  0.00  0.00     0.164 C 
HETATM    2  O   UNK N   1      34.515  17.949   6.669  0.00  0.00    -0.647 OA
ENDROOT
BRANCH   1   3
HETATM    3  O   UNK N   1      35.100  19.166   8.432  0.00  0.00    -0.773 OA
HETATM    4  H   UNK N   1      34.801  20.052   8.489  0.00  0.00     0.167 HD
ENDBRANCH   1   3
BRANCH   1   5
HETATM    5  C   UNK N   1      33.273  17.568   8.618  0.00  0.00     0.071 C 
HETATM    6  C   UNK N   1      31.985  17.821   8.391  0.00  0.00     0.018 C 
ENDBRANCH   1   5
TORSDOF 2
ENDMDL
MODEL 2
REMARK VINA RESULT:      -3.3     12.026     12.719
REMARK  2 active torsions:
REMARK  status: ('A' for Active; 'I' for Inactive)
REMARK    1  A    between atoms: O_1  and  C_2 
REMARK    2  A    between atoms: C_2  and  C_4 
ROOT
HETATM    1  C   UNK N   1      23.878  12.039  11.975  0.00  0.00     0.164 C 
HETATM    2  O   UNK N   1      23.628  11.998  13.172  0.00  0.00    -0.647 OA
ENDROOT
BRANCH   1   3
HETATM    3  O   UNK N   1      25.097  12.429  11.563  0.00  0.00    -0.773 OA
HETATM    4  H   UNK N   1      25.204  12.811  10.714  0.00  0.00     0.167 HD
ENDBRANCH   1   3
BRANCH   1   5
HETATM    5  C   UNK N   1      22.859  11.666  10.984  0.00  0.00     0.071 C 
HETATM    6  C   UNK N   1      21.669  12.263  10.958  0.00  0.00     0.018 C 
ENDBRANCH   1   5
TORSDOF 2
ENDMDL
MODEL 3
REMARK VINA RESULT:      -3.2     14.800     15.089
REMARK  2 active torsions:
REMARK  status: ('A' for Active; 'I' for Inactive)
REMARK    1  A    between atoms: O_1  and  C_2 
REMARK    2  A    between atoms: C_2  and  C_4 
ROOT
HETATM    1  C   UNK N   1      20.771  21.167   1.000  0.00  0.00     0.164 C 
HETATM    2  O   UNK N   1      21.116  20.519   0.022  0.00  0.00    -0.647 OA
ENDROOT
BRANCH   1   3
HETATM    3  O   UNK N   1      20.420  22.456   0.855  0.00  0.00    -0.773 OA
HETATM    4  H   UNK N   1      19.516  22.701   0.878  0.00  0.00     0.167 HD
ENDBRANCH   1   3
BRANCH   1   5
HETATM    5  C   UNK N   1      20.735  20.548   2.334  0.00  0.00     0.071 C 
HETATM    6  C   UNK N   1      20.033  19.440   2.563  0.00  0.00     0.018 C 
ENDBRANCH   1   5
TORSDOF 2
ENDMDL
MODEL 4
REMARK VINA RESULT:      -3.1     11.213     11.907
REMARK  2 active torsions:
REMARK  status: ('A' for Active; 'I' for Inactive)
REMARK    1  A    between atoms: O_1  and  C_2 
REMARK    2  A    between atoms: C_2  and  C_4 
ROOT
HETATM    1  C   UNK N   1      24.395  12.187  10.811  0.00  0.00     0.164 C 
HETATM    2  O   UNK N   1      24.437  11.949   9.612  0.00  0.00    -0.647 OA
ENDROOT
BRANCH   1   3
HETATM    3  O   UNK N   1      25.445  12.774  11.411  0.00  0.00    -0.773 OA
HETATM    4  H   UNK N   1      25.304  13.438  12.058  0.00  0.00     0.167 HD
ENDBRANCH   1   3
BRANCH   1   5
HETATM    5  C   UNK N   1      23.206  11.837  11.602  0.00  0.00     0.071 C 
HETATM    6  C   UNK N   1      23.219  11.900  12.932  0.00  0.00     0.018 C 
ENDBRANCH   1   5
TORSDOF 2
ENDMDL
MODEL 5
REMARK VINA RESULT:      -3.0     13.991     14.377
REMARK  2 active torsions:
REMARK  status: ('A' for Active; 'I' for Inactive)
REMARK    1  A    between atoms: O_1  and  C_2 
REMARK    2  A    between atoms: C_2  and  C_4 
ROOT
HETATM    1  C   UNK N   1      20.902  20.643   2.876  0.00  0.00     0.164 C 
HETATM    2  O   UNK N   1      20.274  20.618   3.925  0.00  0.00    -0.647 OA
ENDROOT
BRANCH   1   3
HETATM    3  O   UNK N   1      21.748  21.659   2.629  0.00  0.00    -0.773 OA
HETATM    4  H   UNK N   1      22.610  21.483   2.308  0.00  0.00     0.167 HD
ENDBRANCH   1   3
BRANCH   1   5
HETATM    5  C   UNK N   1      20.741  19.572   1.881  0.00  0.00     0.071 C 
HETATM    6  C   UNK N   1      20.085  18.451   2.173  0.00  0.00     0.018 C 
ENDBRANCH   1   5
TORSDOF 2
ENDMDL
MODEL 6
REMARK VINA RESULT:      -3.0     11.729     12.162
REMARK  2 active torsions:
REMARK  status: ('A' for Active; 'I' for Inactive)
REMARK    1  A    between atoms: O_1  and  C_2 
REMARK    2  A    between atoms: C_2  and  C_4 
ROOT
HETATM    1  C   UNK N   1      31.049  22.272  -2.518  0.00  0.00     0.164 C 
HETATM    2  O   UNK N   1      30.630  23.038  -1.661  0.00  0.00    -0.647 OA
ENDROOT
BRANCH   1   3
HETATM    3  O   UNK N   1      32.111  21.492  -2.251  0.00  0.00    -0.773 OA
HETATM    4  H   UNK N   1      32.834  21.467  -2.847  0.00  0.00     0.167 HD
ENDBRANCH   1   3
BRANCH   1   5
HETATM    5  C   UNK N   1      30.402  22.197  -3.836  0.00  0.00     0.071 C 
HETATM    6  C   UNK N   1      30.501  21.105  -4.592  0.00  0.00     0.018 C 
ENDBRANCH   1   5
TORSDOF 2
ENDMDL
MODEL 7
REMARK VINA RESULT:      -2.8     17.600     17.973
REMARK  2 active torsions:
REMARK  status: ('A' for Active; 'I' for Inactive)
REMARK    1  A    between atoms: O_1  and  C_2 
REMARK    2  A    between atoms: C_2  and  C_4 
ROOT
HETATM    1  C   UNK N   1      25.848  28.457  -3.968  0.00  0.00     0.164 C 
HETATM    2  O   UNK N   1      26.198  29.626  -3.892  0.00  0.00    -0.647 OA
ENDROOT
BRANCH   1   3
HETATM    3  O   UNK N   1      25.481  27.798  -2.855  0.00  0.00    -0.773 OA
HETATM    4  H   UNK N   1      25.363  26.869  -2.878  0.00  0.00     0.167 HD
ENDBRANCH   1   3
BRANCH   1   5
HETATM    5  C   UNK N   1      25.824  27.765  -5.265  0.00  0.00     0.071 C 
HETATM    6  C   UNK N   1      24.754  27.079  -5.662  0.00  0.00     0.018 C 
ENDBRANCH   1   5
TORSDOF 2
ENDMDL
MODEL 8
REMARK VINA RESULT:      -2.8      7.815      8.273
REMARK  2 active torsions:
REMARK  status: ('A' for Active; 'I' for Inactive)
REMARK    1  A    between atoms: O_1  and  C_2 
REMARK    2  A    between atoms: C_2  and  C_4 
ROOT
HETATM    1  C   UNK N   1      36.205  13.994  14.104  0.00  0.00     0.164 C 
HETATM    2  O   UNK N   1      35.053  13.589  14.025  0.00  0.00    -0.647 OA
ENDROOT
BRANCH   1   3
HETATM    3  O   UNK N   1      36.882  14.299  12.983  0.00  0.00    -0.773 OA
HETATM    4  H   UNK N   1      36.417  14.509  12.197  0.00  0.00     0.167 HD
ENDBRANCH   1   3
BRANCH   1   5
HETATM    5  C   UNK N   1      36.855  14.150  15.413  0.00  0.00     0.071 C 
HETATM    6  C   UNK N   1      37.326  15.329  15.815  0.00  0.00     0.018 C 
ENDBRANCH   1   5
TORSDOF 2
ENDMDL
MODEL 9
REMARK VINA RESULT:      -2.7     11.669     11.926
REMARK  2 active torsions:
REMARK  status: ('A' for Active; 'I' for Inactive)
REMARK    1  A    between atoms: O_1  and  C_2 
REMARK    2  A    between atoms: C_2  and  C_4 
ROOT
HETATM    1  C   UNK N   1      43.338  23.110   3.419  0.00  0.00     0.164 C 
HETATM    2  O   UNK N   1      42.710  23.419   2.417  0.00  0.00    -0.647 OA
ENDROOT
BRANCH   1   3
HETATM    3  O   UNK N   1      43.575  24.034   4.367  0.00  0.00    -0.773 OA
HETATM    4  H   UNK N   1      42.869  24.367   4.885  0.00  0.00     0.167 HD
ENDBRANCH   1   3
BRANCH   1   5
HETATM    5  C   UNK N   1      43.837  21.739   3.599  0.00  0.00     0.071 C 
HETATM    6  C   UNK N   1      45.100  21.503   3.948  0.00  0.00     0.018 C 
ENDBRANCH   1   5
TORSDOF 2
ENDMDL
