REMARK  12 active torsions:
REMARK  status: ('A' for Active; 'I' for Inactive)
REMARK       I    between atoms: C_2  and  N_4 
REMARK    1  A    between atoms: N_4  and  C_5 
REMARK    2  A    between atoms: C_5  and  C_6 
REMARK    3  A    between atoms: C_5  and  B_14 
REMARK    4  A    between atoms: C_6  and  C_7 
REMARK    5  A    between atoms: B_14  and  O_15 
REMARK    6  A    between atoms: B_14  and  O_16 
REMARK    7  A    between atoms: B_14  and  O_17 
REMARK    8  A    between atoms: O_17  and  C_18 
REMARK    9  A    between atoms: C_18  and  C_19 
REMARK   10  A    between atoms: C_19  and  N_20 
REMARK   11  A    between atoms: C_19  and  C_21 
REMARK   12  A    between atoms: C_21  and  O_22 
ROOT
HETATM    1  B   UNK N   1      -0.116   2.630  -0.657  0.00  0.00     0.629 B 
ENDROOT
BRANCH   1   2
HETATM    2  C   UNK N   1      -1.141   2.119   0.502  0.00  0.00     0.153 C 
BRANCH   2   3
HETATM    3  N   UNK N   1      -1.404   0.710   0.788  0.00  0.00    -0.356 N 
HETATM    4  C   UNK N   1      -0.998  -0.418   0.140  0.00  0.00     0.213 C 
HETATM    5  C   UNK N   1      -0.123  -0.400  -1.067  0.00  0.00     0.117 C 
HETATM    6  O   UNK N   1      -1.367  -1.500   0.562  0.00  0.00    -0.274 OA
HETATM    7  H   UNK N   1      -1.968   0.550   1.579  0.00  0.00     0.162 HD
ENDBRANCH   2   3
BRANCH   2   8
HETATM    8  C   UNK N   1      -2.322   3.050   0.815  0.00  0.00     0.062 C 
BRANCH   8   9
HETATM    9  C   UNK N   1      -3.686   2.525   0.472  0.00  0.00    -0.057 A 
HETATM   10  C   UNK N   1      -4.204   1.407   1.140  0.00  0.00     0.009 A 
HETATM   11  C   UNK N   1      -5.501   0.963   0.873  0.00  0.00     0.024 A 
HETATM   12  C   UNK N   1      -6.294   1.643  -0.054  0.00  0.00     0.034 A 
HETATM   13 Cl   UNK N   1      -7.927   1.096  -0.370  0.00  0.00    -0.084 Cl
HETATM   14  C   UNK N   1      -5.787   2.765  -0.717  0.00  0.00     0.024 A 
HETATM   15  C   UNK N   1      -4.485   3.208  -0.453  0.00  0.00     0.009 A 
ENDBRANCH   8   9
ENDBRANCH   2   8
ENDBRANCH   1   2
BRANCH   1  16
HETATM   16  O   UNK N   1      -0.662   2.278  -1.976  0.00  0.00    -0.408 OA
HETATM   17  H   UNK N   1      -1.044   2.473  -2.846  0.00  0.00     0.188 HD
ENDBRANCH   1  16
BRANCH   1  18
HETATM   18  O   UNK N   1       0.011   4.099  -0.595  0.00  0.00    -0.408 OA
HETATM   19  H   UNK N   1       0.889   4.509  -0.553  0.00  0.00     0.188 HD
ENDBRANCH   1  18
BRANCH   1  20
HETATM   20  O   UNK N   1       1.226   2.008  -0.507  0.00  0.00    -0.395 OA
BRANCH  20  21
HETATM   21  C   UNK N   1       1.785   2.411   0.718  0.00  0.00     0.184 C 
BRANCH  21  22
HETATM   22  C   UNK N   1       3.308   2.288   0.676  0.00  0.00     0.195 C 
BRANCH  22  23
HETATM   23  N   UNK N   1       3.841   3.140  -0.374  0.00  0.00    -0.416 N 
HETATM   24  H   UNK N   1       4.546   3.114  -1.111  0.00  0.00     0.150 HD
HETATM   25  H   UNK N   1       3.364   4.041  -0.374  0.00  0.00     0.150 HD
ENDBRANCH  22  23
BRANCH  22  26
HETATM   26  C   UNK N   1       3.788   0.872   0.487  0.00  0.00     0.165 C 
HETATM   27  O   UNK N   1       2.995  -0.052   0.382  0.00  0.00    -0.648 OA
BRANCH  26  28
HETATM   28  O   UNK N   1       5.109   0.619   0.440  0.00  0.00    -0.775 OA
HETATM   29  H   UNK N   1       5.416  -0.266   0.408  0.00  0.00     0.167 HD
ENDBRANCH  26  28
ENDBRANCH  22  26
ENDBRANCH  21  22
ENDBRANCH  20  21
ENDBRANCH   1  20
TORSDOF 12
