MODEL 1
REMARK VINA RESULT:      -4.3      0.000      0.000
REMARK  7 active torsions:
REMARK  status: ('A' for Active; 'I' for Inactive)
REMARK    1  A    between atoms: C_1  and  C_3 
REMARK    2  A    between atoms: C_1  and  C_2 
REMARK    3  A    between atoms: C_2  and  O_9 
REMARK    4  A    between atoms: C_3  and  N_5 
REMARK    5  A    between atoms: C_3  and  C_4 
REMARK    6  A    between atoms: C_4  and  O_7 
REMARK    7  A    between atoms: N_6  and  O_9 
ROOT
HETATM    1  C   UNK N   1      33.864  17.184   8.899  0.00  0.00     0.175 C 
ENDROOT
BRANCH   1   2
HETATM    2  C   UNK N   1      34.534  16.037   9.665  0.00  0.00     0.064 C 
BRANCH   2   3
HETATM    3  C   UNK N   1      35.266  16.516  10.904  0.00  0.00     0.203 C 
BRANCH   3   4
HETATM    4  O   UNK N   1      36.643  16.449  10.724  0.00  0.00    -0.287 OA
BRANCH   4   5
HETATM    5  N   UNK N   1      36.893  15.124  10.606  0.00  0.00    -0.311 N 
HETATM    6  H   UNK N   1      37.280  14.606  11.395  0.00  0.00     0.184 HD
HETATM    7  H   UNK N   1      36.693  14.643   9.729  0.00  0.00     0.184 HD
ENDBRANCH   4   5
ENDBRANCH   3   4
ENDBRANCH   2   3
ENDBRANCH   1   2
BRANCH   1   8
HETATM    8  N   UNK N   1      32.425  17.300   9.044  0.00  0.00    -0.417 N 
HETATM    9  H   UNK N   1      31.928  16.700   9.703  0.00  0.00     0.150 HD
HETATM   10  H   UNK N   1      31.909  17.981   8.487  0.00  0.00     0.150 HD
ENDBRANCH   1   8
BRANCH   1  11
HETATM   11  C   UNK N   1      34.548  18.200   8.013  0.00  0.00     0.163 C 
HETATM   12  O   UNK N   1      35.195  19.112   8.489  0.00  0.00    -0.648 OA
BRANCH  11  13
HETATM   13  O   UNK N   1      34.440  18.094   6.673  0.00  0.00    -0.775 OA
HETATM   14  H   UNK N   1      35.110  17.661   6.181  0.00  0.00     0.167 HD
ENDBRANCH  11  13
ENDBRANCH   1  11
TORSDOF 7
ENDMDL
MODEL 2
REMARK VINA RESULT:      -4.3     15.975     16.723
REMARK  7 active torsions:
REMARK  status: ('A' for Active; 'I' for Inactive)
REMARK    1  A    between atoms: C_1  and  C_3 
REMARK    2  A    between atoms: C_1  and  C_2 
REMARK    3  A    between atoms: C_2  and  O_9 
REMARK    4  A    between atoms: C_3  and  N_5 
REMARK    5  A    between atoms: C_3  and  C_4 
REMARK    6  A    between atoms: C_4  and  O_7 
REMARK    7  A    between atoms: N_6  and  O_9 
ROOT
HETATM    1  C   UNK N   1      20.250  17.899   2.202  0.00  0.00     0.175 C 
ENDROOT
BRANCH   1   2
HETATM    2  C   UNK N   1      21.131  18.993   2.816  0.00  0.00     0.064 C 
BRANCH   2   3
HETATM    3  C   UNK N   1      20.768  20.379   2.318  0.00  0.00     0.203 C 
BRANCH   3   4
HETATM    4  O   UNK N   1      21.430  20.668   1.130  0.00  0.00    -0.287 OA
BRANCH   4   5
HETATM    5  N   UNK N   1      20.441  21.054   0.290  0.00  0.00    -0.311 N 
HETATM    6  H   UNK N   1      20.275  20.537  -0.574  0.00  0.00     0.184 HD
HETATM    7  H   UNK N   1      19.861  21.860   0.520  0.00  0.00     0.184 HD
ENDBRANCH   4   5
ENDBRANCH   3   4
ENDBRANCH   2   3
ENDBRANCH   1   2
BRANCH   1   8
HETATM    8  N   UNK N   1      19.198  17.368   3.049  0.00  0.00    -0.417 N 
HETATM    9  H   UNK N   1      19.341  16.492   3.551  0.00  0.00     0.150 HD
HETATM   10  H   UNK N   1      18.316  17.872   3.143  0.00  0.00     0.150 HD
ENDBRANCH   1   8
BRANCH   1  11
HETATM   11  C   UNK N   1      20.366  17.321   0.810  0.00  0.00     0.163 C 
HETATM   12  O   UNK N   1      20.493  16.126   0.636  0.00  0.00    -0.648 OA
BRANCH  11  13
HETATM   13  O   UNK N   1      20.329  18.145  -0.258  0.00  0.00    -0.775 OA
HETATM   14  H   UNK N   1      19.675  18.815  -0.310  0.00  0.00     0.167 HD
ENDBRANCH  11  13
ENDBRANCH   1  11
TORSDOF 7
ENDMDL
MODEL 3
REMARK VINA RESULT:      -4.2     16.202     16.919
REMARK  7 active torsions:
REMARK  status: ('A' for Active; 'I' for Inactive)
REMARK    1  A    between atoms: C_1  and  C_3 
REMARK    2  A    between atoms: C_1  and  C_2 
REMARK    3  A    between atoms: C_2  and  O_9 
REMARK    4  A    between atoms: C_3  and  N_5 
REMARK    5  A    between atoms: C_3  and  C_4 
REMARK    6  A    between atoms: C_4  and  O_7 
REMARK    7  A    between atoms: N_6  and  O_9 
ROOT
HETATM    1  C   UNK N   1      20.181  18.940   1.951  0.00  0.00     0.175 C 
ENDROOT
BRANCH   1   2
HETATM    2  C   UNK N   1      20.865  17.600   2.246  0.00  0.00     0.064 C 
BRANCH   2   3
HETATM    3  C   UNK N   1      20.368  16.484   1.346  0.00  0.00     0.203 C 
BRANCH   3   4
HETATM    4  O   UNK N   1      20.019  16.976   0.093  0.00  0.00    -0.287 OA
BRANCH   4   5
HETATM    5  N   UNK N   1      18.771  16.492  -0.111  0.00  0.00    -0.311 N 
HETATM    6  H   UNK N   1      18.468  16.245  -1.053  0.00  0.00     0.184 HD
HETATM    7  H   UNK N   1      18.134  16.374   0.677  0.00  0.00     0.184 HD
ENDBRANCH   4   5
ENDBRANCH   3   4
ENDBRANCH   2   3
ENDBRANCH   1   2
BRANCH   1   8
HETATM    8  N   UNK N   1      18.776  19.036   2.303  0.00  0.00    -0.417 N 
HETATM    9  H   UNK N   1      18.101  19.377   1.618  0.00  0.00     0.150 HD
HETATM   10  H   UNK N   1      18.464  18.763   3.235  0.00  0.00     0.150 HD
ENDBRANCH   1   8
BRANCH   1  11
HETATM   11  C   UNK N   1      20.818  20.164   1.333  0.00  0.00     0.163 C 
HETATM   12  O   UNK N   1      21.529  20.899   1.989  0.00  0.00    -0.648 OA
BRANCH  11  13
HETATM   13  O   UNK N   1      20.595  20.445   0.033  0.00  0.00    -0.775 OA
HETATM   14  H   UNK N   1      20.899  21.254  -0.330  0.00  0.00     0.167 HD
ENDBRANCH  11  13
ENDBRANCH   1  11
TORSDOF 7
ENDMDL
MODEL 4
REMARK VINA RESULT:      -4.2     12.724     13.719
REMARK  7 active torsions:
REMARK  status: ('A' for Active; 'I' for Inactive)
REMARK    1  A    between atoms: C_1  and  C_3 
REMARK    2  A    between atoms: C_1  and  C_2 
REMARK    3  A    between atoms: C_2  and  O_9 
REMARK    4  A    between atoms: C_3  and  N_5 
REMARK    5  A    between atoms: C_3  and  C_4 
REMARK    6  A    between atoms: C_4  and  O_7 
REMARK    7  A    between atoms: N_6  and  O_9 
ROOT
HETATM    1  C   UNK N   1      23.806  12.088  10.941  0.00  0.00     0.175 C 
ENDROOT
BRANCH   1   2
HETATM    2  C   UNK N   1      23.273  11.715   9.553  0.00  0.00     0.064 C 
BRANCH   2   3
HETATM    3  C   UNK N   1      22.334  12.766   8.990  0.00  0.00     0.203 C 
BRANCH   3   4
HETATM    4  O   UNK N   1      21.028  12.541   9.410  0.00  0.00    -0.287 OA
BRANCH   4   5
HETATM    5  N   UNK N   1      20.692  13.682  10.056  0.00  0.00    -0.311 N 
HETATM    6  H   UNK N   1      20.216  14.431   9.553  0.00  0.00     0.184 HD
HETATM    7  H   UNK N   1      20.914  13.793  11.045  0.00  0.00     0.184 HD
ENDBRANCH   4   5
ENDBRANCH   3   4
ENDBRANCH   2   3
ENDBRANCH   1   2
BRANCH   1   8
HETATM    8  N   UNK N   1      25.149  12.635  10.988  0.00  0.00    -0.417 N 
HETATM    9  H   UNK N   1      25.901  12.188  10.463  0.00  0.00     0.150 HD
HETATM   10  H   UNK N   1      25.342  13.467  11.545  0.00  0.00     0.150 HD
ENDBRANCH   1   8
BRANCH   1  11
HETATM   11  C   UNK N   1      23.078  11.943  12.257  0.00  0.00     0.163 C 
HETATM   12  O   UNK N   1      23.668  12.043  13.315  0.00  0.00    -0.648 OA
BRANCH  11  13
HETATM   13  O   UNK N   1      21.751  11.700  12.261  0.00  0.00    -0.775 OA
HETATM   14  H   UNK N   1      21.414  10.932  11.841  0.00  0.00     0.167 HD
ENDBRANCH  11  13
ENDBRANCH   1  11
TORSDOF 7
ENDMDL
MODEL 5
REMARK VINA RESULT:      -4.1      1.918      3.458
REMARK  7 active torsions:
REMARK  status: ('A' for Active; 'I' for Inactive)
REMARK    1  A    between atoms: C_1  and  C_3 
REMARK    2  A    between atoms: C_1  and  C_2 
REMARK    3  A    between atoms: C_2  and  O_9 
REMARK    4  A    between atoms: C_3  and  N_5 
REMARK    5  A    between atoms: C_3  and  C_4 
REMARK    6  A    between atoms: C_4  and  O_7 
REMARK    7  A    between atoms: N_6  and  O_9 
ROOT
HETATM    1  C   UNK N   1      34.466  17.088   9.173  0.00  0.00     0.175 C 
ENDROOT
BRANCH   1   2
HETATM    2  C   UNK N   1      33.674  15.803   8.903  0.00  0.00     0.064 C 
BRANCH   2   3
HETATM    3  C   UNK N   1      32.202  16.069   8.655  0.00  0.00     0.203 C 
BRANCH   3   4
HETATM    4  O   UNK N   1      31.932  16.139   7.293  0.00  0.00    -0.287 OA
BRANCH   4   5
HETATM    5  N   UNK N   1      31.311  17.332   7.143  0.00  0.00    -0.311 N 
HETATM    6  H   UNK N   1      31.828  18.135   6.788  0.00  0.00     0.184 HD
HETATM    7  H   UNK N   1      30.325  17.427   7.386  0.00  0.00     0.184 HD
ENDBRANCH   4   5
ENDBRANCH   3   4
ENDBRANCH   2   3
ENDBRANCH   1   2
BRANCH   1   8
HETATM    8  N   UNK N   1      35.025  17.231  10.505  0.00  0.00    -0.417 N 
HETATM    9  H   UNK N   1      36.021  17.071  10.660  0.00  0.00     0.150 HD
HETATM   10  H   UNK N   1      34.423  17.491  11.286  0.00  0.00     0.150 HD
ENDBRANCH   1   8
BRANCH   1  11
HETATM   11  C   UNK N   1      34.720  18.214   8.198  0.00  0.00     0.163 C 
HETATM   12  O   UNK N   1      35.270  19.238   8.552  0.00  0.00    -0.648 OA
BRANCH  11  13
HETATM   13  O   UNK N   1      34.333  18.081   6.912  0.00  0.00    -0.775 OA
HETATM   14  H   UNK N   1      34.434  18.797   6.316  0.00  0.00     0.167 HD
ENDBRANCH  11  13
ENDBRANCH   1  11
TORSDOF 7
ENDMDL
MODEL 6
REMARK VINA RESULT:      -4.1      2.569      3.426
REMARK  7 active torsions:
REMARK  status: ('A' for Active; 'I' for Inactive)
REMARK    1  A    between atoms: C_1  and  C_3 
REMARK    2  A    between atoms: C_1  and  C_2 
REMARK    3  A    between atoms: C_2  and  O_9 
REMARK    4  A    between atoms: C_3  and  N_5 
REMARK    5  A    between atoms: C_3  and  C_4 
REMARK    6  A    between atoms: C_4  and  O_7 
REMARK    7  A    between atoms: N_6  and  O_9 
ROOT
HETATM    1  C   UNK N   1      34.638  15.039  10.983  0.00  0.00     0.175 C 
ENDROOT
BRANCH   1   2
HETATM    2  C   UNK N   1      35.048  13.637  11.446  0.00  0.00     0.064 C 
BRANCH   2   3
HETATM    3  C   UNK N   1      35.347  13.580  12.932  0.00  0.00     0.203 C 
BRANCH   3   4
HETATM    4  O   UNK N   1      36.651  13.989  13.191  0.00  0.00    -0.287 OA
BRANCH   4   5
HETATM    5  N   UNK N   1      37.392  13.315  12.280  0.00  0.00    -0.311 N 
HETATM    6  H   UNK N   1      36.982  13.055  11.383  0.00  0.00     0.184 HD
HETATM    7  H   UNK N   1      38.358  13.069  12.490  0.00  0.00     0.184 HD
ENDBRANCH   4   5
ENDBRANCH   3   4
ENDBRANCH   2   3
ENDBRANCH   1   2
BRANCH   1   8
HETATM    8  N   UNK N   1      33.227  15.240  10.709  0.00  0.00    -0.417 N 
HETATM    9  H   UNK N   1      32.770  14.707   9.968  0.00  0.00     0.150 HD
HETATM   10  H   UNK N   1      32.691  15.912  11.257  0.00  0.00     0.150 HD
ENDBRANCH   1   8
BRANCH   1  11
HETATM   11  C   UNK N   1      35.551  16.228  10.784  0.00  0.00     0.163 C 
HETATM   12  O   UNK N   1      35.105  17.318  10.485  0.00  0.00    -0.648 OA
BRANCH  11  13
HETATM   13  O   UNK N   1      36.882  16.078  10.942  0.00  0.00    -0.775 OA
HETATM   14  H   UNK N   1      37.475  16.587  10.425  0.00  0.00     0.167 HD
ENDBRANCH  11  13
ENDBRANCH   1  11
TORSDOF 7
ENDMDL
MODEL 7
REMARK VINA RESULT:      -3.9     15.982     16.301
REMARK  7 active torsions:
REMARK  status: ('A' for Active; 'I' for Inactive)
REMARK    1  A    between atoms: C_1  and  C_3 
REMARK    2  A    between atoms: C_1  and  C_2 
REMARK    3  A    between atoms: C_2  and  O_9 
REMARK    4  A    between atoms: C_3  and  N_5 
REMARK    5  A    between atoms: C_3  and  C_4 
REMARK    6  A    between atoms: C_4  and  O_7 
REMARK    7  A    between atoms: N_6  and  O_9 
ROOT
HETATM    1  C   UNK N   1      20.569  19.369   1.941  0.00  0.00     0.175 C 
ENDROOT
BRANCH   1   2
HETATM    2  C   UNK N   1      20.698  19.106   3.446  0.00  0.00     0.064 C 
BRANCH   2   3
HETATM    3  C   UNK N   1      20.564  17.635   3.792  0.00  0.00     0.203 C 
BRANCH   3   4
HETATM    4  O   UNK N   1      19.226  17.263   3.867  0.00  0.00    -0.287 OA
BRANCH   4   5
HETATM    5  N   UNK N   1      19.260  15.911   3.810  0.00  0.00    -0.311 N 
HETATM    6  H   UNK N   1      18.756  15.359   4.504  0.00  0.00     0.184 HD
HETATM    7  H   UNK N   1      19.788  15.444   3.073  0.00  0.00     0.184 HD
ENDBRANCH   4   5
ENDBRANCH   3   4
ENDBRANCH   2   3
ENDBRANCH   1   2
BRANCH   1   8
HETATM    8  N   UNK N   1      20.080  18.266   1.135  0.00  0.00    -0.417 N 
HETATM    9  H   UNK N   1      19.217  17.787   1.395  0.00  0.00     0.150 HD
HETATM   10  H   UNK N   1      20.599  17.968   0.309  0.00  0.00     0.150 HD
ENDBRANCH   1   8
BRANCH   1  11
HETATM   11  C   UNK N   1      20.898  20.654   1.217  0.00  0.00     0.163 C 
HETATM   12  O   UNK N   1      21.095  20.666   0.018  0.00  0.00    -0.648 OA
BRANCH  11  13
HETATM   13  O   UNK N   1      20.973  21.809   1.911  0.00  0.00    -0.775 OA
HETATM   14  H   UNK N   1      20.727  22.617   1.505  0.00  0.00     0.167 HD
ENDBRANCH  11  13
ENDBRANCH   1  11
TORSDOF 7
ENDMDL
MODEL 8
REMARK VINA RESULT:      -3.9     11.804     12.741
REMARK  7 active torsions:
REMARK  status: ('A' for Active; 'I' for Inactive)
REMARK    1  A    between atoms: C_1  and  C_3 
REMARK    2  A    between atoms: C_1  and  C_2 
REMARK    3  A    between atoms: C_2  and  O_9 
REMARK    4  A    between atoms: C_3  and  N_5 
REMARK    5  A    between atoms: C_3  and  C_4 
REMARK    6  A    between atoms: C_4  and  O_7 
REMARK    7  A    between atoms: N_6  and  O_9 
ROOT
HETATM    1  C   UNK N   1      43.546  22.659   3.450  0.00  0.00     0.175 C 
ENDROOT
BRANCH   1   2
HETATM    2  C   UNK N   1      42.369  22.252   2.557  0.00  0.00     0.064 C 
BRANCH   2   3
HETATM    3  C   UNK N   1      42.146  23.221   1.412  0.00  0.00     0.203 C 
BRANCH   3   4
HETATM    4  O   UNK N   1      41.220  24.198   1.762  0.00  0.00    -0.287 OA
BRANCH   4   5
HETATM    5  N   UNK N   1      41.191  25.021   0.687  0.00  0.00    -0.311 N 
HETATM    6  H   UNK N   1      40.618  24.782  -0.122  0.00  0.00     0.184 HD
HETATM    7  H   UNK N   1      41.741  25.879   0.687  0.00  0.00     0.184 HD
ENDBRANCH   4   5
ENDBRANCH   3   4
ENDBRANCH   2   3
ENDBRANCH   1   2
BRANCH   1   8
HETATM    8  N   UNK N   1      43.495  23.997   4.010  0.00  0.00    -0.417 N 
HETATM    9  H   UNK N   1      42.688  24.289   4.561  0.00  0.00     0.150 HD
HETATM   10  H   UNK N   1      44.266  24.646   3.853  0.00  0.00     0.150 HD
ENDBRANCH   1   8
BRANCH   1  11
HETATM   11  C   UNK N   1      44.747  21.812   3.805  0.00  0.00     0.163 C 
HETATM   12  O   UNK N   1      44.712  20.602   3.708  0.00  0.00    -0.648 OA
BRANCH  11  13
HETATM   13  O   UNK N   1      45.877  22.409   4.237  0.00  0.00    -0.775 OA
HETATM   14  H   UNK N   1      45.829  23.106   4.862  0.00  0.00     0.167 HD
ENDBRANCH  11  13
ENDBRANCH   1  11
TORSDOF 7
ENDMDL
MODEL 9
REMARK VINA RESULT:      -3.7     14.010     15.337
REMARK  7 active torsions:
REMARK  status: ('A' for Active; 'I' for Inactive)
REMARK    1  A    between atoms: C_1  and  C_3 
REMARK    2  A    between atoms: C_1  and  C_2 
REMARK    3  A    between atoms: C_2  and  O_9 
REMARK    4  A    between atoms: C_3  and  N_5 
REMARK    5  A    between atoms: C_3  and  C_4 
REMARK    6  A    between atoms: C_4  and  O_7 
REMARK    7  A    between atoms: N_6  and  O_9 
ROOT
HETATM    1  C   UNK N   1      20.252  19.054   2.284  0.00  0.00     0.175 C 
ENDROOT
BRANCH   1   2
HETATM    2  C   UNK N   1      21.082  18.115   3.166  0.00  0.00     0.064 C 
BRANCH   2   3
HETATM    3  C   UNK N   1      21.456  18.746   4.494  0.00  0.00     0.203 C 
BRANCH   3   4
HETATM    4  O   UNK N   1      22.776  18.460   4.825  0.00  0.00    -0.287 OA
BRANCH   4   5
HETATM    5  N   UNK N   1      23.498  19.126   3.893  0.00  0.00    -0.311 N 
HETATM    6  H   UNK N   1      24.464  18.858   3.709  0.00  0.00     0.184 HD
HETATM    7  H   UNK N   1      23.075  19.897   3.376  0.00  0.00     0.184 HD
ENDBRANCH   4   5
ENDBRANCH   3   4
ENDBRANCH   2   3
ENDBRANCH   1   2
BRANCH   1   8
HETATM    8  N   UNK N   1      18.817  18.839   2.288  0.00  0.00    -0.417 N 
HETATM    9  H   UNK N   1      18.441  17.906   2.119  0.00  0.00     0.150 HD
HETATM   10  H   UNK N   1      18.184  19.620   2.459  0.00  0.00     0.150 HD
ENDBRANCH   1   8
BRANCH   1  11
HETATM   11  C   UNK N   1      20.775  20.175   1.415  0.00  0.00     0.163 C 
HETATM   12  O   UNK N   1      21.299  21.156   1.904  0.00  0.00    -0.648 OA
BRANCH  11  13
HETATM   13  O   UNK N   1      20.658  20.087   0.074  0.00  0.00    -0.775 OA
HETATM   14  H   UNK N   1      21.312  20.468  -0.480  0.00  0.00     0.167 HD
ENDBRANCH  11  13
ENDBRANCH   1  11
TORSDOF 7
ENDMDL
