MODEL 1
REMARK VINA RESULT:      -3.7      0.000      0.000
REMARK  2 active torsions:
REMARK  status: ('A' for Active; 'I' for Inactive)
REMARK    1  A    between atoms: O_1  and  P_2 
REMARK    2  A    between atoms: P_2  and  O_3 
ROOT
HETATM    1  P   UNK N   1      20.953  20.583   2.191  0.00  0.00     0.403 P 
HETATM    2  O   UNK N   1      20.409  20.522   3.839  0.00  0.00    -0.624 OA
HETATM    3  O   UNK N   1      21.438  20.636   0.720  0.00  0.00    -0.624 OA
ENDROOT
BRANCH   1   4
HETATM    4  O   UNK N   1      19.727  19.399   1.860  0.00  0.00    -0.300 OA
HETATM    5  H   UNK N   1      18.859  19.678   1.530  0.00  0.00     0.223 HD
ENDBRANCH   1   4
BRANCH   1   6
HETATM    6  O   UNK N   1      22.109  21.759   2.732  0.00  0.00    -0.300 OA
HETATM    7  H   UNK N   1      23.057  21.609   2.587  0.00  0.00     0.223 HD
ENDBRANCH   1   6
TORSDOF 2
ENDMDL
MODEL 2
REMARK VINA RESULT:      -3.7      0.000      2.191
REMARK  2 active torsions:
REMARK  status: ('A' for Active; 'I' for Inactive)
REMARK    1  A    between atoms: O_1  and  P_2 
REMARK    2  A    between atoms: P_2  and  O_3 
ROOT
HETATM    1  P   UNK N   1      20.953  20.583   2.191  0.00  0.00     0.403 P 
HETATM    2  O   UNK N   1      20.409  20.523   3.839  0.00  0.00    -0.624 OA
HETATM    3  O   UNK N   1      21.438  20.636   0.720  0.00  0.00    -0.624 OA
ENDROOT
BRANCH   1   4
HETATM    4  O   UNK N   1      22.109  21.759   2.732  0.00  0.00    -0.300 OA
HETATM    5  H   UNK N   1      21.892  22.703   2.699  0.00  0.00     0.223 HD
ENDBRANCH   1   4
BRANCH   1   6
HETATM    6  O   UNK N   1      19.727  19.399   1.860  0.00  0.00    -0.300 OA
HETATM    7  H   UNK N   1      19.974  18.469   1.731  0.00  0.00     0.223 HD
ENDBRANCH   1   6
TORSDOF 2
ENDMDL
MODEL 3
REMARK VINA RESULT:      -3.7      0.100      3.022
REMARK  2 active torsions:
REMARK  status: ('A' for Active; 'I' for Inactive)
REMARK    1  A    between atoms: O_1  and  P_2 
REMARK    2  A    between atoms: P_2  and  O_3 
ROOT
HETATM    1  P   UNK N   1      20.937  20.572   2.379  0.00  0.00     0.403 P 
HETATM    2  O   UNK N   1      21.491  20.659   0.735  0.00  0.00    -0.624 OA
HETATM    3  O   UNK N   1      20.442  20.494   3.846  0.00  0.00    -0.624 OA
ENDROOT
BRANCH   1   4
HETATM    4  O   UNK N   1      22.145  21.766   2.732  0.00  0.00    -0.300 OA
HETATM    5  H   UNK N   1      23.029  21.693   2.340  0.00  0.00     0.223 HD
ENDBRANCH   1   4
BRANCH   1   6
HETATM    6  O   UNK N   1      19.799  19.388   1.816  0.00  0.00    -0.300 OA
HETATM    7  H   UNK N   1      19.689  18.554   2.298  0.00  0.00     0.223 HD
ENDBRANCH   1   6
TORSDOF 2
ENDMDL
MODEL 4
REMARK VINA RESULT:      -3.7      0.100      2.081
REMARK  2 active torsions:
REMARK  status: ('A' for Active; 'I' for Inactive)
REMARK    1  A    between atoms: O_1  and  P_2 
REMARK    2  A    between atoms: P_2  and  O_3 
ROOT
HETATM    1  P   UNK N   1      20.937  20.572   2.379  0.00  0.00     0.403 P 
HETATM    2  O   UNK N   1      21.491  20.659   0.735  0.00  0.00    -0.624 OA
HETATM    3  O   UNK N   1      20.442  20.494   3.846  0.00  0.00    -0.624 OA
ENDROOT
BRANCH   1   4
HETATM    4  O   UNK N   1      19.799  19.388   1.816  0.00  0.00    -0.300 OA
HETATM    5  H   UNK N   1      19.190  19.606   1.093  0.00  0.00     0.223 HD
ENDBRANCH   1   4
BRANCH   1   6
HETATM    6  O   UNK N   1      22.145  21.766   2.733  0.00  0.00    -0.300 OA
HETATM    7  H   UNK N   1      22.393  22.419   2.059  0.00  0.00     0.223 HD
ENDBRANCH   1   6
TORSDOF 2
ENDMDL
MODEL 5
REMARK VINA RESULT:      -3.3     14.439     15.037
REMARK  2 active torsions:
REMARK  status: ('A' for Active; 'I' for Inactive)
REMARK    1  A    between atoms: O_1  and  P_2 
REMARK    2  A    between atoms: P_2  and  O_3 
ROOT
HETATM    1  P   UNK N   1      34.339  17.804   8.147  0.00  0.00     0.403 P 
HETATM    2  O   UNK N   1      33.508  16.309   7.846  0.00  0.00    -0.624 OA
HETATM    3  O   UNK N   1      35.081  19.138   8.415  0.00  0.00    -0.624 OA
ENDROOT
BRANCH   1   4
HETATM    4  O   UNK N   1      34.287  17.366   9.825  0.00  0.00    -0.300 OA
HETATM    5  H   UNK N   1      34.999  17.646  10.422  0.00  0.00     0.223 HD
ENDBRANCH   1   4
BRANCH   1   6
HETATM    6  O   UNK N   1      34.285  18.051   6.429  0.00  0.00    -0.300 OA
HETATM    7  H   UNK N   1      35.090  18.306   5.951  0.00  0.00     0.223 HD
ENDBRANCH   1   6
TORSDOF 2
ENDMDL
MODEL 6
REMARK VINA RESULT:      -3.3     14.438     15.018
REMARK  2 active torsions:
REMARK  status: ('A' for Active; 'I' for Inactive)
REMARK    1  A    between atoms: O_1  and  P_2 
REMARK    2  A    between atoms: P_2  and  O_3 
ROOT
HETATM    1  P   UNK N   1      34.338  17.804   8.146  0.00  0.00     0.403 P 
HETATM    2  O   UNK N   1      33.506  16.310   7.845  0.00  0.00    -0.624 OA
HETATM    3  O   UNK N   1      35.081  19.138   8.415  0.00  0.00    -0.624 OA
ENDROOT
BRANCH   1   4
HETATM    4  O   UNK N   1      34.284  18.051   6.429  0.00  0.00    -0.300 OA
HETATM    5  H   UNK N   1      33.997  18.905   6.070  0.00  0.00     0.223 HD
ENDBRANCH   1   4
BRANCH   1   6
HETATM    6  O   UNK N   1      34.286  17.367   9.825  0.00  0.00    -0.300 OA
HETATM    7  H   UNK N   1      34.898  16.698  10.171  0.00  0.00     0.223 HD
ENDBRANCH   1   6
TORSDOF 2
ENDMDL
MODEL 7
REMARK VINA RESULT:      -3.3     14.456     15.080
REMARK  2 active torsions:
REMARK  status: ('A' for Active; 'I' for Inactive)
REMARK    1  A    between atoms: O_1  and  P_2 
REMARK    2  A    between atoms: P_2  and  O_3 
ROOT
HETATM    1  P   UNK N   1      34.286  17.630   8.147  0.00  0.00     0.403 P 
HETATM    2  O   UNK N   1      35.101  19.138   8.432  0.00  0.00    -0.624 OA
HETATM    3  O   UNK N   1      33.559  16.285   7.893  0.00  0.00    -0.624 OA
ENDROOT
BRANCH   1   4
HETATM    4  O   UNK N   1      34.372  17.387   9.864  0.00  0.00    -0.300 OA
HETATM    5  H   UNK N   1      33.584  17.522  10.413  0.00  0.00     0.223 HD
ENDBRANCH   1   4
BRANCH   1   6
HETATM    6  O   UNK N   1      34.304  18.066   6.468  0.00  0.00    -0.300 OA
HETATM    7  H   UNK N   1      33.829  17.521   5.820  0.00  0.00     0.223 HD
ENDBRANCH   1   6
TORSDOF 2
ENDMDL
MODEL 8
REMARK VINA RESULT:      -3.3     14.457     15.060
REMARK  2 active torsions:
REMARK  status: ('A' for Active; 'I' for Inactive)
REMARK    1  A    between atoms: O_1  and  P_2 
REMARK    2  A    between atoms: P_2  and  O_3 
ROOT
HETATM    1  P   UNK N   1      34.286  17.631   8.147  0.00  0.00     0.403 P 
HETATM    2  O   UNK N   1      35.101  19.138   8.433  0.00  0.00    -0.624 OA
HETATM    3  O   UNK N   1      33.560  16.286   7.891  0.00  0.00    -0.624 OA
ENDROOT
BRANCH   1   4
HETATM    4  O   UNK N   1      34.305  18.068   6.467  0.00  0.00    -0.300 OA
HETATM    5  H   UNK N   1      33.733  18.781   6.145  0.00  0.00     0.223 HD
ENDBRANCH   1   4
BRANCH   1   6
HETATM    6  O   UNK N   1      34.371  17.387   9.863  0.00  0.00    -0.300 OA
HETATM    7  H   UNK N   1      33.801  16.727  10.288  0.00  0.00     0.223 HD
ENDBRANCH   1   6
TORSDOF 2
ENDMDL
MODEL 9
REMARK VINA RESULT:      -3.2     14.545     15.364
REMARK  2 active torsions:
REMARK  status: ('A' for Active; 'I' for Inactive)
REMARK    1  A    between atoms: O_1  and  P_2 
REMARK    2  A    between atoms: P_2  and  O_3 
ROOT
HETATM    1  P   UNK N   1      34.481  17.720   8.321  0.00  0.00     0.403 P 
HETATM    2  O   UNK N   1      34.316  18.128   6.641  0.00  0.00    -0.624 OA
HETATM    3  O   UNK N   1      34.627  17.357   9.821  0.00  0.00    -0.624 OA
ENDROOT
BRANCH   1   4
HETATM    4  O   UNK N   1      35.306  19.237   8.494  0.00  0.00    -0.300 OA
HETATM    5  H   UNK N   1      35.314  19.871   7.760  0.00  0.00     0.223 HD
ENDBRANCH   1   4
BRANCH   1   6
HETATM    6  O   UNK N   1      33.634  16.255   7.934  0.00  0.00    -0.300 OA
HETATM    7  H   UNK N   1      32.823  16.290   7.403  0.00  0.00     0.223 HD
ENDBRANCH   1   6
TORSDOF 2
ENDMDL
