MODEL 1
REMARK VINA RESULT:      -4.4      0.000      0.000
REMARK  16 active torsions:
REMARK  status: ('A' for Active; 'I' for Inactive)
REMARK    1  A    between atoms: C_2  and  C_3 
REMARK    2  A    between atoms: C_3  and  C_4 
REMARK    3  A    between atoms: C_4  and  C_5 
REMARK    4  A    between atoms: C_5  and  C_6 
REMARK    5  A    between atoms: C_6  and  C_7 
REMARK    6  A    between atoms: C_7  and  C_8 
REMARK    7  A    between atoms: C_8  and  C_9 
REMARK    8  A    between atoms: C_9  and  C_10 
REMARK    9  A    between atoms: C_10  and  C_11 
REMARK   10  A    between atoms: C_11  and  C_12 
REMARK   11  A    between atoms: C_12  and  C_13 
REMARK   12  A    between atoms: C_13  and  C_14 
REMARK   13  A    between atoms: C_14  and  C_15 
REMARK   14  A    between atoms: C_15  and  C_16 
REMARK   15  A    between atoms: C_16  and  S_17 
REMARK   16  A    between atoms: S_17  and  O_18 
ROOT
HETATM    1  C   UNK N   1      28.422  23.972  -6.605  0.00  0.00     0.000 C 
ENDROOT
BRANCH   1   2
HETATM    2  C   UNK N   1      27.265  23.907  -7.578  0.00  0.00     0.000 C 
BRANCH   2   3
HETATM    3  C   UNK N   1      26.020  23.504  -6.827  0.00  0.00     0.000 C 
BRANCH   3   4
HETATM    4  C   UNK N   1      26.266  23.649  -5.342  0.00  0.00     0.000 C 
BRANCH   4   5
HETATM    5  C   UNK N   1      25.465  24.825  -4.838  0.00  0.00     0.000 C 
BRANCH   5   6
HETATM    6  C   UNK N   1      26.336  25.740  -4.008  0.00  0.00     0.000 C 
BRANCH   6   7
HETATM    7  C   UNK N   1      26.156  27.143  -4.542  0.00  0.00     0.000 C 
BRANCH   7   8
HETATM    8  C   UNK N   1      25.660  27.119  -5.970  0.00  0.00     0.000 C 
BRANCH   8   9
HETATM    9  C   UNK N   1      26.839  27.413  -6.873  0.00  0.00    -0.000 C 
BRANCH   9  10
HETATM   10  C   UNK N   1      27.596  28.622  -6.371  0.00  0.00    -0.005 C 
HETATM   11  C   UNK N   1      28.765  28.888  -7.297  0.00  0.00     0.005 C 
ENDBRANCH   9  10
ENDBRANCH   8   9
ENDBRANCH   7   8
ENDBRANCH   6   7
ENDBRANCH   5   6
ENDBRANCH   4   5
ENDBRANCH   3   4
ENDBRANCH   2   3
ENDBRANCH   1   2
BRANCH   1  12
HETATM   12  C   UNK N   1      29.565  24.754  -7.215  0.00  0.00     0.000 C 
BRANCH  12  13
HETATM   13  C   UNK N   1      30.368  25.458  -6.135  0.00  0.00     0.000 C 
BRANCH  13  14
HETATM   14  C   UNK N   1      29.746  25.210  -4.771  0.00  0.00     0.001 C 
BRANCH  14  15
HETATM   15  C   UNK N   1      30.829  25.034  -3.717  0.00  0.00     0.017 C 
BRANCH  15  16
HETATM   16  C   UNK N   1      31.616  23.763  -3.970  0.00  0.00     0.155 C 
BRANCH  16  17
HETATM   17  S   UNK N   1      31.158  22.457  -2.785  0.00  0.00     0.094 S 
HETATM   18  O   UNK N   1      30.468  23.018  -1.532  0.00  0.00    -0.601 OA
HETATM   19  O   UNK N   1      30.076  21.516  -3.333  0.00  0.00    -0.601 OA
BRANCH  17  20
HETATM   20  O   UNK N   1      32.383  21.406  -2.201  0.00  0.00    -0.296 OA
HETATM   21  H   UNK N   1      32.898  21.585  -1.398  0.00  0.00     0.232 HD
ENDBRANCH  17  20
ENDBRANCH  16  17
ENDBRANCH  15  16
ENDBRANCH  14  15
ENDBRANCH  13  14
ENDBRANCH  12  13
ENDBRANCH   1  12
TORSDOF 16
ENDMDL
MODEL 2
REMARK VINA RESULT:      -4.4      1.117      3.315
REMARK  16 active torsions:
REMARK  status: ('A' for Active; 'I' for Inactive)
REMARK    1  A    between atoms: C_2  and  C_3 
REMARK    2  A    between atoms: C_3  and  C_4 
REMARK    3  A    between atoms: C_4  and  C_5 
REMARK    4  A    between atoms: C_5  and  C_6 
REMARK    5  A    between atoms: C_6  and  C_7 
REMARK    6  A    between atoms: C_7  and  C_8 
REMARK    7  A    between atoms: C_8  and  C_9 
REMARK    8  A    between atoms: C_9  and  C_10 
REMARK    9  A    between atoms: C_10  and  C_11 
REMARK   10  A    between atoms: C_11  and  C_12 
REMARK   11  A    between atoms: C_12  and  C_13 
REMARK   12  A    between atoms: C_13  and  C_14 
REMARK   13  A    between atoms: C_14  and  C_15 
REMARK   14  A    between atoms: C_15  and  C_16 
REMARK   15  A    between atoms: C_16  and  S_17 
REMARK   16  A    between atoms: S_17  and  O_18 
ROOT
HETATM    1  C   UNK N   1      28.496  28.432  -5.924  0.00  0.00     0.000 C 
ENDROOT
BRANCH   1   2
HETATM    2  C   UNK N   1      28.102  28.882  -4.535  0.00  0.00     0.000 C 
BRANCH   2   3
HETATM    3  C   UNK N   1      26.653  29.301  -4.552  0.00  0.00     0.000 C 
BRANCH   3   4
HETATM    4  C   UNK N   1      25.781  28.086  -4.320  0.00  0.00     0.000 C 
BRANCH   4   5
HETATM    5  C   UNK N   1      26.325  27.328  -3.133  0.00  0.00     0.000 C 
BRANCH   5   6
HETATM    6  C   UNK N   1      26.343  25.844  -3.418  0.00  0.00     0.000 C 
BRANCH   6   7
HETATM    7  C   UNK N   1      25.903  25.654  -4.852  0.00  0.00     0.000 C 
BRANCH   7   8
HETATM    8  C   UNK N   1      26.369  24.321  -5.390  0.00  0.00     0.000 C 
BRANCH   8   9
HETATM    9  C   UNK N   1      26.539  24.462  -6.887  0.00  0.00    -0.000 C 
BRANCH   9  10
HETATM   10  C   UNK N   1      27.864  23.878  -7.322  0.00  0.00    -0.005 C 
HETATM   11  C   UNK N   1      28.280  22.811  -6.332  0.00  0.00     0.005 C 
ENDBRANCH   9  10
ENDBRANCH   8   9
ENDBRANCH   7   8
ENDBRANCH   6   7
ENDBRANCH   5   6
ENDBRANCH   4   5
ENDBRANCH   3   4
ENDBRANCH   2   3
ENDBRANCH   1   2
BRANCH   1  12
HETATM   12  C   UNK N   1      29.115  27.052  -5.863  0.00  0.00     0.000 C 
BRANCH  12  13
HETATM   13  C   UNK N   1      29.761  26.815  -4.509  0.00  0.00     0.000 C 
BRANCH  13  14
HETATM   14  C   UNK N   1      29.821  25.327  -4.207  0.00  0.00     0.001 C 
BRANCH  14  15
HETATM   15  C   UNK N   1      31.191  24.951  -3.661  0.00  0.00     0.017 C 
BRANCH  15  16
HETATM   16  C   UNK N   1      31.575  23.553  -4.107  0.00  0.00     0.155 C 
BRANCH  16  17
HETATM   17  S   UNK N   1      31.197  22.323  -2.818  0.00  0.00     0.094 S 
HETATM   18  O   UNK N   1      30.473  22.941  -1.611  0.00  0.00    -0.601 OA
HETATM   19  O   UNK N   1      30.174  21.277  -3.282  0.00  0.00    -0.601 OA
BRANCH  17  20
HETATM   20  O   UNK N   1      32.483  21.399  -2.155  0.00  0.00    -0.296 OA
HETATM   21  H   UNK N   1      33.026  20.791  -2.682  0.00  0.00     0.232 HD
ENDBRANCH  17  20
ENDBRANCH  16  17
ENDBRANCH  15  16
ENDBRANCH  14  15
ENDBRANCH  13  14
ENDBRANCH  12  13
ENDBRANCH   1  12
TORSDOF 16
ENDMDL
MODEL 3
REMARK VINA RESULT:      -4.3     11.687     13.556
REMARK  16 active torsions:
REMARK  status: ('A' for Active; 'I' for Inactive)
REMARK    1  A    between atoms: C_2  and  C_3 
REMARK    2  A    between atoms: C_3  and  C_4 
REMARK    3  A    between atoms: C_4  and  C_5 
REMARK    4  A    between atoms: C_5  and  C_6 
REMARK    5  A    between atoms: C_6  and  C_7 
REMARK    6  A    between atoms: C_7  and  C_8 
REMARK    7  A    between atoms: C_8  and  C_9 
REMARK    8  A    between atoms: C_9  and  C_10 
REMARK    9  A    between atoms: C_10  and  C_11 
REMARK   10  A    between atoms: C_11  and  C_12 
REMARK   11  A    between atoms: C_12  and  C_13 
REMARK   12  A    between atoms: C_13  and  C_14 
REMARK   13  A    between atoms: C_14  and  C_15 
REMARK   14  A    between atoms: C_15  and  C_16 
REMARK   15  A    between atoms: C_16  and  S_17 
REMARK   16  A    between atoms: S_17  and  O_18 
ROOT
HETATM    1  C   UNK N   1      30.269  15.934   3.996  0.00  0.00     0.000 C 
ENDROOT
BRANCH   1   2
HETATM    2  C   UNK N   1      29.841  15.450   5.363  0.00  0.00     0.000 C 
BRANCH   2   3
HETATM    3  C   UNK N   1      29.095  16.560   6.061  0.00  0.00     0.000 C 
BRANCH   3   4
HETATM    4  C   UNK N   1      29.804  16.898   7.354  0.00  0.00     0.000 C 
BRANCH   4   5
HETATM    5  C   UNK N   1      29.188  18.154   7.922  0.00  0.00     0.000 C 
BRANCH   5   6
HETATM    6  C   UNK N   1      27.927  18.510   7.168  0.00  0.00     0.000 C 
BRANCH   6   7
HETATM    7  C   UNK N   1      27.809  20.017   7.170  0.00  0.00     0.000 C 
BRANCH   7   8
HETATM    8  C   UNK N   1      27.302  20.523   5.839  0.00  0.00     0.000 C 
BRANCH   8   9
HETATM    9  C   UNK N   1      28.092  19.830   4.751  0.00  0.00    -0.000 C 
BRANCH   9  10
HETATM   10  C   UNK N   1      27.158  19.247   3.714  0.00  0.00    -0.005 C 
HETATM   11  C   UNK N   1      26.059  20.248   3.426  0.00  0.00     0.005 C 
ENDBRANCH   9  10
ENDBRANCH   8   9
ENDBRANCH   7   8
ENDBRANCH   6   7
ENDBRANCH   5   6
ENDBRANCH   4   5
ENDBRANCH   3   4
ENDBRANCH   2   3
ENDBRANCH   1   2
BRANCH   1  12
HETATM   12  C   UNK N   1      31.059  17.219   4.129  0.00  0.00     0.000 C 
BRANCH  12  13
HETATM   13  C   UNK N   1      32.384  17.111   3.393  0.00  0.00     0.000 C 
BRANCH  13  14
HETATM   14  C   UNK N   1      33.520  16.904   4.380  0.00  0.00     0.001 C 
BRANCH  14  15
HETATM   15  C   UNK N   1      33.172  17.523   5.726  0.00  0.00     0.017 C 
BRANCH  15  16
HETATM   16  C   UNK N   1      33.975  16.869   6.835  0.00  0.00     0.155 C 
BRANCH  16  17
HETATM   17  S   UNK N   1      33.952  17.880   8.350  0.00  0.00     0.094 S 
HETATM   18  O   UNK N   1      34.884  19.099   8.256  0.00  0.00    -0.601 OA
HETATM   19  O   UNK N   1      32.594  18.554   8.590  0.00  0.00    -0.601 OA
BRANCH  17  20
HETATM   20  O   UNK N   1      34.329  17.131   9.848  0.00  0.00    -0.296 OA
HETATM   21  H   UNK N   1      34.790  17.589  10.569  0.00  0.00     0.232 HD
ENDBRANCH  17  20
ENDBRANCH  16  17
ENDBRANCH  15  16
ENDBRANCH  14  15
ENDBRANCH  13  14
ENDBRANCH  12  13
ENDBRANCH   1  12
TORSDOF 16
ENDMDL
MODEL 4
REMARK VINA RESULT:      -4.3      1.599      2.256
REMARK  16 active torsions:
REMARK  status: ('A' for Active; 'I' for Inactive)
REMARK    1  A    between atoms: C_2  and  C_3 
REMARK    2  A    between atoms: C_3  and  C_4 
REMARK    3  A    between atoms: C_4  and  C_5 
REMARK    4  A    between atoms: C_5  and  C_6 
REMARK    5  A    between atoms: C_6  and  C_7 
REMARK    6  A    between atoms: C_7  and  C_8 
REMARK    7  A    between atoms: C_8  and  C_9 
REMARK    8  A    between atoms: C_9  and  C_10 
REMARK    9  A    between atoms: C_10  and  C_11 
REMARK   10  A    between atoms: C_11  and  C_12 
REMARK   11  A    between atoms: C_12  and  C_13 
REMARK   12  A    between atoms: C_13  and  C_14 
REMARK   13  A    between atoms: C_14  and  C_15 
REMARK   14  A    between atoms: C_15  and  C_16 
REMARK   15  A    between atoms: C_16  and  S_17 
REMARK   16  A    between atoms: S_17  and  O_18 
ROOT
HETATM    1  C   UNK N   1      27.809  27.512  -7.192  0.00  0.00     0.000 C 
ENDROOT
BRANCH   1   2
HETATM    2  C   UNK N   1      27.271  26.436  -8.108  0.00  0.00     0.000 C 
BRANCH   2   3
HETATM    3  C   UNK N   1      25.996  25.886  -7.517  0.00  0.00     0.000 C 
BRANCH   3   4
HETATM    4  C   UNK N   1      25.559  26.769  -6.369  0.00  0.00     0.000 C 
BRANCH   4   5
HETATM    5  C   UNK N   1      25.558  25.944  -5.106  0.00  0.00     0.000 C 
BRANCH   5   6
HETATM    6  C   UNK N   1      26.023  26.775  -3.932  0.00  0.00     0.000 C 
BRANCH   6   7
HETATM    7  C   UNK N   1      25.587  28.200  -4.187  0.00  0.00     0.000 C 
BRANCH   7   8
HETATM    8  C   UNK N   1      26.548  29.182  -3.557  0.00  0.00     0.000 C 
BRANCH   8   9
HETATM    9  C   UNK N   1      27.079  30.077  -4.656  0.00  0.00    -0.000 C 
BRANCH   9  10
HETATM   10  C   UNK N   1      28.559  30.320  -4.467  0.00  0.00    -0.005 C 
HETATM   11  C   UNK N   1      28.990  29.720  -3.144  0.00  0.00     0.005 C 
ENDBRANCH   9  10
ENDBRANCH   8   9
ENDBRANCH   7   8
ENDBRANCH   6   7
ENDBRANCH   5   6
ENDBRANCH   4   5
ENDBRANCH   3   4
ENDBRANCH   2   3
ENDBRANCH   1   2
BRANCH   1  12
HETATM   12  C   UNK N   1      29.240  27.199  -6.813  0.00  0.00     0.000 C 
BRANCH  12  13
HETATM   13  C   UNK N   1      29.340  26.862  -5.335  0.00  0.00     0.000 C 
BRANCH  13  14
HETATM   14  C   UNK N   1      29.343  25.356  -5.137  0.00  0.00     0.001 C 
BRANCH  14  15
HETATM   15  C   UNK N   1      29.843  25.004  -3.744  0.00  0.00     0.017 C 
BRANCH  15  16
HETATM   16  C   UNK N   1      31.064  24.107  -3.828  0.00  0.00     0.155 C 
BRANCH  16  17
HETATM   17  S   UNK N   1      30.898  22.663  -2.730  0.00  0.00     0.094 S 
HETATM   18  O   UNK N   1      30.224  23.016  -1.394  0.00  0.00    -0.601 OA
HETATM   19  O   UNK N   1      29.934  21.606  -3.287  0.00  0.00    -0.601 OA
BRANCH  17  20
HETATM   20  O   UNK N   1      32.308  21.778  -2.311  0.00  0.00    -0.296 OA
HETATM   21  H   UNK N   1      32.954  22.089  -1.658  0.00  0.00     0.232 HD
ENDBRANCH  17  20
ENDBRANCH  16  17
ENDBRANCH  15  16
ENDBRANCH  14  15
ENDBRANCH  13  14
ENDBRANCH  12  13
ENDBRANCH   1  12
TORSDOF 16
ENDMDL
MODEL 5
REMARK VINA RESULT:      -4.2      2.115      3.092
REMARK  16 active torsions:
REMARK  status: ('A' for Active; 'I' for Inactive)
REMARK    1  A    between atoms: C_2  and  C_3 
REMARK    2  A    between atoms: C_3  and  C_4 
REMARK    3  A    between atoms: C_4  and  C_5 
REMARK    4  A    between atoms: C_5  and  C_6 
REMARK    5  A    between atoms: C_6  and  C_7 
REMARK    6  A    between atoms: C_7  and  C_8 
REMARK    7  A    between atoms: C_8  and  C_9 
REMARK    8  A    between atoms: C_9  and  C_10 
REMARK    9  A    between atoms: C_10  and  C_11 
REMARK   10  A    between atoms: C_11  and  C_12 
REMARK   11  A    between atoms: C_12  and  C_13 
REMARK   12  A    between atoms: C_13  and  C_14 
REMARK   13  A    between atoms: C_14  and  C_15 
REMARK   14  A    between atoms: C_15  and  C_16 
REMARK   15  A    between atoms: C_16  and  S_17 
REMARK   16  A    between atoms: S_17  and  O_18 
ROOT
HETATM    1  C   UNK N   1      27.171  21.231  -7.893  0.00  0.00     0.000 C 
ENDROOT
BRANCH   1   2
HETATM    2  C   UNK N   1      26.628  22.640  -7.813  0.00  0.00     0.000 C 
BRANCH   2   3
HETATM    3  C   UNK N   1      25.704  22.739  -6.624  0.00  0.00     0.000 C 
BRANCH   3   4
HETATM    4  C   UNK N   1      25.935  24.060  -5.923  0.00  0.00     0.000 C 
BRANCH   4   5
HETATM    5  C   UNK N   1      26.634  24.992  -6.882  0.00  0.00     0.000 C 
BRANCH   5   6
HETATM    6  C   UNK N   1      25.763  26.190  -7.183  0.00  0.00     0.000 C 
BRANCH   6   7
HETATM    7  C   UNK N   1      25.077  26.585  -5.895  0.00  0.00     0.000 C 
BRANCH   7   8
HETATM    8  C   UNK N   1      25.793  27.738  -5.231  0.00  0.00     0.000 C 
BRANCH   8   9
HETATM    9  C   UNK N   1      25.680  27.551  -3.734  0.00  0.00    -0.000 C 
BRANCH   9  10
HETATM   10  C   UNK N   1      26.758  26.613  -3.239  0.00  0.00    -0.005 C 
HETATM   11  C   UNK N   1      28.040  26.896  -3.994  0.00  0.00     0.005 C 
ENDBRANCH   9  10
ENDBRANCH   8   9
ENDBRANCH   7   8
ENDBRANCH   6   7
ENDBRANCH   5   6
ENDBRANCH   4   5
ENDBRANCH   3   4
ENDBRANCH   2   3
ENDBRANCH   1   2
BRANCH   1  12
HETATM   12  C   UNK N   1      28.680  21.266  -8.007  0.00  0.00     0.000 C 
BRANCH  12  13
HETATM   13  C   UNK N   1      29.300  20.103  -7.252  0.00  0.00     0.000 C 
BRANCH  13  14
HETATM   14  C   UNK N   1      30.510  20.573  -6.463  0.00  0.00     0.001 C 
BRANCH  14  15
HETATM   15  C   UNK N   1      30.077  21.459  -5.304  0.00  0.00     0.017 C 
BRANCH  15  16
HETATM   16  C   UNK N   1      30.532  20.868  -3.984  0.00  0.00     0.155 C 
BRANCH  16  17
HETATM   17  S   UNK N   1      31.312  22.132  -2.929  0.00  0.00     0.094 S 
HETATM   18  O   UNK N   1      32.445  21.556  -2.064  0.00  0.00    -0.601 OA
HETATM   19  O   UNK N   1      32.061  23.197  -3.741  0.00  0.00    -0.601 OA
BRANCH  17  20
HETATM   20  O   UNK N   1      30.325  23.031  -1.850  0.00  0.00    -0.296 OA
HETATM   21  H   UNK N   1      30.601  23.267  -0.951  0.00  0.00     0.232 HD
ENDBRANCH  17  20
ENDBRANCH  16  17
ENDBRANCH  15  16
ENDBRANCH  14  15
ENDBRANCH  13  14
ENDBRANCH  12  13
ENDBRANCH   1  12
TORSDOF 16
ENDMDL
MODEL 6
REMARK VINA RESULT:      -4.2     18.544     21.700
REMARK  16 active torsions:
REMARK  status: ('A' for Active; 'I' for Inactive)
REMARK    1  A    between atoms: C_2  and  C_3 
REMARK    2  A    between atoms: C_3  and  C_4 
REMARK    3  A    between atoms: C_4  and  C_5 
REMARK    4  A    between atoms: C_5  and  C_6 
REMARK    5  A    between atoms: C_6  and  C_7 
REMARK    6  A    between atoms: C_7  and  C_8 
REMARK    7  A    between atoms: C_8  and  C_9 
REMARK    8  A    between atoms: C_9  and  C_10 
REMARK    9  A    between atoms: C_10  and  C_11 
REMARK   10  A    between atoms: C_11  and  C_12 
REMARK   11  A    between atoms: C_12  and  C_13 
REMARK   12  A    between atoms: C_13  and  C_14 
REMARK   13  A    between atoms: C_14  and  C_15 
REMARK   14  A    between atoms: C_15  and  C_16 
REMARK   15  A    between atoms: C_16  and  S_17 
REMARK   16  A    between atoms: S_17  and  O_18 
ROOT
HETATM    1  C   UNK N   1      35.078  12.848  10.811  0.00  0.00     0.000 C 
ENDROOT
BRANCH   1   2
HETATM    2  C   UNK N   1      36.082  13.823  11.383  0.00  0.00     0.000 C 
BRANCH   2   3
HETATM    3  C   UNK N   1      35.695  14.142  12.806  0.00  0.00     0.000 C 
BRANCH   3   4
HETATM    4  C   UNK N   1      36.320  13.121  13.732  0.00  0.00     0.000 C 
BRANCH   4   5
HETATM    5  C   UNK N   1      36.055  13.544  15.156  0.00  0.00     0.000 C 
BRANCH   5   6
HETATM    6  C   UNK N   1      34.820  12.854  15.690  0.00  0.00     0.000 C 
BRANCH   6   7
HETATM    7  C   UNK N   1      34.932  11.389  15.334  0.00  0.00     0.000 C 
BRANCH   7   8
HETATM    8  C   UNK N   1      33.628  10.865  14.778  0.00  0.00     0.000 C 
BRANCH   8   9
HETATM    9  C   UNK N   1      33.887  10.386  13.365  0.00  0.00    -0.000 C 
BRANCH   9  10
HETATM   10  C   UNK N   1      35.031   9.397  13.348  0.00  0.00    -0.005 C 
HETATM   11  C   UNK N   1      35.553   9.275  11.932  0.00  0.00     0.005 C 
ENDBRANCH   9  10
ENDBRANCH   8   9
ENDBRANCH   7   8
ENDBRANCH   6   7
ENDBRANCH   5   6
ENDBRANCH   4   5
ENDBRANCH   3   4
ENDBRANCH   2   3
ENDBRANCH   1   2
BRANCH   1  12
HETATM   12  C   UNK N   1      35.032  12.980   9.304  0.00  0.00     0.000 C 
BRANCH  12  13
HETATM   13  C   UNK N   1      33.613  13.252   8.834  0.00  0.00     0.000 C 
BRANCH  13  14
HETATM   14  C   UNK N   1      33.514  14.647   8.239  0.00  0.00     0.001 C 
BRANCH  14  15
HETATM   15  C   UNK N   1      33.415  15.689   9.342  0.00  0.00     0.017 C 
BRANCH  15  16
HETATM   16  C   UNK N   1      34.615  16.616   9.309  0.00  0.00     0.155 C 
BRANCH  16  17
HETATM   17  S   UNK N   1      34.347  18.002   8.157  0.00  0.00     0.094 S 
HETATM   18  O   UNK N   1      32.946  18.618   8.299  0.00  0.00    -0.601 OA
HETATM   19  O   UNK N   1      35.243  19.209   8.467  0.00  0.00    -0.601 OA
BRANCH  17  20
HETATM   20  O   UNK N   1      34.559  17.731   6.476  0.00  0.00    -0.296 OA
HETATM   21  H   UNK N   1      33.824  17.724   5.842  0.00  0.00     0.232 HD
ENDBRANCH  17  20
ENDBRANCH  16  17
ENDBRANCH  15  16
ENDBRANCH  14  15
ENDBRANCH  13  14
ENDBRANCH  12  13
ENDBRANCH   1  12
TORSDOF 16
ENDMDL
MODEL 7
REMARK VINA RESULT:      -4.2     12.126     13.873
REMARK  16 active torsions:
REMARK  status: ('A' for Active; 'I' for Inactive)
REMARK    1  A    between atoms: C_2  and  C_3 
REMARK    2  A    between atoms: C_3  and  C_4 
REMARK    3  A    between atoms: C_4  and  C_5 
REMARK    4  A    between atoms: C_5  and  C_6 
REMARK    5  A    between atoms: C_6  and  C_7 
REMARK    6  A    between atoms: C_7  and  C_8 
REMARK    7  A    between atoms: C_8  and  C_9 
REMARK    8  A    between atoms: C_9  and  C_10 
REMARK    9  A    between atoms: C_10  and  C_11 
REMARK   10  A    between atoms: C_11  and  C_12 
REMARK   11  A    between atoms: C_12  and  C_13 
REMARK   12  A    between atoms: C_13  and  C_14 
REMARK   13  A    between atoms: C_14  and  C_15 
REMARK   14  A    between atoms: C_15  and  C_16 
REMARK   15  A    between atoms: C_16  and  S_17 
REMARK   16  A    between atoms: S_17  and  O_18 
ROOT
HETATM    1  C   UNK N   1      30.092  16.878   4.029  0.00  0.00     0.000 C 
ENDROOT
BRANCH   1   2
HETATM    2  C   UNK N   1      30.144  15.411   3.665  0.00  0.00     0.000 C 
BRANCH   2   3
HETATM    3  C   UNK N   1      28.736  14.870   3.626  0.00  0.00     0.000 C 
BRANCH   3   4
HETATM    4  C   UNK N   1      28.356  14.372   5.003  0.00  0.00     0.000 C 
BRANCH   4   5
HETATM    5  C   UNK N   1      27.025  14.977   5.379  0.00  0.00     0.000 C 
BRANCH   5   6
HETATM    6  C   UNK N   1      27.224  16.146   6.317  0.00  0.00     0.000 C 
BRANCH   6   7
HETATM    7  C   UNK N   1      26.707  17.381   5.614  0.00  0.00     0.000 C 
BRANCH   7   8
HETATM    8  C   UNK N   1      27.505  18.603   6.010  0.00  0.00     0.000 C 
BRANCH   8   9
HETATM    9  C   UNK N   1      27.691  19.453   4.771  0.00  0.00    -0.000 C 
BRANCH   9  10
HETATM   10  C   UNK N   1      26.974  20.775   4.929  0.00  0.00    -0.005 C 
HETATM   11  C   UNK N   1      27.228  21.308   6.324  0.00  0.00     0.005 C 
ENDBRANCH   9  10
ENDBRANCH   8   9
ENDBRANCH   7   8
ENDBRANCH   6   7
ENDBRANCH   5   6
ENDBRANCH   4   5
ENDBRANCH   3   4
ENDBRANCH   2   3
ENDBRANCH   1   2
BRANCH   1  12
HETATM   12  C   UNK N   1      31.162  17.194   5.052  0.00  0.00     0.000 C 
BRANCH  12  13
HETATM   13  C   UNK N   1      31.066  16.247   6.235  0.00  0.00     0.000 C 
BRANCH  13  14
HETATM   14  C   UNK N   1      30.574  16.990   7.466  0.00  0.00     0.001 C 
BRANCH  14  15
HETATM   15  C   UNK N   1      31.647  17.000   8.545  0.00  0.00     0.017 C 
BRANCH  15  16
HETATM   16  C   UNK N   1      32.438  18.293   8.497  0.00  0.00     0.155 C 
BRANCH  16  17
HETATM   17  S   UNK N   1      34.167  17.992   8.010  0.00  0.00     0.094 S 
HETATM   18  O   UNK N   1      35.101  19.142   8.422  0.00  0.00    -0.601 OA
HETATM   19  O   UNK N   1      34.794  16.808   8.759  0.00  0.00    -0.601 OA
BRANCH  17  20
HETATM   20  O   UNK N   1      34.518  17.687   6.358  0.00  0.00    -0.296 OA
HETATM   21  H   UNK N   1      34.651  16.795   5.999  0.00  0.00     0.232 HD
ENDBRANCH  17  20
ENDBRANCH  16  17
ENDBRANCH  15  16
ENDBRANCH  14  15
ENDBRANCH  13  14
ENDBRANCH  12  13
ENDBRANCH   1  12
TORSDOF 16
ENDMDL
MODEL 8
REMARK VINA RESULT:      -4.1      1.218      1.957
REMARK  16 active torsions:
REMARK  status: ('A' for Active; 'I' for Inactive)
REMARK    1  A    between atoms: C_2  and  C_3 
REMARK    2  A    between atoms: C_3  and  C_4 
REMARK    3  A    between atoms: C_4  and  C_5 
REMARK    4  A    between atoms: C_5  and  C_6 
REMARK    5  A    between atoms: C_6  and  C_7 
REMARK    6  A    between atoms: C_7  and  C_8 
REMARK    7  A    between atoms: C_8  and  C_9 
REMARK    8  A    between atoms: C_9  and  C_10 
REMARK    9  A    between atoms: C_10  and  C_11 
REMARK   10  A    between atoms: C_11  and  C_12 
REMARK   11  A    between atoms: C_12  and  C_13 
REMARK   12  A    between atoms: C_13  and  C_14 
REMARK   13  A    between atoms: C_14  and  C_15 
REMARK   14  A    between atoms: C_15  and  C_16 
REMARK   15  A    between atoms: C_16  and  S_17 
REMARK   16  A    between atoms: S_17  and  O_18 
ROOT
HETATM    1  C   UNK N   1      27.640  24.739  -6.723  0.00  0.00     0.000 C 
ENDROOT
BRANCH   1   2
HETATM    2  C   UNK N   1      26.348  24.058  -6.329  0.00  0.00     0.000 C 
BRANCH   2   3
HETATM    3  C   UNK N   1      25.524  25.017  -5.505  0.00  0.00     0.000 C 
BRANCH   3   4
HETATM    4  C   UNK N   1      25.297  26.285  -6.298  0.00  0.00     0.000 C 
BRANCH   4   5
HETATM    5  C   UNK N   1      24.813  27.359  -5.353  0.00  0.00     0.000 C 
BRANCH   5   6
HETATM    6  C   UNK N   1      25.675  27.395  -4.112  0.00  0.00     0.000 C 
BRANCH   6   7
HETATM    7  C   UNK N   1      26.042  28.840  -3.860  0.00  0.00     0.000 C 
BRANCH   7   8
HETATM    8  C   UNK N   1      27.074  29.319  -4.856  0.00  0.00     0.000 C 
BRANCH   8   9
HETATM    9  C   UNK N   1      28.266  28.391  -4.768  0.00  0.00    -0.000 C 
BRANCH   9  10
HETATM   10  C   UNK N   1      29.029  28.391  -6.073  0.00  0.00    -0.005 C 
HETATM   11  C   UNK N   1      28.041  28.430  -7.220  0.00  0.00     0.005 C 
ENDBRANCH   9  10
ENDBRANCH   8   9
ENDBRANCH   7   8
ENDBRANCH   6   7
ENDBRANCH   5   6
ENDBRANCH   4   5
ENDBRANCH   3   4
ENDBRANCH   2   3
ENDBRANCH   1   2
BRANCH   1  12
HETATM   12  C   UNK N   1      28.808  24.067  -6.036  0.00  0.00     0.000 C 
BRANCH  12  13
HETATM   13  C   UNK N   1      29.070  24.703  -4.681  0.00  0.00     0.000 C 
BRANCH  13  14
HETATM   14  C   UNK N   1      30.494  25.228  -4.612  0.00  0.00     0.001 C 
BRANCH  14  15
HETATM   15  C   UNK N   1      31.175  24.750  -3.338  0.00  0.00     0.017 C 
BRANCH  15  16
HETATM   16  C   UNK N   1      30.519  23.481  -2.828  0.00  0.00     0.155 C 
BRANCH  16  17
HETATM   17  S   UNK N   1      31.481  22.006  -3.297  0.00  0.00     0.094 S 
HETATM   18  O   UNK N   1      30.586  20.848  -3.767  0.00  0.00    -0.601 OA
HETATM   19  O   UNK N   1      32.353  22.240  -4.539  0.00  0.00    -0.601 OA
BRANCH  17  20
HETATM   20  O   UNK N   1      32.552  21.319  -2.145  0.00  0.00    -0.296 OA
HETATM   21  H   UNK N   1      32.426  20.434  -1.766  0.00  0.00     0.232 HD
ENDBRANCH  17  20
ENDBRANCH  16  17
ENDBRANCH  15  16
ENDBRANCH  14  15
ENDBRANCH  13  14
ENDBRANCH  12  13
ENDBRANCH   1  12
TORSDOF 16
ENDMDL
MODEL 9
REMARK VINA RESULT:      -4.1      1.630      3.369
REMARK  16 active torsions:
REMARK  status: ('A' for Active; 'I' for Inactive)
REMARK    1  A    between atoms: C_2  and  C_3 
REMARK    2  A    between atoms: C_3  and  C_4 
REMARK    3  A    between atoms: C_4  and  C_5 
REMARK    4  A    between atoms: C_5  and  C_6 
REMARK    5  A    between atoms: C_6  and  C_7 
REMARK    6  A    between atoms: C_7  and  C_8 
REMARK    7  A    between atoms: C_8  and  C_9 
REMARK    8  A    between atoms: C_9  and  C_10 
REMARK    9  A    between atoms: C_10  and  C_11 
REMARK   10  A    between atoms: C_11  and  C_12 
REMARK   11  A    between atoms: C_12  and  C_13 
REMARK   12  A    between atoms: C_13  and  C_14 
REMARK   13  A    between atoms: C_14  and  C_15 
REMARK   14  A    between atoms: C_15  and  C_16 
REMARK   15  A    between atoms: C_16  and  S_17 
REMARK   16  A    between atoms: S_17  and  O_18 
ROOT
HETATM    1  C   UNK N   1      29.155  27.223  -5.426  0.00  0.00     0.000 C 
ENDROOT
BRANCH   1   2
HETATM    2  C   UNK N   1      28.439  27.563  -4.138  0.00  0.00     0.000 C 
BRANCH   2   3
HETATM    3  C   UNK N   1      27.732  28.886  -4.308  0.00  0.00     0.000 C 
BRANCH   3   4
HETATM    4  C   UNK N   1      26.310  28.635  -4.758  0.00  0.00     0.000 C 
BRANCH   4   5
HETATM    5  C   UNK N   1      25.804  27.391  -4.069  0.00  0.00     0.000 C 
BRANCH   5   6
HETATM    6  C   UNK N   1      25.259  26.411  -5.082  0.00  0.00     0.000 C 
BRANCH   6   7
HETATM    7  C   UNK N   1      25.315  27.083  -6.435  0.00  0.00     0.000 C 
BRANCH   7   8
HETATM    8  C   UNK N   1      26.022  26.209  -7.446  0.00  0.00     0.000 C 
BRANCH   8   9
HETATM    9  C   UNK N   1      25.835  24.768  -7.021  0.00  0.00    -0.000 C 
BRANCH   9  10
HETATM   10  C   UNK N   1      26.571  23.843  -7.963  0.00  0.00    -0.005 C 
HETATM   11  C   UNK N   1      27.631  24.634  -8.700  0.00  0.00     0.005 C 
ENDBRANCH   9  10
ENDBRANCH   8   9
ENDBRANCH   7   8
ENDBRANCH   6   7
ENDBRANCH   5   6
ENDBRANCH   4   5
ENDBRANCH   3   4
ENDBRANCH   2   3
ENDBRANCH   1   2
BRANCH   1  12
HETATM   12  C   UNK N   1      29.232  25.721  -5.591  0.00  0.00     0.000 C 
BRANCH  12  13
HETATM   13  C   UNK N   1      28.757  25.019  -4.331  0.00  0.00     0.000 C 
BRANCH  13  14
HETATM   14  C   UNK N   1      28.357  23.587  -4.644  0.00  0.00     0.001 C 
BRANCH  14  15
HETATM   15  C   UNK N   1      29.552  22.804  -5.167  0.00  0.00     0.017 C 
BRANCH  15  16
HETATM   16  C   UNK N   1      30.006  21.780  -4.144  0.00  0.00     0.155 C 
BRANCH  16  17
HETATM   17  S   UNK N   1      31.039  22.547  -2.855  0.00  0.00     0.094 S 
HETATM   18  O   UNK N   1      32.177  21.625  -2.390  0.00  0.00    -0.601 OA
HETATM   19  O   UNK N   1      31.823  23.761  -3.372  0.00  0.00    -0.601 OA
BRANCH  17  20
HETATM   20  O   UNK N   1      30.286  23.105  -1.417  0.00  0.00    -0.296 OA
HETATM   21  H   UNK N   1      30.598  23.877  -0.919  0.00  0.00     0.232 HD
ENDBRANCH  17  20
ENDBRANCH  16  17
ENDBRANCH  15  16
ENDBRANCH  14  15
ENDBRANCH  13  14
ENDBRANCH  12  13
ENDBRANCH   1  12
TORSDOF 16
ENDMDL
