MODEL 1
REMARK VINA RESULT:      -6.5      0.000      0.000
REMARK  10 active torsions:
REMARK  status: ('A' for Active; 'I' for Inactive)
REMARK    1  A    between atoms: C_3  and  C_2 
REMARK    2  A    between atoms: O_25  and  C_2 
REMARK    3  A    between atoms: S_27  and  C_3 
REMARK    4  A    between atoms: C_7  and  C_4 
REMARK    5  A    between atoms: S_27  and  C_4 
REMARK    6  A    between atoms: C_9  and  O_23 
REMARK    7  A    between atoms: C_10  and  O_24 
REMARK    8  A    between atoms: N_14  and  C_11 
REMARK    9  A    between atoms: C_13  and  N_22 
REMARK   10  A    between atoms: O_25  and  N_15 
ROOT
HETATM    1  C   UNK N   1      34.225  15.259   9.393  0.00  0.00     0.164 C 
HETATM    2  C   UNK N   1      35.117  16.397   8.848  0.00  0.00     0.180 C 
HETATM    3  C   UNK N   1      34.184  16.992   7.819  0.00  0.00     0.198 C 
HETATM    4  C   UNK N   1      32.891  16.912   8.622  0.00  0.00     0.262 C 
HETATM    5  O   UNK N   1      32.873  15.604   9.137  0.00  0.00    -0.355 OA
ENDROOT
BRANCH   4   6
HETATM    6  N   UNK N   1      31.644  17.202   7.903  0.00  0.00    -0.297 N 
HETATM    7  C   UNK N   1      31.475  16.958   6.576  0.00  0.00     0.188 A 
HETATM    8  N   UNK N   1      30.209  17.248   6.168  0.00  0.00    -0.346 N 
HETATM    9  C   UNK N   1      29.588  17.663   7.282  0.00  0.00     0.122 A 
ATOM     10  HN  UNK N   1      29.822  17.167   5.228  1.00  0.00     0.167 HD
HETATM   11  C   UNK N   1      28.269  18.038   7.468  0.00  0.00     0.131 A 
HETATM   12  C   UNK N   1      30.447  17.648   8.325  0.00  0.00     0.142 A 
HETATM   13  N   UNK N   1      27.875  18.384   8.728  0.00  0.00    -0.337 N 
HETATM   14  C   UNK N   1      28.763  18.363   9.777  0.00  0.00     0.183 A 
ATOM     15  HN  UNK N   1      26.907  18.663   8.894  1.00  0.00     0.168 HD
HETATM   16  N   UNK N   1      30.065  17.988   9.578  0.00  0.00    -0.336 N 
ATOM     17  HN  UNK N   1      30.729  17.965  10.353  1.00  0.00     0.168 HD
BRANCH  11  18
HETATM   18  N   UNK N   1      27.351  18.038   6.398  0.00  0.00    -0.383 N 
HETATM   19  H   UNK N   1      27.406  18.728   5.697  0.00  0.00     0.157 HD
HETATM   20  H   UNK N   1      26.654  17.346   6.351  0.00  0.00     0.157 HD
ENDBRANCH  11  18
ENDBRANCH   4   6
BRANCH   3  21
HETATM   21  O   UNK N   1      34.544  18.295   7.464  0.00  0.00    -0.388 OA
HETATM   22  H   UNK N   1      35.380  18.787   7.444  0.00  0.00     0.210 HD
ENDBRANCH   3  21
BRANCH   2  23
HETATM   23  O   UNK N   1      35.363  17.353   9.846  0.00  0.00    -0.390 OA
HETATM   24  H   UNK N   1      35.252  18.143  10.400  0.00  0.00     0.210 HD
ENDBRANCH   2  23
BRANCH   1  25
HETATM   25  C   UNK N   1      34.369  15.053  10.904  0.00  0.00     0.097 C 
BRANCH  25  26
HETATM   26  S   UNK N   1      35.604  13.812  11.409  0.00  0.00    -0.219 SA
HETATM   27  C   UNK N   1      37.228  13.694  10.595  0.00  0.00     0.078 C 
BRANCH  26  28
HETATM   28  C   UNK N   1      35.259  12.830  12.912  0.00  0.00     0.091 C 
BRANCH  28  29
HETATM   29  C   UNK N   1      35.632  13.620  14.155  0.00  0.00     0.209 C 
BRANCH  29  30
HETATM   30  O   UNK N   1      36.375  14.745  13.794  0.00  0.00    -0.287 OA
BRANCH  30  31
HETATM   31  N   UNK N   1      37.190  14.979  14.849  0.00  0.00    -0.311 N 
HETATM   32  H   UNK N   1      37.113  14.665  15.817  0.00  0.00     0.184 HD
HETATM   33  H   UNK N   1      38.006  15.557  14.646  0.00  0.00     0.184 HD
ENDBRANCH  30  31
ENDBRANCH  29  30
ENDBRANCH  28  29
ENDBRANCH  26  28
ENDBRANCH  25  26
ENDBRANCH   1  25
TORSDOF 10
ENDMDL
MODEL 2
REMARK VINA RESULT:      -6.3      1.343      1.781
REMARK  10 active torsions:
REMARK  status: ('A' for Active; 'I' for Inactive)
REMARK    1  A    between atoms: C_3  and  C_2 
REMARK    2  A    between atoms: O_25  and  C_2 
REMARK    3  A    between atoms: S_27  and  C_3 
REMARK    4  A    between atoms: C_7  and  C_4 
REMARK    5  A    between atoms: S_27  and  C_4 
REMARK    6  A    between atoms: C_9  and  O_23 
REMARK    7  A    between atoms: C_10  and  O_24 
REMARK    8  A    between atoms: N_14  and  C_11 
REMARK    9  A    between atoms: C_13  and  N_22 
REMARK   10  A    between atoms: O_25  and  N_15 
ROOT
HETATM    1  C   UNK N   1      34.194  15.292   9.510  0.00  0.00     0.164 C 
HETATM    2  C   UNK N   1      35.113  16.385   8.919  0.00  0.00     0.180 C 
HETATM    3  C   UNK N   1      34.195  16.955   7.863  0.00  0.00     0.198 C 
HETATM    4  C   UNK N   1      32.899  16.939   8.664  0.00  0.00     0.262 C 
HETATM    5  O   UNK N   1      32.851  15.655   9.235  0.00  0.00    -0.355 OA
ENDROOT
BRANCH   4   6
HETATM    6  N   UNK N   1      31.660  17.226   7.929  0.00  0.00    -0.297 N 
HETATM    7  C   UNK N   1      31.522  17.017   6.592  0.00  0.00     0.188 A 
HETATM    8  N   UNK N   1      30.259  17.294   6.168  0.00  0.00    -0.346 N 
HETATM    9  C   UNK N   1      29.608  17.663   7.281  0.00  0.00     0.122 A 
ATOM     10  HN  UNK N   1      29.891  17.233   5.218  1.00  0.00     0.167 HD
HETATM   11  C   UNK N   1      28.278  18.006   7.452  0.00  0.00     0.131 A 
HETATM   12  C   UNK N   1      30.446  17.634   8.340  0.00  0.00     0.142 A 
HETATM   13  N   UNK N   1      27.852  18.307   8.714  0.00  0.00    -0.337 N 
HETATM   14  C   UNK N   1      28.721  18.272   9.779  0.00  0.00     0.183 A 
ATOM     15  HN  UNK N   1      26.876  18.561   8.868  1.00  0.00     0.168 HD
HETATM   16  N   UNK N   1      30.034  17.930   9.595  0.00  0.00    -0.336 N 
ATOM     17  HN  UNK N   1      30.683  17.897  10.382  1.00  0.00     0.168 HD
BRANCH  11  18
HETATM   18  N   UNK N   1      27.381  18.019   6.364  0.00  0.00    -0.383 N 
HETATM   19  H   UNK N   1      26.458  17.695   6.477  0.00  0.00     0.157 HD
HETATM   20  H   UNK N   1      27.679  18.355   5.488  0.00  0.00     0.157 HD
ENDBRANCH  11  18
ENDBRANCH   4   6
BRANCH   3  21
HETATM   21  O   UNK N   1      34.585  18.233   7.452  0.00  0.00    -0.388 OA
HETATM   22  H   UNK N   1      34.721  19.080   7.905  0.00  0.00     0.210 HD
ENDBRANCH   3  21
BRANCH   2  23
HETATM   23  O   UNK N   1      35.378  17.378   9.876  0.00  0.00    -0.390 OA
HETATM   24  H   UNK N   1      35.682  18.216  10.260  0.00  0.00     0.210 HD
ENDBRANCH   2  23
BRANCH   1  25
HETATM   25  C   UNK N   1      34.330  15.149  11.030  0.00  0.00     0.097 C 
BRANCH  25  26
HETATM   26  S   UNK N   1      35.242  13.677  11.597  0.00  0.00    -0.219 SA
HETATM   27  C   UNK N   1      35.560  13.371  13.363  0.00  0.00     0.078 C 
BRANCH  26  28
HETATM   28  C   UNK N   1      35.635  12.390  10.359  0.00  0.00     0.091 C 
BRANCH  28  29
HETATM   29  C   UNK N   1      37.012  12.636   9.765  0.00  0.00     0.209 C 
BRANCH  29  30
HETATM   30  O   UNK N   1      37.580  13.773  10.341  0.00  0.00    -0.287 OA
BRANCH  30  31
HETATM   31  N   UNK N   1      38.807  13.380  10.754  0.00  0.00    -0.311 N 
HETATM   32  H   UNK N   1      39.319  12.520  10.558  0.00  0.00     0.184 HD
HETATM   33  H   UNK N   1      39.296  14.045  11.353  0.00  0.00     0.184 HD
ENDBRANCH  30  31
ENDBRANCH  29  30
ENDBRANCH  28  29
ENDBRANCH  26  28
ENDBRANCH  25  26
ENDBRANCH   1  25
TORSDOF 10
ENDMDL
MODEL 3
REMARK VINA RESULT:      -6.1      3.386      8.050
REMARK  10 active torsions:
REMARK  status: ('A' for Active; 'I' for Inactive)
REMARK    1  A    between atoms: C_3  and  C_2 
REMARK    2  A    between atoms: O_25  and  C_2 
REMARK    3  A    between atoms: S_27  and  C_3 
REMARK    4  A    between atoms: C_7  and  C_4 
REMARK    5  A    between atoms: S_27  and  C_4 
REMARK    6  A    between atoms: C_9  and  O_23 
REMARK    7  A    between atoms: C_10  and  O_24 
REMARK    8  A    between atoms: N_14  and  C_11 
REMARK    9  A    between atoms: C_13  and  N_22 
REMARK   10  A    between atoms: O_25  and  N_15 
ROOT
HETATM    1  C   UNK N   1      32.300  15.864   7.330  0.00  0.00     0.164 C 
HETATM    2  C   UNK N   1      31.499  15.660   8.636  0.00  0.00     0.180 C 
HETATM    3  C   UNK N   1      32.569  15.042   9.506  0.00  0.00     0.198 C 
HETATM    4  C   UNK N   1      33.740  15.917   9.071  0.00  0.00     0.262 C 
HETATM    5  O   UNK N   1      33.677  15.921   7.667  0.00  0.00    -0.355 OA
ENDROOT
BRANCH   4   6
HETATM    6  N   UNK N   1      35.076  15.513   9.529  0.00  0.00    -0.297 N 
HETATM    7  C   UNK N   1      35.711  16.097  10.579  0.00  0.00     0.188 A 
HETATM    8  N   UNK N   1      36.903  15.495  10.844  0.00  0.00    -0.346 N 
HETATM    9  C   UNK N   1      36.983  14.507   9.940  0.00  0.00     0.122 A 
ATOM     10  HN  UNK N   1      37.580  15.740  11.567  1.00  0.00     0.167 HD
HETATM   11  C   UNK N   1      37.960  13.540   9.777  0.00  0.00     0.131 A 
HETATM   12  C   UNK N   1      35.895  14.519   9.142  0.00  0.00     0.142 A 
HETATM   13  N   UNK N   1      37.782  12.612   8.793  0.00  0.00    -0.337 N 
HETATM   14  C   UNK N   1      36.666  12.640   7.989  0.00  0.00     0.183 A 
ATOM     15  HN  UNK N   1      38.485  11.886   8.652  1.00  0.00     0.168 HD
HETATM   16  N   UNK N   1      35.708  13.602   8.164  0.00  0.00    -0.336 N 
ATOM     17  HN  UNK N   1      34.875  13.626   7.574  1.00  0.00     0.168 HD
BRANCH  11  18
HETATM   18  N   UNK N   1      39.093  13.496  10.615  0.00  0.00    -0.383 N 
HETATM   19  H   UNK N   1      39.009  13.192  11.548  0.00  0.00     0.157 HD
HETATM   20  H   UNK N   1      39.971  13.770  10.267  0.00  0.00     0.157 HD
ENDBRANCH  11  18
ENDBRANCH   4   6
BRANCH   3  21
HETATM   21  O   UNK N   1      32.270  15.140  10.868  0.00  0.00    -0.388 OA
HETATM   22  H   UNK N   1      32.027  14.503  11.557  0.00  0.00     0.210 HD
ENDBRANCH   3  21
BRANCH   2  23
HETATM   23  O   UNK N   1      31.126  16.898   9.185  0.00  0.00    -0.390 OA
HETATM   24  H   UNK N   1      30.577  17.665   9.415  0.00  0.00     0.210 HD
ENDBRANCH   2  23
BRANCH   1  25
HETATM   25  C   UNK N   1      31.949  17.167   6.606  0.00  0.00     0.097 C 
BRANCH  25  26
HETATM   26  S   UNK N   1      30.404  17.132   5.639  0.00  0.00    -0.219 SA
HETATM   27  C   UNK N   1      30.407  16.831   3.844  0.00  0.00     0.078 C 
BRANCH  26  28
HETATM   28  C   UNK N   1      28.824  17.182   6.557  0.00  0.00     0.091 C 
BRANCH  28  29
HETATM   29  C   UNK N   1      28.567  18.583   7.086  0.00  0.00     0.209 C 
BRANCH  29  30
HETATM   30  O   UNK N   1      28.889  18.644   8.443  0.00  0.00    -0.287 OA
BRANCH  30  31
HETATM   31  N   UNK N   1      27.724  18.402   9.089  0.00  0.00    -0.311 N 
HETATM   32  H   UNK N   1      27.106  19.043   9.585  0.00  0.00     0.184 HD
HETATM   33  H   UNK N   1      27.418  17.429   9.078  0.00  0.00     0.184 HD
ENDBRANCH  30  31
ENDBRANCH  29  30
ENDBRANCH  28  29
ENDBRANCH  26  28
ENDBRANCH  25  26
ENDBRANCH   1  25
TORSDOF 10
ENDMDL
MODEL 4
REMARK VINA RESULT:      -6.1      3.544      5.413
REMARK  10 active torsions:
REMARK  status: ('A' for Active; 'I' for Inactive)
REMARK    1  A    between atoms: C_3  and  C_2 
REMARK    2  A    between atoms: O_25  and  C_2 
REMARK    3  A    between atoms: S_27  and  C_3 
REMARK    4  A    between atoms: C_7  and  C_4 
REMARK    5  A    between atoms: S_27  and  C_4 
REMARK    6  A    between atoms: C_9  and  O_23 
REMARK    7  A    between atoms: C_10  and  O_24 
REMARK    8  A    between atoms: N_14  and  C_11 
REMARK    9  A    between atoms: C_13  and  N_22 
REMARK   10  A    between atoms: O_25  and  N_15 
ROOT
HETATM    1  C   UNK N   1      35.411  12.803  13.563  0.00  0.00     0.164 C 
HETATM    2  C   UNK N   1      36.441  12.210  12.575  0.00  0.00     0.180 C 
HETATM    3  C   UNK N   1      36.020  12.910  11.305  0.00  0.00     0.198 C 
HETATM    4  C   UNK N   1      35.746  14.289  11.894  0.00  0.00     0.262 C 
HETATM    5  O   UNK N   1      34.959  14.038  13.032  0.00  0.00    -0.355 OA
ENDROOT
BRANCH   4   6
HETATM    6  N   UNK N   1      35.089  15.267  11.016  0.00  0.00    -0.297 N 
HETATM    7  C   UNK N   1      35.486  16.564  10.918  0.00  0.00     0.188 A 
HETATM    8  N   UNK N   1      34.763  17.243   9.986  0.00  0.00    -0.346 N 
HETATM    9  C   UNK N   1      33.915  16.327   9.494  0.00  0.00     0.122 A 
ATOM     10  HN  UNK N   1      34.847  18.224   9.723  1.00  0.00     0.167 HD
HETATM   11  C   UNK N   1      32.979  16.447   8.481  0.00  0.00     0.131 A 
HETATM   12  C   UNK N   1      34.099  15.142  10.115  0.00  0.00     0.142 A 
HETATM   13  N   UNK N   1      32.261  15.338   8.139  0.00  0.00    -0.337 N 
HETATM   14  C   UNK N   1      32.462  14.140   8.783  0.00  0.00     0.183 A 
ATOM     15  HN  UNK N   1      31.566  15.398   7.394  1.00  0.00     0.168 HD
HETATM   16  N   UNK N   1      33.393  14.036   9.782  0.00  0.00    -0.336 N 
ATOM     17  HN  UNK N   1      33.551  13.149  10.261  1.00  0.00     0.168 HD
BRANCH  11  18
HETATM   18  N   UNK N   1      32.787  17.669   7.804  0.00  0.00    -0.383 N 
HETATM   19  H   UNK N   1      32.127  17.736   7.076  0.00  0.00     0.157 HD
HETATM   20  H   UNK N   1      33.315  18.459   8.060  0.00  0.00     0.157 HD
ENDBRANCH  11  18
ENDBRANCH   4   6
BRANCH   3  21
HETATM   21  O   UNK N   1      37.027  12.905  10.334  0.00  0.00    -0.388 OA
HETATM   22  H   UNK N   1      37.035  12.932   9.365  0.00  0.00     0.210 HD
ENDBRANCH   3  21
BRANCH   2  23
HETATM   23  O   UNK N   1      37.741  12.620  12.912  0.00  0.00    -0.390 OA
HETATM   24  H   UNK N   1      38.461  13.095  13.357  0.00  0.00     0.210 HD
ENDBRANCH   2  23
BRANCH   1  25
HETATM   25  C   UNK N   1      36.000  13.085  14.948  0.00  0.00     0.097 C 
BRANCH  25  26
HETATM   26  S   UNK N   1      36.009  11.668  16.095  0.00  0.00    -0.219 SA
HETATM   27  C   UNK N   1      36.904  10.131  15.708  0.00  0.00     0.078 C 
BRANCH  26  28
HETATM   28  C   UNK N   1      35.282  11.912  17.755  0.00  0.00     0.091 C 
BRANCH  28  29
HETATM   29  C   UNK N   1      34.993  13.385  17.992  0.00  0.00     0.209 C 
BRANCH  29  30
HETATM   30  O   UNK N   1      35.574  13.794  19.193  0.00  0.00    -0.287 OA
BRANCH  30  31
HETATM   31  N   UNK N   1      35.095  12.935  20.122  0.00  0.00    -0.311 N 
HETATM   32  H   UNK N   1      34.980  11.923  20.080  0.00  0.00     0.184 HD
HETATM   33  H   UNK N   1      34.805  13.366  21.000  0.00  0.00     0.184 HD
ENDBRANCH  30  31
ENDBRANCH  29  30
ENDBRANCH  28  29
ENDBRANCH  26  28
ENDBRANCH  25  26
ENDBRANCH   1  25
TORSDOF 10
ENDMDL
MODEL 5
REMARK VINA RESULT:      -6.0     10.504     13.984
REMARK  10 active torsions:
REMARK  status: ('A' for Active; 'I' for Inactive)
REMARK    1  A    between atoms: C_3  and  C_2 
REMARK    2  A    between atoms: O_25  and  C_2 
REMARK    3  A    between atoms: S_27  and  C_3 
REMARK    4  A    between atoms: C_7  and  C_4 
REMARK    5  A    between atoms: S_27  and  C_4 
REMARK    6  A    between atoms: C_9  and  O_23 
REMARK    7  A    between atoms: C_10  and  O_24 
REMARK    8  A    between atoms: N_14  and  C_11 
REMARK    9  A    between atoms: C_13  and  N_22 
REMARK   10  A    between atoms: O_25  and  N_15 
ROOT
HETATM    1  C   UNK N   1      21.666  15.410   6.247  0.00  0.00     0.164 C 
HETATM    2  C   UNK N   1      20.978  14.178   5.617  0.00  0.00     0.180 C 
HETATM    3  C   UNK N   1      21.257  13.147   6.684  0.00  0.00     0.198 C 
HETATM    4  C   UNK N   1      21.012  14.023   7.907  0.00  0.00     0.262 C 
HETATM    5  O   UNK N   1      21.734  15.202   7.649  0.00  0.00    -0.355 OA
ENDROOT
BRANCH   4   6
HETATM    6  N   UNK N   1      21.388  13.462   9.212  0.00  0.00    -0.297 N 
HETATM    7  C   UNK N   1      20.479  13.031  10.127  0.00  0.00     0.188 A 
HETATM    8  N   UNK N   1      21.083  12.491  11.220  0.00  0.00    -0.346 N 
HETATM    9  C   UNK N   1      22.394  12.582  10.953  0.00  0.00     0.122 A 
ATOM     10  HN  UNK N   1      20.638  12.105  12.053  1.00  0.00     0.167 HD
HETATM   11  C   UNK N   1      23.477  12.140  11.694  0.00  0.00     0.131 A 
HETATM   12  C   UNK N   1      22.584  13.173   9.754  0.00  0.00     0.142 A 
HETATM   13  N   UNK N   1      24.725  12.321  11.172  0.00  0.00    -0.337 N 
HETATM   14  C   UNK N   1      24.899  12.925   9.949  0.00  0.00     0.183 A 
ATOM     15  HN  UNK N   1      25.541  12.003  11.696  1.00  0.00     0.168 HD
HETATM   16  N   UNK N   1      23.817  13.356   9.227  0.00  0.00    -0.336 N 
ATOM     17  HN  UNK N   1      23.939  13.800   8.316  1.00  0.00     0.168 HD
BRANCH  11  18
HETATM   18  N   UNK N   1      23.300  11.500  12.937  0.00  0.00    -0.383 N 
HETATM   19  H   UNK N   1      23.919  10.789  13.223  0.00  0.00     0.157 HD
HETATM   20  H   UNK N   1      22.553  11.763  13.522  0.00  0.00     0.157 HD
ENDBRANCH  11  18
ENDBRANCH   4   6
BRANCH   3  21
HETATM   21  O   UNK N   1      20.397  12.048   6.601  0.00  0.00    -0.388 OA
HETATM   22  H   UNK N   1      20.128  11.449   5.887  0.00  0.00     0.210 HD
ENDBRANCH   3  21
BRANCH   2  23
HETATM   23  O   UNK N   1      19.591  14.379   5.529  0.00  0.00    -0.390 OA
HETATM   24  H   UNK N   1      18.702  14.450   5.144  0.00  0.00     0.210 HD
ENDBRANCH   2  23
BRANCH   1  25
HETATM   25  C   UNK N   1      20.898  16.715   6.012  0.00  0.00     0.097 C 
BRANCH  25  26
HETATM   26  S   UNK N   1      21.109  17.459   4.362  0.00  0.00    -0.219 SA
HETATM   27  C   UNK N   1      21.157  16.440   2.854  0.00  0.00     0.078 C 
BRANCH  26  28
HETATM   28  C   UNK N   1      21.045  19.281   4.235  0.00  0.00     0.091 C 
BRANCH  28  29
HETATM   29  C   UNK N   1      20.253  19.695   3.006  0.00  0.00     0.209 C 
BRANCH  29  30
HETATM   30  O   UNK N   1      21.017  20.561   2.221  0.00  0.00    -0.287 OA
BRANCH  30  31
HETATM   31  N   UNK N   1      20.632  20.308   0.948  0.00  0.00    -0.311 N 
HETATM   32  H   UNK N   1      19.941  19.647   0.592  0.00  0.00     0.184 HD
HETATM   33  H   UNK N   1      21.106  20.862   0.235  0.00  0.00     0.184 HD
ENDBRANCH  30  31
ENDBRANCH  29  30
ENDBRANCH  28  29
ENDBRANCH  26  28
ENDBRANCH  25  26
ENDBRANCH   1  25
TORSDOF 10
ENDMDL
MODEL 6
REMARK VINA RESULT:      -6.0      3.040      7.770
REMARK  10 active torsions:
REMARK  status: ('A' for Active; 'I' for Inactive)
REMARK    1  A    between atoms: C_3  and  C_2 
REMARK    2  A    between atoms: O_25  and  C_2 
REMARK    3  A    between atoms: S_27  and  C_3 
REMARK    4  A    between atoms: C_7  and  C_4 
REMARK    5  A    between atoms: S_27  and  C_4 
REMARK    6  A    between atoms: C_9  and  O_23 
REMARK    7  A    between atoms: C_10  and  O_24 
REMARK    8  A    between atoms: N_14  and  C_11 
REMARK    9  A    between atoms: C_13  and  N_22 
REMARK   10  A    between atoms: O_25  and  N_15 
ROOT
HETATM    1  C   UNK N   1      32.510  16.656   7.682  0.00  0.00     0.164 C 
HETATM    2  C   UNK N   1      33.275  17.990   7.524  0.00  0.00     0.180 C 
HETATM    3  C   UNK N   1      34.201  17.903   8.714  0.00  0.00     0.198 C 
HETATM    4  C   UNK N   1      34.558  16.425   8.610  0.00  0.00     0.262 C 
HETATM    5  O   UNK N   1      33.324  15.774   8.439  0.00  0.00    -0.355 OA
ENDROOT
BRANCH   4   6
HETATM    6  N   UNK N   1      35.301  15.840   9.734  0.00  0.00    -0.297 N 
HETATM    7  C   UNK N   1      35.623  16.536  10.856  0.00  0.00     0.188 A 
HETATM    8  N   UNK N   1      36.248  15.749  11.775  0.00  0.00    -0.346 N 
HETATM    9  C   UNK N   1      36.289  14.538  11.200  0.00  0.00     0.122 A 
ATOM     10  HN  UNK N   1      36.602  16.020  12.692  1.00  0.00     0.167 HD
HETATM   11  C   UNK N   1      36.767  13.340  11.702  0.00  0.00     0.131 A 
HETATM   12  C   UNK N   1      35.731  14.589   9.971  0.00  0.00     0.142 A 
HETATM   13  N   UNK N   1      36.653  12.228  10.919  0.00  0.00    -0.337 N 
HETATM   14  C   UNK N   1      36.083  12.299   9.670  0.00  0.00     0.183 A 
ATOM     15  HN  UNK N   1      36.995  11.331  11.266  1.00  0.00     0.168 HD
HETATM   16  N   UNK N   1      35.613  13.491   9.187  0.00  0.00    -0.336 N 
ATOM     17  HN  UNK N   1      35.184  13.550   8.263  1.00  0.00     0.168 HD
BRANCH  11  18
HETATM   18  N   UNK N   1      37.331  13.261  12.992  0.00  0.00    -0.383 N 
HETATM   19  H   UNK N   1      38.296  13.406  13.122  0.00  0.00     0.157 HD
HETATM   20  H   UNK N   1      36.757  13.062  13.766  0.00  0.00     0.157 HD
ENDBRANCH  11  18
ENDBRANCH   4   6
BRANCH   3  21
HETATM   21  O   UNK N   1      35.303  18.757   8.595  0.00  0.00    -0.388 OA
HETATM   22  H   UNK N   1      36.237  18.699   8.849  0.00  0.00     0.210 HD
ENDBRANCH   3  21
BRANCH   2  23
HETATM   23  O   UNK N   1      34.042  17.983   6.348  0.00  0.00    -0.390 OA
HETATM   24  H   UNK N   1      34.769  18.170   5.733  0.00  0.00     0.210 HD
ENDBRANCH   2  23
BRANCH   1  25
HETATM   25  C   UNK N   1      32.211  15.972   6.344  0.00  0.00     0.097 C 
BRANCH  25  26
HETATM   26  S   UNK N   1      30.695  16.534   5.502  0.00  0.00    -0.219 SA
HETATM   27  C   UNK N   1      30.700  17.017   3.747  0.00  0.00     0.078 C 
BRANCH  26  28
HETATM   28  C   UNK N   1      29.114  16.386   6.407  0.00  0.00     0.091 C 
BRANCH  28  29
HETATM   29  C   UNK N   1      28.874  17.626   7.253  0.00  0.00     0.209 C 
BRANCH  29  30
HETATM   30  O   UNK N   1      27.957  17.338   8.266  0.00  0.00    -0.287 OA
BRANCH  30  31
HETATM   31  N   UNK N   1      27.833  18.491   8.962  0.00  0.00    -0.311 N 
HETATM   32  H   UNK N   1      27.003  18.924   9.368  0.00  0.00     0.184 HD
HETATM   33  H   UNK N   1      28.701  19.008   9.102  0.00  0.00     0.184 HD
ENDBRANCH  30  31
ENDBRANCH  29  30
ENDBRANCH  28  29
ENDBRANCH  26  28
ENDBRANCH  25  26
ENDBRANCH   1  25
TORSDOF 10
ENDMDL
MODEL 7
REMARK VINA RESULT:      -6.0      1.525      2.555
REMARK  10 active torsions:
REMARK  status: ('A' for Active; 'I' for Inactive)
REMARK    1  A    between atoms: C_3  and  C_2 
REMARK    2  A    between atoms: O_25  and  C_2 
REMARK    3  A    between atoms: S_27  and  C_3 
REMARK    4  A    between atoms: C_7  and  C_4 
REMARK    5  A    between atoms: S_27  and  C_4 
REMARK    6  A    between atoms: C_9  and  O_23 
REMARK    7  A    between atoms: C_10  and  O_24 
REMARK    8  A    between atoms: N_14  and  C_11 
REMARK    9  A    between atoms: C_13  and  N_22 
REMARK   10  A    between atoms: O_25  and  N_15 
ROOT
HETATM    1  C   UNK N   1      34.498  15.130   9.740  0.00  0.00     0.164 C 
HETATM    2  C   UNK N   1      35.215  16.496   9.646  0.00  0.00     0.180 C 
HETATM    3  C   UNK N   1      34.475  17.101   8.476  0.00  0.00     0.198 C 
HETATM    4  C   UNK N   1      33.070  16.633   8.838  0.00  0.00     0.262 C 
HETATM    5  O   UNK N   1      33.219  15.268   9.141  0.00  0.00    -0.355 OA
ENDROOT
BRANCH   4   6
HETATM    6  N   UNK N   1      32.024  16.827   7.826  0.00  0.00    -0.297 N 
HETATM    7  C   UNK N   1      30.696  16.836   8.119  0.00  0.00     0.188 A 
HETATM    8  N   UNK N   1      29.940  17.105   7.020  0.00  0.00    -0.346 N 
HETATM    9  C   UNK N   1      30.835  17.281   6.036  0.00  0.00     0.122 A 
ATOM     10  HN  UNK N   1      28.923  17.160   6.959  1.00  0.00     0.167 HD
HETATM   11  C   UNK N   1      30.633  17.629   4.712  0.00  0.00     0.131 A 
HETATM   12  C   UNK N   1      32.087  17.106   6.512  0.00  0.00     0.142 A 
HETATM   13  N   UNK N   1      31.731  17.787   3.917  0.00  0.00    -0.337 N 
HETATM   14  C   UNK N   1      32.998  17.604   4.419  0.00  0.00     0.183 A 
ATOM     15  HN  UNK N   1      31.610  18.046   2.938  1.00  0.00     0.168 HD
HETATM   16  N   UNK N   1      33.183  17.262   5.732  0.00  0.00    -0.336 N 
ATOM     17  HN  UNK N   1      34.120  17.129   6.112  1.00  0.00     0.168 HD
BRANCH  11  18
HETATM   18  N   UNK N   1      29.335  17.840   4.202  0.00  0.00    -0.383 N 
HETATM   19  H   UNK N   1      28.545  17.598   4.738  0.00  0.00     0.157 HD
HETATM   20  H   UNK N   1      29.218  18.231   3.307  0.00  0.00     0.157 HD
ENDBRANCH  11  18
ENDBRANCH   4   6
BRANCH   3  21
HETATM   21  O   UNK N   1      34.606  18.492   8.425  0.00  0.00    -0.388 OA
HETATM   22  H   UNK N   1      35.019  19.157   8.998  0.00  0.00     0.210 HD
ENDBRANCH   3  21
BRANCH   2  23
HETATM   23  O   UNK N   1      34.964  17.267  10.792  0.00  0.00    -0.390 OA
HETATM   24  H   UNK N   1      35.103  17.905  11.510  0.00  0.00     0.210 HD
ENDBRANCH   2  23
BRANCH   1  25
HETATM   25  C   UNK N   1      34.282  14.663  11.183  0.00  0.00     0.097 C 
BRANCH  25  26
HETATM   26  S   UNK N   1      35.539  13.509  11.825  0.00  0.00    -0.219 SA
HETATM   27  C   UNK N   1      37.220  13.445  11.130  0.00  0.00     0.078 C 
BRANCH  26  28
HETATM   28  C   UNK N   1      35.138  12.571  13.342  0.00  0.00     0.091 C 
BRANCH  28  29
HETATM   29  C   UNK N   1      36.302  12.624  14.316  0.00  0.00     0.209 C 
BRANCH  29  30
HETATM   30  O   UNK N   1      36.089  13.636  15.254  0.00  0.00    -0.287 OA
BRANCH  30  31
HETATM   31  N   UNK N   1      37.164  14.451  15.138  0.00  0.00    -0.311 N 
HETATM   32  H   UNK N   1      37.874  14.497  14.409  0.00  0.00     0.184 HD
HETATM   33  H   UNK N   1      37.281  15.121  15.898  0.00  0.00     0.184 HD
ENDBRANCH  30  31
ENDBRANCH  29  30
ENDBRANCH  28  29
ENDBRANCH  26  28
ENDBRANCH  25  26
ENDBRANCH   1  25
TORSDOF 10
ENDMDL
MODEL 8
REMARK VINA RESULT:      -5.9      3.228      7.168
REMARK  10 active torsions:
REMARK  status: ('A' for Active; 'I' for Inactive)
REMARK    1  A    between atoms: C_3  and  C_2 
REMARK    2  A    between atoms: O_25  and  C_2 
REMARK    3  A    between atoms: S_27  and  C_3 
REMARK    4  A    between atoms: C_7  and  C_4 
REMARK    5  A    between atoms: S_27  and  C_4 
REMARK    6  A    between atoms: C_9  and  O_23 
REMARK    7  A    between atoms: C_10  and  O_24 
REMARK    8  A    between atoms: N_14  and  C_11 
REMARK    9  A    between atoms: C_13  and  N_22 
REMARK   10  A    between atoms: O_25  and  N_15 
ROOT
HETATM    1  C   UNK N   1      31.511  16.884   6.381  0.00  0.00     0.164 C 
HETATM    2  C   UNK N   1      32.641  16.595   5.367  0.00  0.00     0.180 C 
HETATM    3  C   UNK N   1      33.840  16.673   6.282  0.00  0.00     0.198 C 
HETATM    4  C   UNK N   1      33.247  15.951   7.487  0.00  0.00     0.262 C 
HETATM    5  O   UNK N   1      31.989  16.549   7.674  0.00  0.00    -0.355 OA
ENDROOT
BRANCH   4   6
HETATM    6  N   UNK N   1      34.027  15.984   8.731  0.00  0.00    -0.297 N 
HETATM    7  C   UNK N   1      34.387  17.137   9.354  0.00  0.00     0.188 A 
HETATM    8  N   UNK N   1      35.041  16.895  10.522  0.00  0.00    -0.346 N 
HETATM    9  C   UNK N   1      35.063  15.557  10.619  0.00  0.00     0.122 A 
ATOM     10  HN  UNK N   1      35.427  17.577  11.176  1.00  0.00     0.167 HD
HETATM   11  C   UNK N   1      35.556  14.755  11.633  0.00  0.00     0.131 A 
HETATM   12  C   UNK N   1      34.464  15.005   9.542  0.00  0.00     0.142 A 
HETATM   13  N   UNK N   1      35.415  13.403  11.505  0.00  0.00    -0.337 N 
HETATM   14  C   UNK N   1      34.804  12.859  10.401  0.00  0.00     0.183 A 
ATOM     15  HN  UNK N   1      35.768  12.789  12.239  1.00  0.00     0.168 HD
HETATM   16  N   UNK N   1      34.318  13.666   9.406  0.00  0.00    -0.336 N 
ATOM     17  HN  UNK N   1      33.859  13.268   8.586  1.00  0.00     0.168 HD
BRANCH  11  18
HETATM   18  N   UNK N   1      36.163  15.313  12.777  0.00  0.00    -0.383 N 
HETATM   19  H   UNK N   1      37.145  15.344  12.854  0.00  0.00     0.157 HD
HETATM   20  H   UNK N   1      35.604  15.674  13.502  0.00  0.00     0.157 HD
ENDBRANCH  11  18
ENDBRANCH   4   6
BRANCH   3  21
HETATM   21  O   UNK N   1      34.963  16.038   5.744  0.00  0.00    -0.388 OA
HETATM   22  H   UNK N   1      35.211  15.113   5.588  0.00  0.00     0.210 HD
ENDBRANCH   3  21
BRANCH   2  23
HETATM   23  O   UNK N   1      32.534  15.287   4.868  0.00  0.00    -0.390 OA
HETATM   24  H   UNK N   1      32.502  14.317   4.852  0.00  0.00     0.210 HD
ENDBRANCH   2  23
BRANCH   1  25
HETATM   25  C   UNK N   1      30.248  16.053   6.128  0.00  0.00     0.097 C 
BRANCH  25  26
HETATM   26  S   UNK N   1      28.689  16.814   6.686  0.00  0.00    -0.219 SA
HETATM   27  C   UNK N   1      27.081  16.005   6.413  0.00  0.00     0.078 C 
BRANCH  26  28
HETATM   28  C   UNK N   1      28.797  18.309   7.733  0.00  0.00     0.091 C 
BRANCH  28  29
HETATM   29  C   UNK N   1      28.361  17.989   9.153  0.00  0.00     0.209 C 
BRANCH  29  30
HETATM   30  O   UNK N   1      29.239  18.580  10.062  0.00  0.00    -0.287 OA
BRANCH  30  31
HETATM   31  N   UNK N   1      30.475  18.296   9.589  0.00  0.00    -0.311 N 
HETATM   32  H   UNK N   1      31.361  18.776   9.742  0.00  0.00     0.184 HD
HETATM   33  H   UNK N   1      30.528  17.475   8.985  0.00  0.00     0.184 HD
ENDBRANCH  30  31
ENDBRANCH  29  30
ENDBRANCH  28  29
ENDBRANCH  26  28
ENDBRANCH  25  26
ENDBRANCH   1  25
TORSDOF 10
ENDMDL
MODEL 9
REMARK VINA RESULT:      -5.9      2.388      3.436
REMARK  10 active torsions:
REMARK  status: ('A' for Active; 'I' for Inactive)
REMARK    1  A    between atoms: C_3  and  C_2 
REMARK    2  A    between atoms: O_25  and  C_2 
REMARK    3  A    between atoms: S_27  and  C_3 
REMARK    4  A    between atoms: C_7  and  C_4 
REMARK    5  A    between atoms: S_27  and  C_4 
REMARK    6  A    between atoms: C_9  and  O_23 
REMARK    7  A    between atoms: C_10  and  O_24 
REMARK    8  A    between atoms: N_14  and  C_11 
REMARK    9  A    between atoms: C_13  and  N_22 
REMARK   10  A    between atoms: O_25  and  N_15 
ROOT
HETATM    1  C   UNK N   1      34.542  15.177   9.679  0.00  0.00     0.164 C 
HETATM    2  C   UNK N   1      35.214  16.567   9.608  0.00  0.00     0.180 C 
HETATM    3  C   UNK N   1      34.446  17.170   8.455  0.00  0.00     0.198 C 
HETATM    4  C   UNK N   1      33.060  16.648   8.816  0.00  0.00     0.262 C 
HETATM    5  O   UNK N   1      33.256  15.283   9.091  0.00  0.00    -0.355 OA
ENDROOT
BRANCH   4   6
HETATM    6  N   UNK N   1      32.001  16.827   7.813  0.00  0.00    -0.297 N 
HETATM    7  C   UNK N   1      30.677  16.830   8.122  0.00  0.00     0.188 A 
HETATM    8  N   UNK N   1      29.907  17.085   7.029  0.00  0.00    -0.346 N 
HETATM    9  C   UNK N   1      30.790  17.259   6.034  0.00  0.00     0.122 A 
ATOM     10  HN  UNK N   1      28.889  17.134   6.979  1.00  0.00     0.167 HD
HETATM   11  C   UNK N   1      30.570  17.593   4.709  0.00  0.00     0.131 A 
HETATM   12  C   UNK N   1      32.048  17.095   6.497  0.00  0.00     0.142 A 
HETATM   13  N   UNK N   1      31.658  17.751   3.900  0.00  0.00    -0.337 N 
HETATM   14  C   UNK N   1      32.932  17.580   4.389  0.00  0.00     0.183 A 
ATOM     15  HN  UNK N   1      31.525  18.000   2.920  1.00  0.00     0.168 HD
HETATM   16  N   UNK N   1      33.134  17.251   5.703  0.00  0.00    -0.336 N 
ATOM     17  HN  UNK N   1      34.076  17.127   6.074  1.00  0.00     0.168 HD
BRANCH  11  18
HETATM   18  N   UNK N   1      29.266  17.792   4.212  0.00  0.00    -0.383 N 
HETATM   19  H   UNK N   1      28.640  18.390   4.682  0.00  0.00     0.157 HD
HETATM   20  H   UNK N   1      28.979  17.331   3.391  0.00  0.00     0.157 HD
ENDBRANCH  11  18
ENDBRANCH   4   6
BRANCH   3  21
HETATM   21  O   UNK N   1      34.531  18.565   8.430  0.00  0.00    -0.388 OA
HETATM   22  H   UNK N   1      33.910  19.287   8.614  0.00  0.00     0.210 HD
ENDBRANCH   3  21
BRANCH   2  23
HETATM   23  O   UNK N   1      34.944  17.307  10.770  0.00  0.00    -0.390 OA
HETATM   24  H   UNK N   1      35.002  17.614  11.689  0.00  0.00     0.210 HD
ENDBRANCH   2  23
BRANCH   1  25
HETATM   25  C   UNK N   1      34.352  14.675  11.114  0.00  0.00     0.097 C 
BRANCH  25  26
HETATM   26  S   UNK N   1      35.531  13.395  11.656  0.00  0.00    -0.219 SA
HETATM   27  C   UNK N   1      36.394  13.505  13.255  0.00  0.00     0.078 C 
BRANCH  26  28
HETATM   28  C   UNK N   1      35.658  11.874  10.650  0.00  0.00     0.091 C 
BRANCH  28  29
HETATM   29  C   UNK N   1      34.273  11.325  10.349  0.00  0.00     0.209 C 
BRANCH  29  30
HETATM   30  O   UNK N   1      33.865  11.740   9.080  0.00  0.00    -0.287 OA
BRANCH  30  31
HETATM   31  N   UNK N   1      32.581  12.137   9.239  0.00  0.00    -0.311 N 
HETATM   32  H   UNK N   1      31.850  12.280   8.544  0.00  0.00     0.184 HD
HETATM   33  H   UNK N   1      32.303  12.323  10.203  0.00  0.00     0.184 HD
ENDBRANCH  30  31
ENDBRANCH  29  30
ENDBRANCH  28  29
ENDBRANCH  26  28
ENDBRANCH  25  26
ENDBRANCH   1  25
TORSDOF 10
ENDMDL
