MODEL 1
REMARK VINA RESULT:      -5.5      0.000      0.000
REMARK  10 active torsions:
REMARK  status: ('A' for Active; 'I' for Inactive)
REMARK    1  A    between atoms: C_2  and  C_1 
REMARK    2  A    between atoms: O_7  and  C_1 
REMARK    3  A    between atoms: C_3  and  O_8 
REMARK    4  A    between atoms: C_4  and  O_17 
REMARK    5  A    between atoms: C_5  and  O_18 
REMARK    6  A    between atoms: C_6  and  O_9 
REMARK    7  A    between atoms: S_19  and  O_10 
REMARK    8  A    between atoms: S_20  and  O_13 
REMARK    9  A    between atoms: S_19  and  O_17 
REMARK   10  A    between atoms: S_20  and  O_18 
ROOT
HETATM    1  C   UNK N   1      33.793  16.694   8.998  0.00  0.00     0.179 C 
HETATM    2  C   UNK N   1      32.576  15.748   8.907  0.00  0.00     0.182 C 
HETATM    3  C   UNK N   1      31.505  16.394   8.013  0.00  0.00     0.210 C 
HETATM    4  C   UNK N   1      32.118  16.786   6.654  0.00  0.00     0.232 C 
HETATM    5  C   UNK N   1      33.413  17.608   6.890  0.00  0.00     0.290 C 
HETATM    6  O   UNK N   1      34.326  16.889   7.701  0.00  0.00    -0.349 OA
ENDROOT
BRANCH   3   7
HETATM    7  O   UNK N   1      31.003  17.555   8.654  0.00  0.00    -0.253 OA
BRANCH   7   8
HETATM    8  S   UNK N   1      29.340  17.307   9.067  0.00  0.00     0.240 S 
HETATM    9  O   UNK N   1      28.459  18.547   8.866  0.00  0.00    -0.579 OA
HETATM   10  O   UNK N   1      29.106  16.767  10.485  0.00  0.00    -0.579 OA
BRANCH   8  11
HETATM   11  O   UNK N   1      30.028  18.482  10.112  0.00  0.00    -0.274 OA
HETATM   12  H   UNK N   1      30.743  18.818  10.675  0.00  0.00     0.234 HD
ENDBRANCH   8  11
ENDBRANCH   7   8
ENDBRANCH   3   7
BRANCH   2  13
HETATM   13  O   UNK N   1      32.039  15.492  10.173  0.00  0.00    -0.390 OA
HETATM   14  H   UNK N   1      31.405  16.104  10.578  0.00  0.00     0.210 HD
ENDBRANCH   2  13
BRANCH   4  15
HETATM   15  O   UNK N   1      31.154  17.544   5.945  0.00  0.00    -0.251 OA
BRANCH  15  16
HETATM   16  S   UNK N   1      30.370  16.562   4.757  0.00  0.00     0.241 S 
HETATM   17  O   UNK N   1      29.349  17.627   5.184  0.00  0.00    -0.579 OA
HETATM   18  O   UNK N   1      31.488  17.338   4.041  0.00  0.00    -0.579 OA
BRANCH  16  19
HETATM   19  O   UNK N   1      29.727  17.240   3.318  0.00  0.00    -0.274 OA
HETATM   20  H   UNK N   1      29.417  16.685   2.585  0.00  0.00     0.234 HD
ENDBRANCH  16  19
ENDBRANCH  15  16
ENDBRANCH   4  15
BRANCH   1  21
HETATM   21  C   UNK N   1      34.901  16.107   9.868  0.00  0.00     0.198 C 
BRANCH  21  22
HETATM   22  O   UNK N   1      34.947  16.737  11.112  0.00  0.00    -0.398 OA
HETATM   23  H   UNK N   1      34.179  16.871  11.689  0.00  0.00     0.209 HD
ENDBRANCH  21  22
ENDBRANCH   1  21
BRANCH   5  24
HETATM   24  O   UNK N   1      34.041  17.865   5.671  0.00  0.00    -0.368 OA
HETATM   25  H   UNK N   1      33.519  18.036   4.871  0.00  0.00     0.212 HD
ENDBRANCH   5  24
TORSDOF 10
ENDMDL
MODEL 2
REMARK VINA RESULT:      -5.4     11.662     12.807
REMARK  10 active torsions:
REMARK  status: ('A' for Active; 'I' for Inactive)
REMARK    1  A    between atoms: C_2  and  C_1 
REMARK    2  A    between atoms: O_7  and  C_1 
REMARK    3  A    between atoms: C_3  and  O_8 
REMARK    4  A    between atoms: C_4  and  O_17 
REMARK    5  A    between atoms: C_5  and  O_18 
REMARK    6  A    between atoms: C_6  and  O_9 
REMARK    7  A    between atoms: S_19  and  O_10 
REMARK    8  A    between atoms: S_20  and  O_13 
REMARK    9  A    between atoms: S_19  and  O_17 
REMARK   10  A    between atoms: S_20  and  O_18 
ROOT
HETATM    1  C   UNK N   1      20.369  19.488   2.616  0.00  0.00     0.179 C 
HETATM    2  C   UNK N   1      21.181  18.635   3.614  0.00  0.00     0.182 C 
HETATM    3  C   UNK N   1      20.738  17.167   3.494  0.00  0.00     0.210 C 
HETATM    4  C   UNK N   1      20.834  16.705   2.027  0.00  0.00     0.232 C 
HETATM    5  C   UNK N   1      20.104  17.727   1.115  0.00  0.00     0.290 C 
HETATM    6  O   UNK N   1      20.626  19.031   1.301  0.00  0.00    -0.349 OA
ENDROOT
BRANCH   3   7
HETATM    7  O   UNK N   1      19.396  17.048   3.937  0.00  0.00    -0.253 OA
BRANCH   7   8
HETATM    8  S   UNK N   1      19.359  16.143   5.412  0.00  0.00     0.240 S 
HETATM    9  O   UNK N   1      20.156  14.832   5.356  0.00  0.00    -0.579 OA
HETATM   10  O   UNK N   1      17.949  15.834   5.939  0.00  0.00    -0.579 OA
BRANCH   8  11
HETATM   11  O   UNK N   1      18.600  15.245   4.161  0.00  0.00    -0.274 OA
HETATM   12  H   UNK N   1      17.865  14.724   3.801  0.00  0.00     0.234 HD
ENDBRANCH   8  11
ENDBRANCH   7   8
ENDBRANCH   3   7
BRANCH   2  13
HETATM   13  O   UNK N   1      20.992  19.076   4.928  0.00  0.00    -0.390 OA
HETATM   14  H   UNK N   1      21.603  18.816   5.634  0.00  0.00     0.210 HD
ENDBRANCH   2  13
BRANCH   4  15
HETATM   15  O   UNK N   1      20.239  15.423   1.936  0.00  0.00    -0.251 OA
BRANCH  15  16
HETATM   16  S   UNK N   1      21.443  14.189   2.070  0.00  0.00     0.241 S 
HETATM   17  O   UNK N   1      20.083  13.480   2.150  0.00  0.00    -0.579 OA
HETATM   18  O   UNK N   1      21.521  14.749   0.639  0.00  0.00    -0.579 OA
BRANCH  16  19
HETATM   19  O   UNK N   1      21.502  12.872   0.970  0.00  0.00    -0.274 OA
HETATM   20  H   UNK N   1      22.061  12.893   0.177  0.00  0.00     0.234 HD
ENDBRANCH  16  19
ENDBRANCH  15  16
ENDBRANCH   4  15
BRANCH   1  21
HETATM   21  C   UNK N   1      20.767  20.960   2.677  0.00  0.00     0.198 C 
BRANCH  21  22
HETATM   22  O   UNK N   1      22.142  21.097   2.876  0.00  0.00    -0.398 OA
HETATM   23  H   UNK N   1      22.591  21.940   3.046  0.00  0.00     0.209 HD
ENDBRANCH  21  22
ENDBRANCH   1  21
BRANCH   5  24
HETATM   24  O   UNK N   1      20.286  17.383  -0.225  0.00  0.00    -0.368 OA
HETATM   25  H   UNK N   1      19.733  16.704  -0.642  0.00  0.00     0.212 HD
ENDBRANCH   5  24
TORSDOF 10
ENDMDL
MODEL 3
REMARK VINA RESULT:      -5.4     10.824     12.843
REMARK  10 active torsions:
REMARK  status: ('A' for Active; 'I' for Inactive)
REMARK    1  A    between atoms: C_2  and  C_1 
REMARK    2  A    between atoms: O_7  and  C_1 
REMARK    3  A    between atoms: C_3  and  O_8 
REMARK    4  A    between atoms: C_4  and  O_17 
REMARK    5  A    between atoms: C_5  and  O_18 
REMARK    6  A    between atoms: C_6  and  O_9 
REMARK    7  A    between atoms: S_19  and  O_10 
REMARK    8  A    between atoms: S_20  and  O_13 
REMARK    9  A    between atoms: S_19  and  O_17 
REMARK   10  A    between atoms: S_20  and  O_18 
ROOT
HETATM    1  C   UNK N   1      20.871  19.230   3.122  0.00  0.00     0.179 C 
HETATM    2  C   UNK N   1      19.649  18.304   2.928  0.00  0.00     0.182 C 
HETATM    3  C   UNK N   1      19.939  16.948   3.592  0.00  0.00     0.210 C 
HETATM    4  C   UNK N   1      20.360  17.157   5.060  0.00  0.00     0.232 C 
HETATM    5  C   UNK N   1      21.491  18.217   5.126  0.00  0.00     0.290 C 
HETATM    6  O   UNK N   1      21.086  19.427   4.507  0.00  0.00    -0.349 OA
ENDROOT
BRANCH   3   7
HETATM    7  O   UNK N   1      20.988  16.301   2.890  0.00  0.00    -0.253 OA
BRANCH   7   8
HETATM    8  S   UNK N   1      20.384  14.845   2.174  0.00  0.00     0.240 S 
HETATM    9  O   UNK N   1      21.481  13.918   1.633  0.00  0.00    -0.579 OA
HETATM   10  O   UNK N   1      19.339  15.061   1.068  0.00  0.00    -0.579 OA
BRANCH   8  11
HETATM   11  O   UNK N   1      21.181  15.790   0.983  0.00  0.00    -0.274 OA
HETATM   12  H   UNK N   1      21.891  16.384   0.690  0.00  0.00     0.234 HD
ENDBRANCH   8  11
ENDBRANCH   7   8
ENDBRANCH   3   7
BRANCH   2  13
HETATM   13  O   UNK N   1      19.370  18.113   1.571  0.00  0.00    -0.390 OA
HETATM   14  H   UNK N   1      19.995  18.403   0.888  0.00  0.00     0.210 HD
ENDBRANCH   2  13
BRANCH   4  15
HETATM   15  O   UNK N   1      20.799  15.910   5.568  0.00  0.00    -0.251 OA
BRANCH  15  16
HETATM   16  S   UNK N   1      19.956  15.524   7.028  0.00  0.00     0.241 S 
HETATM   17  O   UNK N   1      19.683  14.371   6.050  0.00  0.00    -0.579 OA
HETATM   18  O   UNK N   1      21.460  15.444   7.335  0.00  0.00    -0.579 OA
BRANCH  16  19
HETATM   19  O   UNK N   1      20.262  14.066   7.879  0.00  0.00    -0.274 OA
HETATM   20  H   UNK N   1      21.092  13.576   7.773  0.00  0.00     0.234 HD
ENDBRANCH  16  19
ENDBRANCH  15  16
ENDBRANCH   4  15
BRANCH   1  21
HETATM   21  C   UNK N   1      20.645  20.601   2.492  0.00  0.00     0.198 C 
BRANCH  21  22
HETATM   22  O   UNK N   1      21.713  21.457   2.763  0.00  0.00    -0.398 OA
HETATM   23  H   UNK N   1      21.991  22.188   2.190  0.00  0.00     0.209 HD
ENDBRANCH  21  22
ENDBRANCH   1  21
BRANCH   5  24
HETATM   24  O   UNK N   1      21.798  18.503   6.456  0.00  0.00    -0.368 OA
HETATM   25  H   UNK N   1      22.718  18.512   6.762  0.00  0.00     0.212 HD
ENDBRANCH   5  24
TORSDOF 10
ENDMDL
MODEL 4
REMARK VINA RESULT:      -5.3      9.021     11.172
REMARK  10 active torsions:
REMARK  status: ('A' for Active; 'I' for Inactive)
REMARK    1  A    between atoms: C_2  and  C_1 
REMARK    2  A    between atoms: O_7  and  C_1 
REMARK    3  A    between atoms: C_3  and  O_8 
REMARK    4  A    between atoms: C_4  and  O_17 
REMARK    5  A    between atoms: C_5  and  O_18 
REMARK    6  A    between atoms: C_6  and  O_9 
REMARK    7  A    between atoms: S_19  and  O_10 
REMARK    8  A    between atoms: S_20  and  O_13 
REMARK    9  A    between atoms: S_19  and  O_17 
REMARK   10  A    between atoms: S_20  and  O_18 
ROOT
HETATM    1  C   UNK N   1      23.324  12.136  10.180  0.00  0.00     0.179 C 
HETATM    2  C   UNK N   1      23.752  13.435   9.462  0.00  0.00     0.182 C 
HETATM    3  C   UNK N   1      22.613  13.893   8.536  0.00  0.00     0.210 C 
HETATM    4  C   UNK N   1      21.297  14.002   9.330  0.00  0.00     0.232 C 
HETATM    5  C   UNK N   1      21.062  12.687  10.121  0.00  0.00     0.290 C 
HETATM    6  O   UNK N   1      22.169  12.396  10.957  0.00  0.00    -0.349 OA
ENDROOT
BRANCH   3   7
HETATM    7  O   UNK N   1      22.454  12.946   7.491  0.00  0.00    -0.253 OA
BRANCH   7   8
HETATM    8  S   UNK N   1      22.951  13.659   5.994  0.00  0.00     0.240 S 
HETATM    9  O   UNK N   1      22.335  15.040   5.729  0.00  0.00    -0.579 OA
HETATM   10  O   UNK N   1      22.721  12.777   4.757  0.00  0.00    -0.579 OA
BRANCH   8  11
HETATM   11  O   UNK N   1      21.261  13.364   5.963  0.00  0.00    -0.274 OA
HETATM   12  H   UNK N   1      20.346  13.622   5.767  0.00  0.00     0.234 HD
ENDBRANCH   8  11
ENDBRANCH   7   8
ENDBRANCH   3   7
BRANCH   2  13
HETATM   13  O   UNK N   1      24.916  13.238   8.713  0.00  0.00    -0.390 OA
HETATM   14  H   UNK N   1      25.286  13.952   8.171  0.00  0.00     0.210 HD
ENDBRANCH   2  13
BRANCH   4  15
HETATM   15  O   UNK N   1      20.250  14.235   8.405  0.00  0.00    -0.251 OA
BRANCH  15  16
HETATM   16  S   UNK N   1      19.841  15.915   8.371  0.00  0.00     0.241 S 
HETATM   17  O   UNK N   1      19.372  15.326   7.033  0.00  0.00    -0.579 OA
HETATM   18  O   UNK N   1      18.953  15.252   9.437  0.00  0.00    -0.579 OA
BRANCH  16  19
HETATM   19  O   UNK N   1      18.224  16.438   8.136  0.00  0.00    -0.274 OA
HETATM   20  H   UNK N   1      17.552  15.862   7.739  0.00  0.00     0.234 HD
ENDBRANCH  16  19
ENDBRANCH  15  16
ENDBRANCH   4  15
BRANCH   1  21
HETATM   21  C   UNK N   1      24.410  11.631  11.126  0.00  0.00     0.198 C 
BRANCH  21  22
HETATM   22  O   UNK N   1      25.187  12.687  11.604  0.00  0.00    -0.398 OA
HETATM   23  H   UNK N   1      25.030  13.622  11.399  0.00  0.00     0.209 HD
ENDBRANCH  21  22
ENDBRANCH   1  21
BRANCH   5  24
HETATM   24  O   UNK N   1      19.937  12.818  10.937  0.00  0.00    -0.368 OA
HETATM   25  H   UNK N   1      19.565  12.048  11.394  0.00  0.00     0.212 HD
ENDBRANCH   5  24
TORSDOF 10
ENDMDL
MODEL 5
REMARK VINA RESULT:      -5.3     12.201     14.839
REMARK  10 active torsions:
REMARK  status: ('A' for Active; 'I' for Inactive)
REMARK    1  A    between atoms: C_2  and  C_1 
REMARK    2  A    between atoms: O_7  and  C_1 
REMARK    3  A    between atoms: C_3  and  O_8 
REMARK    4  A    between atoms: C_4  and  O_17 
REMARK    5  A    between atoms: C_5  and  O_18 
REMARK    6  A    between atoms: C_6  and  O_9 
REMARK    7  A    between atoms: S_19  and  O_10 
REMARK    8  A    between atoms: S_20  and  O_13 
REMARK    9  A    between atoms: S_19  and  O_17 
REMARK   10  A    between atoms: S_20  and  O_18 
ROOT
HETATM    1  C   UNK N   1      41.995  21.156   2.905  0.00  0.00     0.179 C 
HETATM    2  C   UNK N   1      42.622  21.468   1.529  0.00  0.00     0.182 C 
HETATM    3  C   UNK N   1      43.166  22.906   1.541  0.00  0.00     0.210 C 
HETATM    4  C   UNK N   1      44.116  23.101   2.739  0.00  0.00     0.232 C 
HETATM    5  C   UNK N   1      43.417  22.613   4.036  0.00  0.00     0.290 C 
HETATM    6  O   UNK N   1      42.992  21.267   3.904  0.00  0.00    -0.349 OA
ENDROOT
BRANCH   3   7
HETATM    7  O   UNK N   1      42.081  23.813   1.649  0.00  0.00    -0.253 OA
BRANCH   7   8
HETATM    8  S   UNK N   1      41.951  24.726   0.184  0.00  0.00     0.240 S 
HETATM    9  O   UNK N   1      40.898  25.841   0.239  0.00  0.00    -0.579 OA
HETATM   10  O   UNK N   1      41.704  23.883  -1.076  0.00  0.00    -0.579 OA
BRANCH   8  11
HETATM   11  O   UNK N   1      40.479  23.896   0.483  0.00  0.00    -0.274 OA
HETATM   12  H   UNK N   1      39.810  23.517   1.075  0.00  0.00     0.234 HD
ENDBRANCH   8  11
ENDBRANCH   7   8
ENDBRANCH   3   7
BRANCH   2  13
HETATM   13  O   UNK N   1      41.683  21.330   0.502  0.00  0.00    -0.390 OA
HETATM   14  H   UNK N   1      41.669  20.538  -0.058  0.00  0.00     0.210 HD
ENDBRANCH   2  13
BRANCH   4  15
HETATM   15  O   UNK N   1      44.436  24.479   2.819  0.00  0.00    -0.251 OA
BRANCH  15  16
HETATM   16  S   UNK N   1      45.782  24.844   1.797  0.00  0.00     0.241 S 
HETATM   17  O   UNK N   1      45.224  26.191   2.280  0.00  0.00    -0.579 OA
HETATM   18  O   UNK N   1      46.339  24.164   3.059  0.00  0.00    -0.579 OA
BRANCH  16  19
HETATM   19  O   UNK N   1      47.116  25.761   2.368  0.00  0.00    -0.274 OA
HETATM   20  H   UNK N   1      47.277  25.894   3.316  0.00  0.00     0.234 HD
ENDBRANCH  16  19
ENDBRANCH  15  16
ENDBRANCH   4  15
BRANCH   1  21
HETATM   21  C   UNK N   1      41.441  19.735   2.964  0.00  0.00     0.198 C 
BRANCH  21  22
HETATM   22  O   UNK N   1      40.590  19.575   4.059  0.00  0.00    -0.398 OA
HETATM   23  H   UNK N   1      40.731  18.937   4.775  0.00  0.00     0.209 HD
ENDBRANCH  21  22
ENDBRANCH   1  21
BRANCH   5  24
HETATM   24  O   UNK N   1      44.309  22.673   5.108  0.00  0.00    -0.368 OA
HETATM   25  H   UNK N   1      44.030  22.412   6.000  0.00  0.00     0.212 HD
ENDBRANCH   5  24
TORSDOF 10
ENDMDL
MODEL 6
REMARK VINA RESULT:      -5.2      1.363      4.433
REMARK  10 active torsions:
REMARK  status: ('A' for Active; 'I' for Inactive)
REMARK    1  A    between atoms: C_2  and  C_1 
REMARK    2  A    between atoms: O_7  and  C_1 
REMARK    3  A    between atoms: C_3  and  O_8 
REMARK    4  A    between atoms: C_4  and  O_17 
REMARK    5  A    between atoms: C_5  and  O_18 
REMARK    6  A    between atoms: C_6  and  O_9 
REMARK    7  A    between atoms: S_19  and  O_10 
REMARK    8  A    between atoms: S_20  and  O_13 
REMARK    9  A    between atoms: S_19  and  O_17 
REMARK   10  A    between atoms: S_20  and  O_18 
ROOT
HETATM    1  C   UNK N   1      33.917  15.511   8.092  0.00  0.00     0.179 C 
HETATM    2  C   UNK N   1      33.715  16.920   7.493  0.00  0.00     0.182 C 
HETATM    3  C   UNK N   1      32.211  17.171   7.299  0.00  0.00     0.210 C 
HETATM    4  C   UNK N   1      31.459  16.923   8.622  0.00  0.00     0.232 C 
HETATM    5  C   UNK N   1      31.863  15.537   9.192  0.00  0.00     0.290 C 
HETATM    6  O   UNK N   1      33.269  15.447   9.350  0.00  0.00    -0.349 OA
ENDROOT
BRANCH   3   7
HETATM    7  O   UNK N   1      31.716  16.289   6.305  0.00  0.00    -0.253 OA
BRANCH   7   8
HETATM    8  S   UNK N   1      31.221  17.206   4.922  0.00  0.00     0.240 S 
HETATM    9  O   UNK N   1      30.371  16.411   3.922  0.00  0.00    -0.579 OA
HETATM   10  O   UNK N   1      32.368  17.882   4.157  0.00  0.00    -0.579 OA
BRANCH   8  11
HETATM   11  O   UNK N   1      32.247  15.922   4.429  0.00  0.00    -0.274 OA
HETATM   12  H   UNK N   1      33.116  15.495   4.356  0.00  0.00     0.234 HD
ENDBRANCH   8  11
ENDBRANCH   7   8
ENDBRANCH   3   7
BRANCH   2  13
HETATM   13  O   UNK N   1      34.374  17.045   6.265  0.00  0.00    -0.390 OA
HETATM   14  H   UNK N   1      35.334  17.179   6.226  0.00  0.00     0.210 HD
ENDBRANCH   2  13
BRANCH   4  15
HETATM   15  O   UNK N   1      30.070  16.977   8.348  0.00  0.00    -0.251 OA
BRANCH  15  16
HETATM   16  S   UNK N   1      29.349  18.321   9.164  0.00  0.00     0.241 S 
HETATM   17  O   UNK N   1      28.736  18.286   7.755  0.00  0.00    -0.579 OA
HETATM   18  O   UNK N   1      28.843  17.043   9.855  0.00  0.00    -0.579 OA
BRANCH  16  19
HETATM   19  O   UNK N   1      27.648  18.442   9.357  0.00  0.00    -0.274 OA
HETATM   20  H   UNK N   1      27.047  17.747   9.045  0.00  0.00     0.234 HD
ENDBRANCH  16  19
ENDBRANCH  15  16
ENDBRANCH   4  15
BRANCH   1  21
HETATM   21  C   UNK N   1      35.393  15.200   8.319  0.00  0.00     0.198 C 
BRANCH  21  22
HETATM   22  O   UNK N   1      35.972  14.658   7.170  0.00  0.00    -0.398 OA
HETATM   23  H   UNK N   1      36.757  15.018   6.728  0.00  0.00     0.209 HD
ENDBRANCH  21  22
ENDBRANCH   1  21
BRANCH   5  24
HETATM   24  O   UNK N   1      31.283  15.352  10.447  0.00  0.00    -0.368 OA
HETATM   25  H   UNK N   1      30.857  14.511  10.677  0.00  0.00     0.212 HD
ENDBRANCH   5  24
TORSDOF 10
ENDMDL
MODEL 7
REMARK VINA RESULT:      -5.2     10.134     12.177
REMARK  10 active torsions:
REMARK  status: ('A' for Active; 'I' for Inactive)
REMARK    1  A    between atoms: C_2  and  C_1 
REMARK    2  A    between atoms: O_7  and  C_1 
REMARK    3  A    between atoms: C_3  and  O_8 
REMARK    4  A    between atoms: C_4  and  O_17 
REMARK    5  A    between atoms: C_5  and  O_18 
REMARK    6  A    between atoms: C_6  and  O_9 
REMARK    7  A    between atoms: S_19  and  O_10 
REMARK    8  A    between atoms: S_20  and  O_13 
REMARK    9  A    between atoms: S_19  and  O_17 
REMARK   10  A    between atoms: S_20  and  O_18 
ROOT
HETATM    1  C   UNK N   1      21.754  19.170   3.641  0.00  0.00     0.179 C 
HETATM    2  C   UNK N   1      22.437  17.898   4.189  0.00  0.00     0.182 C 
HETATM    3  C   UNK N   1      21.357  16.927   4.695  0.00  0.00     0.210 C 
HETATM    4  C   UNK N   1      20.317  16.671   3.587  0.00  0.00     0.232 C 
HETATM    5  C   UNK N   1      19.820  18.029   3.021  0.00  0.00     0.290 C 
HETATM    6  O   UNK N   1      20.909  18.813   2.563  0.00  0.00    -0.349 OA
ENDROOT
BRANCH   3   7
HETATM    7  O   UNK N   1      20.711  17.497   5.823  0.00  0.00    -0.253 OA
BRANCH   7   8
HETATM    8  S   UNK N   1      21.135  16.596   7.239  0.00  0.00     0.240 S 
HETATM    9  O   UNK N   1      20.861  15.090   7.121  0.00  0.00    -0.579 OA
HETATM   10  O   UNK N   1      20.496  17.107   8.539  0.00  0.00    -0.579 OA
BRANCH   8  11
HETATM   11  O   UNK N   1      19.442  16.498   6.974  0.00  0.00    -0.274 OA
HETATM   12  H   UNK N   1      18.543  16.249   7.240  0.00  0.00     0.234 HD
ENDBRANCH   8  11
ENDBRANCH   7   8
ENDBRANCH   3   7
BRANCH   2  13
HETATM   13  O   UNK N   1      23.316  18.206   5.232  0.00  0.00    -0.390 OA
HETATM   14  H   UNK N   1      23.607  17.524   5.858  0.00  0.00     0.210 HD
ENDBRANCH   2  13
BRANCH   4  15
HETATM   15  O   UNK N   1      19.249  15.934   4.156  0.00  0.00    -0.251 OA
BRANCH  15  16
HETATM   16  S   UNK N   1      19.561  14.237   4.041  0.00  0.00     0.241 S 
HETATM   17  O   UNK N   1      18.340  14.394   4.959  0.00  0.00    -0.579 OA
HETATM   18  O   UNK N   1      19.088  14.708   2.656  0.00  0.00    -0.579 OA
BRANCH  16  19
HETATM   19  O   UNK N   1      18.367  13.144   3.472  0.00  0.00    -0.274 OA
HETATM   20  H   UNK N   1      17.719  12.739   4.069  0.00  0.00     0.234 HD
ENDBRANCH  16  19
ENDBRANCH  15  16
ENDBRANCH   4  15
BRANCH   1  21
HETATM   21  C   UNK N   1      22.773  20.175   3.113  0.00  0.00     0.198 C 
BRANCH  21  22
HETATM   22  O   UNK N   1      22.175  21.412   2.867  0.00  0.00    -0.398 OA
HETATM   23  H   UNK N   1      22.502  22.063   2.228  0.00  0.00     0.209 HD
ENDBRANCH  21  22
ENDBRANCH   1  21
BRANCH   5  24
HETATM   24  O   UNK N   1      18.969  17.810   1.938  0.00  0.00    -0.368 OA
HETATM   25  H   UNK N   1      18.434  17.002   1.884  0.00  0.00     0.212 HD
ENDBRANCH   5  24
TORSDOF 10
ENDMDL
MODEL 8
REMARK VINA RESULT:      -5.1      1.919      4.400
REMARK  10 active torsions:
REMARK  status: ('A' for Active; 'I' for Inactive)
REMARK    1  A    between atoms: C_2  and  C_1 
REMARK    2  A    between atoms: O_7  and  C_1 
REMARK    3  A    between atoms: C_3  and  O_8 
REMARK    4  A    between atoms: C_4  and  O_17 
REMARK    5  A    between atoms: C_5  and  O_18 
REMARK    6  A    between atoms: C_6  and  O_9 
REMARK    7  A    between atoms: S_19  and  O_10 
REMARK    8  A    between atoms: S_20  and  O_13 
REMARK    9  A    between atoms: S_19  and  O_17 
REMARK   10  A    between atoms: S_20  and  O_18 
ROOT
HETATM    1  C   UNK N   1      33.516  17.123   8.101  0.00  0.00     0.179 C 
HETATM    2  C   UNK N   1      33.173  17.790   6.750  0.00  0.00     0.182 C 
HETATM    3  C   UNK N   1      31.875  17.172   6.203  0.00  0.00     0.210 C 
HETATM    4  C   UNK N   1      30.761  17.258   7.264  0.00  0.00     0.232 C 
HETATM    5  C   UNK N   1      31.285  16.691   8.610  0.00  0.00     0.290 C 
HETATM    6  O   UNK N   1      32.464  17.365   9.016  0.00  0.00    -0.349 OA
ENDROOT
BRANCH   3   7
HETATM    7  O   UNK N   1      32.109  15.811   5.877  0.00  0.00    -0.253 OA
BRANCH   7   8
HETATM    8  S   UNK N   1      31.961  15.600   4.165  0.00  0.00     0.240 S 
HETATM    9  O   UNK N   1      31.922  14.131   3.723  0.00  0.00    -0.579 OA
HETATM   10  O   UNK N   1      33.026  16.331   3.334  0.00  0.00    -0.579 OA
BRANCH   8  11
HETATM   11  O   UNK N   1      33.462  14.962   4.701  0.00  0.00    -0.274 OA
HETATM   12  H   UNK N   1      34.386  15.057   4.980  0.00  0.00     0.234 HD
ENDBRANCH   8  11
ENDBRANCH   7   8
ENDBRANCH   3   7
BRANCH   2  13
HETATM   13  O   UNK N   1      34.205  17.613   5.823  0.00  0.00    -0.390 OA
HETATM   14  H   UNK N   1      34.872  18.303   5.681  0.00  0.00     0.210 HD
ENDBRANCH   2  13
BRANCH   4  15
HETATM   15  O   UNK N   1      29.654  16.511   6.792  0.00  0.00    -0.251 OA
BRANCH  15  16
HETATM   16  S   UNK N   1      28.391  17.572   6.270  0.00  0.00     0.241 S 
HETATM   17  O   UNK N   1      28.263  16.294   5.427  0.00  0.00    -0.579 OA
HETATM   18  O   UNK N   1      28.059  17.141   7.708  0.00  0.00    -0.579 OA
BRANCH  16  19
HETATM   19  O   UNK N   1      26.743  17.098   6.331  0.00  0.00    -0.274 OA
HETATM   20  H   UNK N   1      26.051  17.696   6.656  0.00  0.00     0.234 HD
ENDBRANCH  16  19
ENDBRANCH  15  16
ENDBRANCH   4  15
BRANCH   1  21
HETATM   21  C   UNK N   1      34.793  17.700   8.705  0.00  0.00     0.198 C 
BRANCH  21  22
HETATM   22  O   UNK N   1      34.969  19.031   8.326  0.00  0.00    -0.398 OA
HETATM   23  H   UNK N   1      34.781  19.794   8.894  0.00  0.00     0.209 HD
ENDBRANCH  21  22
ENDBRANCH   1  21
BRANCH   5  24
HETATM   24  O   UNK N   1      30.327  16.874   9.608  0.00  0.00    -0.368 OA
HETATM   25  H   UNK N   1      29.814  16.123   9.946  0.00  0.00     0.212 HD
ENDBRANCH   5  24
TORSDOF 10
ENDMDL
MODEL 9
REMARK VINA RESULT:      -5.0      3.700      6.220
REMARK  10 active torsions:
REMARK  status: ('A' for Active; 'I' for Inactive)
REMARK    1  A    between atoms: C_2  and  C_1 
REMARK    2  A    between atoms: O_7  and  C_1 
REMARK    3  A    between atoms: C_3  and  O_8 
REMARK    4  A    between atoms: C_4  and  O_17 
REMARK    5  A    between atoms: C_5  and  O_18 
REMARK    6  A    between atoms: C_6  and  O_9 
REMARK    7  A    between atoms: S_19  and  O_10 
REMARK    8  A    between atoms: S_20  and  O_13 
REMARK    9  A    between atoms: S_19  and  O_17 
REMARK   10  A    between atoms: S_20  and  O_18 
ROOT
HETATM    1  C   UNK N   1      35.412  13.835  11.630  0.00  0.00     0.179 C 
HETATM    2  C   UNK N   1      36.519  14.658  10.937  0.00  0.00     0.182 C 
HETATM    3  C   UNK N   1      36.105  14.927   9.481  0.00  0.00     0.210 C 
HETATM    4  C   UNK N   1      34.706  15.571   9.441  0.00  0.00     0.232 C 
HETATM    5  C   UNK N   1      33.724  14.727  10.296  0.00  0.00     0.290 C 
HETATM    6  O   UNK N   1      34.207  14.579  11.620  0.00  0.00    -0.349 OA
ENDROOT
BRANCH   3   7
HETATM    7  O   UNK N   1      36.078  13.700   8.770  0.00  0.00    -0.253 OA
BRANCH   7   8
HETATM    8  S   UNK N   1      37.322  13.709   7.566  0.00  0.00     0.240 S 
HETATM    9  O   UNK N   1      37.206  12.569   6.545  0.00  0.00    -0.579 OA
HETATM   10  O   UNK N   1      38.753  13.718   8.125  0.00  0.00    -0.579 OA
BRANCH   8  11
HETATM   11  O   UNK N   1      37.442  12.283   8.515  0.00  0.00    -0.274 OA
HETATM   12  H   UNK N   1      37.104  11.660   9.177  0.00  0.00     0.234 HD
ENDBRANCH   8  11
ENDBRANCH   7   8
ENDBRANCH   3   7
BRANCH   2  13
HETATM   13  O   UNK N   1      37.742  13.979  10.959  0.00  0.00    -0.390 OA
HETATM   14  H   UNK N   1      38.554  14.403  10.640  0.00  0.00     0.210 HD
ENDBRANCH   2  13
BRANCH   4  15
HETATM   15  O   UNK N   1      34.290  15.622   8.087  0.00  0.00    -0.251 OA
BRANCH  15  16
HETATM   16  S   UNK N   1      34.306  17.253   7.514  0.00  0.00     0.241 S 
HETATM   17  O   UNK N   1      34.997  16.406   6.435  0.00  0.00    -0.579 OA
HETATM   18  O   UNK N   1      32.841  16.785   7.517  0.00  0.00    -0.579 OA
BRANCH  16  19
HETATM   19  O   UNK N   1      33.593  17.681   6.012  0.00  0.00    -0.274 OA
HETATM   20  H   UNK N   1      33.414  18.605   5.776  0.00  0.00     0.234 HD
ENDBRANCH  16  19
ENDBRANCH  15  16
ENDBRANCH   4  15
BRANCH   1  21
HETATM   21  C   UNK N   1      35.757  13.539  13.087  0.00  0.00     0.198 C 
BRANCH  21  22
HETATM   22  O   UNK N   1      36.793  14.362  13.532  0.00  0.00    -0.398 OA
HETATM   23  H   UNK N   1      37.068  15.183  13.096  0.00  0.00     0.209 HD
ENDBRANCH  21  22
ENDBRANCH   1  21
BRANCH   5  24
HETATM   24  O   UNK N   1      32.485  15.364  10.365  0.00  0.00    -0.368 OA
HETATM   25  H   UNK N   1      32.229  15.866  11.155  0.00  0.00     0.212 HD
ENDBRANCH   5  24
TORSDOF 10
ENDMDL
