REMARK  4 active torsions:
REMARK  status: ('A' for Active; 'I' for Inactive)
REMARK    1  A    between atoms: C_9  and  C_4 
REMARK    2  A    between atoms: O_16  and  C_4 
REMARK    3  A    between atoms: S_21  and  N_10 
REMARK    4  A    between atoms: S_21  and  O_16 
ROOT
HETATM    1  C   UNK N   1      -0.525   3.852   1.366  0.00  0.00     0.078 C 
HETATM    2  C   UNK N   1      -1.281   2.780  -0.727  0.00  0.00     0.078 C 
HETATM    3  C   UNK N   1       3.039   0.106   1.490  0.00  0.00     0.207 C 
HETATM    4  C   UNK N   1       3.762   0.540   0.180  0.00  0.00     0.201 C 
HETATM    5  C   UNK N   1       3.161   1.775  -0.436  0.00  0.00     0.211 C 
HETATM    6  C   UNK N   1       1.893   2.156   0.320  0.00  0.00     0.223 C 
HETATM    7  C   UNK N   1      -0.194   2.789   0.334  0.00  0.00     0.161 C 
HETATM    8  C   UNK N   1       1.028   0.938   0.484  0.00  0.00     0.219 C 
HETATM    9  O   UNK N   1       6.713   1.846   0.226  0.00  0.00    -0.169 OA
HETATM   10  O   UNK N   1       5.921   3.396  -0.413  0.00  0.00    -0.169 OA
HETATM   11  O   UNK N   1       1.610   0.004   1.398  0.00  0.00    -0.348 OA
HETATM   12  O   UNK N   1       1.055   3.091  -0.274  0.00  0.00    -0.342 OA
HETATM   13  O   UNK N   1       5.061   0.943   0.486  0.00  0.00    -0.243 OA
HETATM   14  O   UNK N   1       4.154   2.728  -0.261  0.00  0.00    -0.243 OA
HETATM   15  O   UNK N   1      -0.145   1.514   0.976  0.00  0.00    -0.315 OA
HETATM   16  S   UNK N   1       5.603   1.953  -0.831  0.00  0.00     0.403 S 
ENDROOT
BRANCH   8  17
HETATM   17  C   UNK N   1       0.717   0.199  -0.844  0.00  0.00     0.263 C 
BRANCH  17  18
HETATM   18  O   UNK N   1      -0.572  -0.371  -0.861  0.00  0.00    -0.254 OA
BRANCH  18  19
HETATM   19  S   UNK N   1      -0.537  -1.807   0.094  0.00  0.00     0.355 S 
HETATM   20  O   UNK N   1      -0.784  -2.239  -1.359  0.00  0.00    -0.176 OA
HETATM   21  O   UNK N   1      -1.749  -0.958   0.513  0.00  0.00    -0.176 OA
BRANCH  19  22
HETATM   22  N   UNK N   1      -1.949  -2.864   0.117  0.00  0.00    -0.306 N 
HETATM   23  H   UNK N   1      -2.886  -2.463   0.130  0.00  0.00     0.171 HD
HETATM   24  H   UNK N   1      -1.827  -3.877   0.117  0.00  0.00     0.171 HD
ENDBRANCH  19  22
ENDBRANCH  18  19
ENDBRANCH  17  18
ENDBRANCH   8  17
TORSDOF 4
