MODEL 1
REMARK VINA RESULT:      -3.7      0.000      0.000
REMARK  2 active torsions:
REMARK  status: ('A' for Active; 'I' for Inactive)
REMARK    1  A    between atoms: C_2  and  O_3 
REMARK    2  A    between atoms: O_3  and  C_4 
REMARK       I    between atoms: C_4  and  N_6 
ROOT
HETATM    1  C   UNK N   1      34.650  18.117   7.956  0.00  0.00     0.360 C 
HETATM    2  O   UNK N   1      35.068  19.138   8.488  0.00  0.00    -0.239 OA
HETATM    3  N   UNK N   1      34.586  16.958   8.652  0.00  0.00    -0.341 N 
HETATM    4  C   UNK N   1      34.999  16.866  10.029  0.00  0.00     0.151 C 
HETATM    5  H   UNK N   1      34.246  16.151   8.203  0.00  0.00     0.164 HD
ENDROOT
BRANCH   1   6
HETATM    6  O   UNK N   1      34.244  18.127   6.665  0.00  0.00    -0.304 OA
BRANCH   6   7
HETATM    7  C   UNK N   1      33.528  17.103   6.094  0.00  0.00     0.176 C 
HETATM    8  C   UNK N   1      33.023  17.552   4.738  0.00  0.00     0.034 C 
ENDBRANCH   6   7
ENDBRANCH   1   6
TORSDOF 2
ENDMDL
MODEL 2
REMARK VINA RESULT:      -3.5     14.892     15.249
REMARK  2 active torsions:
REMARK  status: ('A' for Active; 'I' for Inactive)
REMARK    1  A    between atoms: C_2  and  O_3 
REMARK    2  A    between atoms: O_3  and  C_4 
REMARK       I    between atoms: C_4  and  N_6 
ROOT
HETATM    1  C   UNK N   1      19.371  18.590   9.508  0.00  0.00     0.360 C 
HETATM    2  O   UNK N   1      19.937  19.437  10.188  0.00  0.00    -0.239 OA
HETATM    3  N   UNK N   1      18.115  18.192   9.814  0.00  0.00    -0.341 N 
HETATM    4  C   UNK N   1      17.389  18.733  10.934  0.00  0.00     0.151 C 
HETATM    5  H   UNK N   1      17.681  17.510   9.252  0.00  0.00     0.164 HD
ENDROOT
BRANCH   1   6
HETATM    6  O   UNK N   1      19.991  18.037   8.439  0.00  0.00    -0.304 OA
BRANCH   6   7
HETATM    7  C   UNK N   1      19.735  16.760   8.000  0.00  0.00     0.176 C 
HETATM    8  C   UNK N   1      20.687  15.803   8.687  0.00  0.00     0.034 C 
ENDBRANCH   6   7
ENDBRANCH   1   6
TORSDOF 2
ENDMDL
MODEL 3
REMARK VINA RESULT:      -3.4     12.314     13.562
REMARK  2 active torsions:
REMARK  status: ('A' for Active; 'I' for Inactive)
REMARK    1  A    between atoms: C_2  and  O_3 
REMARK    2  A    between atoms: O_3  and  C_4 
REMARK       I    between atoms: C_4  and  N_6 
ROOT
HETATM    1  C   UNK N   1      21.776  20.620   2.431  0.00  0.00     0.360 C 
HETATM    2  O   UNK N   1      21.331  20.974   1.346  0.00  0.00    -0.239 OA
HETATM    3  N   UNK N   1      21.064  19.788   3.227  0.00  0.00    -0.341 N 
HETATM    4  C   UNK N   1      19.769  19.285   2.848  0.00  0.00     0.151 C 
HETATM    5  H   UNK N   1      21.443  19.518   4.094  0.00  0.00     0.164 HD
ENDROOT
BRANCH   1   6
HETATM    6  O   UNK N   1      22.987  21.052   2.855  0.00  0.00    -0.304 OA
BRANCH   6   7
HETATM    7  C   UNK N   1      23.966  20.208   3.320  0.00  0.00     0.176 C 
HETATM    8  C   UNK N   1      25.257  20.498   2.582  0.00  0.00     0.034 C 
ENDBRANCH   6   7
ENDBRANCH   1   6
TORSDOF 2
ENDMDL
MODEL 4
REMARK VINA RESULT:      -3.4      2.386      3.191
REMARK  2 active torsions:
REMARK  status: ('A' for Active; 'I' for Inactive)
REMARK    1  A    between atoms: C_2  and  O_3 
REMARK    2  A    between atoms: O_3  and  C_4 
REMARK       I    between atoms: C_4  and  N_6 
ROOT
HETATM    1  C   UNK N   1      35.372  16.452  10.549  0.00  0.00     0.360 C 
HETATM    2  O   UNK N   1      36.576  16.356  10.753  0.00  0.00    -0.239 OA
HETATM    3  N   UNK N   1      34.516  15.531  11.051  0.00  0.00    -0.341 N 
HETATM    4  C   UNK N   1      34.967  14.412  11.837  0.00  0.00     0.151 C 
HETATM    5  H   UNK N   1      33.553  15.630  10.874  0.00  0.00     0.164 HD
ENDROOT
BRANCH   1   6
HETATM    6  O   UNK N   1      34.875  17.478   9.819  0.00  0.00    -0.304 OA
BRANCH   6   7
HETATM    7  C   UNK N   1      33.849  17.330   8.917  0.00  0.00     0.176 C 
HETATM    8  C   UNK N   1      34.193  18.091   7.653  0.00  0.00     0.034 C 
ENDBRANCH   6   7
ENDBRANCH   1   6
TORSDOF 2
ENDMDL
MODEL 5
REMARK VINA RESULT:      -3.4      1.834      3.620
REMARK  2 active torsions:
REMARK  status: ('A' for Active; 'I' for Inactive)
REMARK    1  A    between atoms: C_2  and  O_3 
REMARK    2  A    between atoms: O_3  and  C_4 
REMARK       I    between atoms: C_4  and  N_6 
ROOT
HETATM    1  C   UNK N   1      34.373  17.778   8.654  0.00  0.00     0.360 C 
HETATM    2  O   UNK N   1      34.677  18.195   7.543  0.00  0.00    -0.239 OA
HETATM    3  N   UNK N   1      33.096  17.422   8.928  0.00  0.00    -0.341 N 
HETATM    4  C   UNK N   1      32.047  17.514   7.946  0.00  0.00     0.151 C 
HETATM    5  H   UNK N   1      32.877  17.090   9.828  0.00  0.00     0.164 HD
ENDROOT
BRANCH   1   6
HETATM    6  O   UNK N   1      35.307  17.664   9.628  0.00  0.00    -0.304 OA
BRANCH   6   7
HETATM    7  C   UNK N   1      35.294  16.661  10.567  0.00  0.00     0.176 C 
HETATM    8  C   UNK N   1      35.841  15.395   9.941  0.00  0.00     0.034 C 
ENDBRANCH   6   7
ENDBRANCH   1   6
TORSDOF 2
ENDMDL
MODEL 6
REMARK VINA RESULT:      -3.3     11.288     12.379
REMARK  2 active torsions:
REMARK  status: ('A' for Active; 'I' for Inactive)
REMARK    1  A    between atoms: C_2  and  O_3 
REMARK    2  A    between atoms: O_3  and  C_4 
REMARK       I    between atoms: C_4  and  N_6 
ROOT
HETATM    1  C   UNK N   1      23.828  20.545   2.904  0.00  0.00     0.360 C 
HETATM    2  O   UNK N   1      24.703  20.918   2.131  0.00  0.00    -0.239 OA
HETATM    3  N   UNK N   1      24.065  19.533   3.770  0.00  0.00    -0.341 N 
HETATM    4  C   UNK N   1      25.333  18.853   3.829  0.00  0.00     0.151 C 
HETATM    5  H   UNK N   1      23.346  19.252   4.381  0.00  0.00     0.164 HD
ENDROOT
BRANCH   1   6
HETATM    6  O   UNK N   1      22.611  21.138   2.906  0.00  0.00    -0.304 OA
BRANCH   6   7
HETATM    7  C   UNK N   1      21.506  20.586   2.303  0.00  0.00     0.176 C 
HETATM    8  C   UNK N   1      20.479  20.257   3.367  0.00  0.00     0.034 C 
ENDBRANCH   6   7
ENDBRANCH   1   6
TORSDOF 2
ENDMDL
MODEL 7
REMARK VINA RESULT:      -3.3     13.847     14.380
REMARK  2 active torsions:
REMARK  status: ('A' for Active; 'I' for Inactive)
REMARK    1  A    between atoms: C_2  and  O_3 
REMARK    2  A    between atoms: O_3  and  C_4 
REMARK       I    between atoms: C_4  and  N_6 
ROOT
HETATM    1  C   UNK N   1      20.954  13.043  10.423  0.00  0.00     0.360 C 
HETATM    2  O   UNK N   1      19.731  13.052  10.355  0.00  0.00    -0.239 OA
HETATM    3  N   UNK N   1      21.684  13.991   9.790  0.00  0.00    -0.341 N 
HETATM    4  C   UNK N   1      21.072  15.041   9.017  0.00  0.00     0.151 C 
HETATM    5  H   UNK N   1      22.665  13.962   9.859  0.00  0.00     0.164 HD
ENDROOT
BRANCH   1   6
HETATM    6  O   UNK N   1      21.599  12.086  11.132  0.00  0.00    -0.304 OA
BRANCH   6   7
HETATM    7  C   UNK N   1      22.944  12.134  11.407  0.00  0.00     0.176 C 
HETATM    8  C   UNK N   1      23.154  11.855  12.881  0.00  0.00     0.034 C 
ENDBRANCH   6   7
ENDBRANCH   1   6
TORSDOF 2
ENDMDL
MODEL 8
REMARK VINA RESULT:      -3.2      6.709      8.287
REMARK  2 active torsions:
REMARK  status: ('A' for Active; 'I' for Inactive)
REMARK    1  A    between atoms: C_2  and  O_3 
REMARK    2  A    between atoms: O_3  and  C_4 
REMARK       I    between atoms: C_4  and  N_6 
ROOT
HETATM    1  C   UNK N   1      35.810  13.838  13.275  0.00  0.00     0.360 C 
HETATM    2  O   UNK N   1      34.748  13.691  12.681  0.00  0.00    -0.239 OA
HETATM    3  N   UNK N   1      36.985  13.761  12.608  0.00  0.00    -0.341 N 
HETATM    4  C   UNK N   1      37.050  13.505  11.193  0.00  0.00     0.151 C 
HETATM    5  H   UNK N   1      37.825  13.882  13.108  0.00  0.00     0.164 HD
ENDROOT
BRANCH   1   6
HETATM    6  O   UNK N   1      35.828  14.081  14.606  0.00  0.00    -0.304 OA
BRANCH   6   7
HETATM    7  C   UNK N   1      36.964  13.981  15.373  0.00  0.00     0.176 C 
HETATM    8  C   UNK N   1      37.344  15.361  15.869  0.00  0.00     0.034 C 
ENDBRANCH   6   7
ENDBRANCH   1   6
TORSDOF 2
ENDMDL
MODEL 9
REMARK VINA RESULT:      -3.1      1.899      2.126
REMARK  2 active torsions:
REMARK  status: ('A' for Active; 'I' for Inactive)
REMARK    1  A    between atoms: C_2  and  O_3 
REMARK    2  A    between atoms: O_3  and  C_4 
REMARK       I    between atoms: C_4  and  N_6 
ROOT
HETATM    1  C   UNK N   1      34.224  17.816   8.718  0.00  0.00     0.360 C 
HETATM    2  O   UNK N   1      35.134  18.636   8.673  0.00  0.00    -0.239 OA
HETATM    3  N   UNK N   1      34.243  16.821   9.635  0.00  0.00    -0.341 N 
HETATM    4  C   UNK N   1      35.312  16.676  10.589  0.00  0.00     0.151 C 
HETATM    5  H   UNK N   1      33.501  16.175   9.652  0.00  0.00     0.164 HD
ENDROOT
BRANCH   1   6
HETATM    6  O   UNK N   1      33.185  17.890   7.853  0.00  0.00    -0.304 OA
BRANCH   6   7
HETATM    7  C   UNK N   1      32.002  17.218   8.043  0.00  0.00     0.176 C 
HETATM    8  C   UNK N   1      31.012  18.147   8.716  0.00  0.00     0.034 C 
ENDBRANCH   6   7
ENDBRANCH   1   6
TORSDOF 2
ENDMDL
