MODEL 1
REMARK VINA RESULT:      -6.2      0.000      0.000
REMARK  4 active torsions:
REMARK  status: ('A' for Active; 'I' for Inactive)
REMARK    1  A    between atoms: C_7  and  C_5 
REMARK    2  A    between atoms: C_9  and  C_5 
REMARK    3  A    between atoms: C_11  and  C_9 
REMARK    4  A    between atoms: O_16  and  C_11 
ROOT
HETATM    1  C   UNK N   1      25.572  20.577   2.778  0.00  0.00     0.001 A 
HETATM    2  C   UNK N   1      26.413  19.830   3.627  0.00  0.00     0.002 A 
HETATM    3  C   UNK N   1      24.182  20.392   2.825  0.00  0.00     0.014 A 
HETATM    4  C   UNK N   1      25.865  18.898   4.524  0.00  0.00     0.030 A 
HETATM    5  C   UNK N   1      22.478  18.089   5.006  0.00  0.00     0.096 A 
HETATM    6  C   UNK N   1      22.356  19.053   4.008  0.00  0.00    -0.025 A 
HETATM    7  C   UNK N   1      23.654  19.463   3.721  0.00  0.00    -0.002 A 
HETATM    8  C   UNK N   1      24.481  18.743   4.541  0.00  0.00     0.042 A 
HETATM    9  N   UNK N   1      23.783  17.907   5.325  0.00  0.00    -0.365 N 
HETATM   10  H   UNK N   1      24.146  17.286   5.996  0.00  0.00     0.165 HD
ENDROOT
BRANCH   6  11
HETATM   11  C   UNK N   1      20.997  19.451   3.463  0.00  0.00     0.104 C 
BRANCH  11  12
HETATM   12  C   UNK N   1      20.669  19.466   1.985  0.00  0.00     0.081 C 
HETATM   13  N   UNK N   1      20.192  18.428   1.401  0.00  0.00    -0.397 N 
HETATM   14  H   UNK N   1      19.961  18.412   0.399  0.00  0.00     0.156 HD
ATOM     15  HN  UNK N   1      20.034  17.585   1.953  1.00  0.00     0.156 HD
BRANCH  12  16
HETATM   16  C   UNK N   1      20.909  20.707   1.210  0.00  0.00     0.189 C 
HETATM   17  O   UNK N   1      21.086  20.658   0.004  0.00  0.00    -0.645 OA
BRANCH  16  18
HETATM   18  O   UNK N   1      20.933  21.900   1.836  0.00  0.00    -0.772 OA
HETATM   19  H   UNK N   1      20.850  22.691   1.341  0.00  0.00     0.167 HD
ENDBRANCH  16  18
ENDBRANCH  12  16
ENDBRANCH  11  12
ENDBRANCH   6  11
TORSDOF 4
ENDMDL
MODEL 2
REMARK VINA RESULT:      -5.9      9.714     11.226
REMARK  4 active torsions:
REMARK  status: ('A' for Active; 'I' for Inactive)
REMARK    1  A    between atoms: C_7  and  C_5 
REMARK    2  A    between atoms: C_9  and  C_5 
REMARK    3  A    between atoms: C_11  and  C_9 
REMARK    4  A    between atoms: O_16  and  C_11 
ROOT
HETATM    1  C   UNK N   1      25.839  28.099  -3.725  0.00  0.00     0.001 A 
HETATM    2  C   UNK N   1      25.004  28.132  -4.860  0.00  0.00     0.002 A 
HETATM    3  C   UNK N   1      26.495  26.911  -3.367  0.00  0.00     0.014 A 
HETATM    4  C   UNK N   1      24.825  26.977  -5.639  0.00  0.00     0.030 A 
HETATM    5  C   UNK N   1      26.240  23.795  -5.154  0.00  0.00     0.096 A 
HETATM    6  C   UNK N   1      26.797  24.475  -4.073  0.00  0.00    -0.025 A 
HETATM    7  C   UNK N   1      26.306  25.774  -4.152  0.00  0.00    -0.002 A 
HETATM    8  C   UNK N   1      25.493  25.817  -5.252  0.00  0.00     0.042 A 
HETATM    9  N   UNK N   1      25.444  24.626  -5.869  0.00  0.00    -0.365 N 
HETATM   10  H   UNK N   1      24.931  24.402  -6.679  0.00  0.00     0.165 HD
ENDROOT
BRANCH   6  11
HETATM   11  C   UNK N   1      27.734  23.775  -3.104  0.00  0.00     0.104 C 
BRANCH  11  12
HETATM   12  C   UNK N   1      29.241  23.850  -3.211  0.00  0.00     0.081 C 
HETATM   13  N   UNK N   1      29.813  24.775  -3.892  0.00  0.00    -0.397 N 
HETATM   14  H   UNK N   1      30.835  24.849  -3.980  0.00  0.00     0.156 HD
ATOM     15  HN  UNK N   1      29.231  25.465  -4.366  1.00  0.00     0.156 HD
BRANCH  12  16
HETATM   16  C   UNK N   1      30.061  22.833  -2.510  0.00  0.00     0.189 C 
HETATM   17  O   UNK N   1      30.441  23.024  -1.367  0.00  0.00    -0.645 OA
BRANCH  16  18
HETATM   18  O   UNK N   1      30.394  21.687  -3.137  0.00  0.00    -0.772 OA
HETATM   19  H   UNK N   1      30.586  21.692  -4.053  0.00  0.00     0.167 HD
ENDBRANCH  16  18
ENDBRANCH  12  16
ENDBRANCH  11  12
ENDBRANCH   6  11
TORSDOF 4
ENDMDL
MODEL 3
REMARK VINA RESULT:      -5.9     14.840     17.116
REMARK  4 active torsions:
REMARK  status: ('A' for Active; 'I' for Inactive)
REMARK    1  A    between atoms: C_7  and  C_5 
REMARK    2  A    between atoms: C_9  and  C_5 
REMARK    3  A    between atoms: C_11  and  C_9 
REMARK    4  A    between atoms: O_16  and  C_11 
ROOT
HETATM    1  C   UNK N   1      33.989  10.511  14.451  0.00  0.00     0.001 A 
HETATM    2  C   UNK N   1      34.455  10.738  15.761  0.00  0.00     0.002 A 
HETATM    3  C   UNK N   1      34.324  11.403  13.420  0.00  0.00     0.014 A 
HETATM    4  C   UNK N   1      35.256  11.856  16.044  0.00  0.00     0.030 A 
HETATM    5  C   UNK N   1      36.353  14.352  13.822  0.00  0.00     0.096 A 
HETATM    6  C   UNK N   1      35.618  13.554  12.947  0.00  0.00    -0.025 A 
HETATM    7  C   UNK N   1      35.120  12.509  13.718  0.00  0.00    -0.002 A 
HETATM    8  C   UNK N   1      35.567  12.719  14.995  0.00  0.00     0.042 A 
HETATM    9  N   UNK N   1      36.315  13.831  15.073  0.00  0.00    -0.365 N 
HETATM   10  H   UNK N   1      36.748  14.195  15.878  0.00  0.00     0.165 HD
ENDROOT
BRANCH   6  11
HETATM   11  C   UNK N   1      35.496  13.911  11.476  0.00  0.00     0.104 C 
BRANCH  11  12
HETATM   12  C   UNK N   1      34.650  15.059  10.971  0.00  0.00     0.081 C 
HETATM   13  N   UNK N   1      33.377  14.946  10.859  0.00  0.00    -0.397 N 
HETATM   14  H   UNK N   1      32.779  15.711  10.519  0.00  0.00     0.156 HD
ATOM     15  HN  UNK N   1      32.939  14.062  11.118  1.00  0.00     0.156 HD
BRANCH  12  16
HETATM   16  C   UNK N   1      35.315  16.332  10.602  0.00  0.00     0.189 C 
HETATM   17  O   UNK N   1      36.516  16.473  10.767  0.00  0.00    -0.645 OA
BRANCH  16  18
HETATM   18  O   UNK N   1      34.594  17.344  10.081  0.00  0.00    -0.772 OA
HETATM   19  H   UNK N   1      34.343  18.067  10.621  0.00  0.00     0.167 HD
ENDBRANCH  16  18
ENDBRANCH  12  16
ENDBRANCH  11  12
ENDBRANCH   6  11
TORSDOF 4
ENDMDL
MODEL 4
REMARK VINA RESULT:      -5.8     18.006     20.217
REMARK  4 active torsions:
REMARK  status: ('A' for Active; 'I' for Inactive)
REMARK    1  A    between atoms: C_7  and  C_5 
REMARK    2  A    between atoms: C_9  and  C_5 
REMARK    3  A    between atoms: C_11  and  C_9 
REMARK    4  A    between atoms: O_16  and  C_11 
ROOT
HETATM    1  C   UNK N   1      35.583   9.393  18.535  0.00  0.00     0.001 A 
HETATM    2  C   UNK N   1      35.667   9.836  19.870  0.00  0.00     0.002 A 
HETATM    3  C   UNK N   1      35.405  10.318  17.495  0.00  0.00     0.014 A 
HETATM    4  C   UNK N   1      35.572  11.206  20.167  0.00  0.00     0.030 A 
HETATM    5  C   UNK N   1      35.127  13.882  17.931  0.00  0.00     0.096 A 
HETATM    6  C   UNK N   1      35.139  12.816  17.033  0.00  0.00    -0.025 A 
HETATM    7  C   UNK N   1      35.313  11.674  17.808  0.00  0.00    -0.002 A 
HETATM    8  C   UNK N   1      35.395  12.094  19.109  0.00  0.00     0.042 A 
HETATM    9  N   UNK N   1      35.285  13.428  19.199  0.00  0.00    -0.365 N 
HETATM   10  H   UNK N   1      35.313  13.969  20.021  0.00  0.00     0.165 HD
ENDROOT
BRANCH   6  11
HETATM   11  C   UNK N   1      34.981  13.046  15.541  0.00  0.00     0.104 C 
BRANCH  11  12
HETATM   12  C   UNK N   1      36.083  13.607  14.669  0.00  0.00     0.081 C 
HETATM   13  N   UNK N   1      37.295  13.667  15.087  0.00  0.00    -0.397 N 
HETATM   14  H   UNK N   1      38.062  14.043  14.515  0.00  0.00     0.156 HD
ATOM     15  HN  UNK N   1      37.506  13.328  16.026  1.00  0.00     0.156 HD
BRANCH  12  16
HETATM   16  C   UNK N   1      35.745  14.092  13.309  0.00  0.00     0.189 C 
HETATM   17  O   UNK N   1      34.718  13.730  12.760  0.00  0.00    -0.645 OA
BRANCH  16  18
HETATM   18  O   UNK N   1      36.574  14.941  12.670  0.00  0.00    -0.772 OA
HETATM   19  H   UNK N   1      36.679  15.818  12.982  0.00  0.00     0.167 HD
ENDBRANCH  16  18
ENDBRANCH  12  16
ENDBRANCH  11  12
ENDBRANCH   6  11
TORSDOF 4
ENDMDL
MODEL 5
REMARK VINA RESULT:      -5.8     10.884     12.277
REMARK  4 active torsions:
REMARK  status: ('A' for Active; 'I' for Inactive)
REMARK    1  A    between atoms: C_7  and  C_5 
REMARK    2  A    between atoms: C_9  and  C_5 
REMARK    3  A    between atoms: C_11  and  C_9 
REMARK    4  A    between atoms: O_16  and  C_11 
ROOT
HETATM    1  C   UNK N   1      28.407  29.205  -6.934  0.00  0.00     0.001 A 
HETATM    2  C   UNK N   1      28.560  30.233  -5.982  0.00  0.00     0.002 A 
HETATM    3  C   UNK N   1      27.487  28.169  -6.711  0.00  0.00     0.014 A 
HETATM    4  C   UNK N   1      27.793  30.225  -4.805  0.00  0.00     0.030 A 
HETATM    5  C   UNK N   1      25.382  27.870  -3.805  0.00  0.00     0.096 A 
HETATM    6  C   UNK N   1      25.763  27.321  -5.028  0.00  0.00    -0.025 A 
HETATM    7  C   UNK N   1      26.734  28.177  -5.538  0.00  0.00    -0.002 A 
HETATM    8  C   UNK N   1      26.890  29.180  -4.619  0.00  0.00     0.042 A 
HETATM    9  N   UNK N   1      26.078  29.007  -3.565  0.00  0.00    -0.365 N 
HETATM   10  H   UNK N   1      26.004  29.590  -2.775  0.00  0.00     0.165 HD
ENDROOT
BRANCH   6  11
HETATM   11  C   UNK N   1      25.135  26.038  -5.542  0.00  0.00     0.104 C 
BRANCH  11  12
HETATM   12  C   UNK N   1      25.740  24.671  -5.309  0.00  0.00     0.081 C 
HETATM   13  N   UNK N   1      25.386  23.659  -6.016  0.00  0.00    -0.397 N 
HETATM   14  H   UNK N   1      25.781  22.720  -5.879  0.00  0.00     0.156 HD
ATOM     15  HN  UNK N   1      24.684  23.793  -6.744  1.00  0.00     0.156 HD
BRANCH  12  16
HETATM   16  C   UNK N   1      26.758  24.508  -4.244  0.00  0.00     0.189 C 
HETATM   17  O   UNK N   1      27.943  24.662  -4.491  0.00  0.00    -0.645 OA
BRANCH  16  18
HETATM   18  O   UNK N   1      26.379  24.187  -2.991  0.00  0.00    -0.772 OA
HETATM   19  H   UNK N   1      26.894  24.464  -2.259  0.00  0.00     0.167 HD
ENDBRANCH  16  18
ENDBRANCH  12  16
ENDBRANCH  11  12
ENDBRANCH   6  11
TORSDOF 4
ENDMDL
MODEL 6
REMARK VINA RESULT:      -5.7     16.235     18.505
REMARK  4 active torsions:
REMARK  status: ('A' for Active; 'I' for Inactive)
REMARK    1  A    between atoms: C_7  and  C_5 
REMARK    2  A    between atoms: C_9  and  C_5 
REMARK    3  A    between atoms: C_11  and  C_9 
REMARK    4  A    between atoms: O_16  and  C_11 
ROOT
HETATM    1  C   UNK N   1      35.046  12.920  17.759  0.00  0.00     0.001 A 
HETATM    2  C   UNK N   1      35.385  11.560  17.897  0.00  0.00     0.002 A 
HETATM    3  C   UNK N   1      35.359  13.608  16.576  0.00  0.00     0.014 A 
HETATM    4  C   UNK N   1      36.037  10.884  16.853  0.00  0.00     0.030 A 
HETATM    5  C   UNK N   1      37.022  12.160  13.728  0.00  0.00     0.096 A 
HETATM    6  C   UNK N   1      36.446  13.301  14.284  0.00  0.00    -0.025 A 
HETATM    7  C   UNK N   1      36.007  12.922  15.549  0.00  0.00    -0.002 A 
HETATM    8  C   UNK N   1      36.332  11.599  15.694  0.00  0.00     0.042 A 
HETATM    9  N   UNK N   1      36.947  11.125  14.600  0.00  0.00    -0.365 N 
HETATM   10  H   UNK N   1      37.277  10.208  14.459  0.00  0.00     0.165 HD
ENDROOT
BRANCH   6  11
HETATM   11  C   UNK N   1      36.396  14.609  13.516  0.00  0.00     0.104 C 
BRANCH  11  12
HETATM   12  C   UNK N   1      35.591  14.794  12.249  0.00  0.00     0.081 C 
HETATM   13  N   UNK N   1      34.625  14.001  11.954  0.00  0.00    -0.397 N 
HETATM   14  H   UNK N   1      34.063  14.105  11.100  0.00  0.00     0.156 HD
ATOM     15  HN  UNK N   1      34.407  13.237  12.593  1.00  0.00     0.156 HD
BRANCH  12  16
HETATM   16  C   UNK N   1      35.932  15.914  11.339  0.00  0.00     0.189 C 
HETATM   17  O   UNK N   1      35.102  16.766  11.068  0.00  0.00    -0.645 OA
BRANCH  16  18
HETATM   18  O   UNK N   1      37.167  15.997  10.805  0.00  0.00    -0.772 OA
HETATM   19  H   UNK N   1      37.616  15.219  10.538  0.00  0.00     0.167 HD
ENDBRANCH  16  18
ENDBRANCH  12  16
ENDBRANCH  11  12
ENDBRANCH   6  11
TORSDOF 4
ENDMDL
MODEL 7
REMARK VINA RESULT:      -5.7     15.129     17.164
REMARK  4 active torsions:
REMARK  status: ('A' for Active; 'I' for Inactive)
REMARK    1  A    between atoms: C_7  and  C_5 
REMARK    2  A    between atoms: C_9  and  C_5 
REMARK    3  A    between atoms: C_11  and  C_9 
REMARK    4  A    between atoms: O_16  and  C_11 
ROOT
HETATM    1  C   UNK N   1      35.057  11.909  16.237  0.00  0.00     0.001 A 
HETATM    2  C   UNK N   1      34.432  10.730  15.787  0.00  0.00     0.002 A 
HETATM    3  C   UNK N   1      35.411  12.912  15.322  0.00  0.00     0.014 A 
HETATM    4  C   UNK N   1      34.160  10.551  14.420  0.00  0.00     0.030 A 
HETATM    5  C   UNK N   1      34.851  12.753  11.768  0.00  0.00     0.096 A 
HETATM    6  C   UNK N   1      35.351  13.496  12.835  0.00  0.00    -0.025 A 
HETATM    7  C   UNK N   1      35.135  12.719  13.969  0.00  0.00    -0.002 A 
HETATM    8  C   UNK N   1      34.527  11.569  13.542  0.00  0.00     0.042 A 
HETATM    9  N   UNK N   1      34.348  11.575  12.212  0.00  0.00    -0.365 N 
HETATM   10  H   UNK N   1      33.935  10.867  11.668  0.00  0.00     0.165 HD
ENDROOT
BRANCH   6  11
HETATM   11  C   UNK N   1      35.975  14.863  12.617  0.00  0.00     0.104 C 
BRANCH  11  12
HETATM   12  C   UNK N   1      36.244  15.439  11.243  0.00  0.00     0.081 C 
HETATM   13  N   UNK N   1      37.295  15.115  10.582  0.00  0.00    -0.397 N 
HETATM   14  H   UNK N   1      37.501  15.492   9.648  0.00  0.00     0.156 HD
ATOM     15  HN  UNK N   1      37.952  14.457  11.000  1.00  0.00     0.156 HD
BRANCH  12  16
HETATM   16  C   UNK N   1      35.269  16.393  10.662  0.00  0.00     0.189 C 
HETATM   17  O   UNK N   1      35.628  17.502  10.303  0.00  0.00    -0.645 OA
BRANCH  16  18
HETATM   18  O   UNK N   1      33.976  16.039  10.527  0.00  0.00    -0.772 OA
HETATM   19  H   UNK N   1      33.587  15.443  11.137  0.00  0.00     0.167 HD
ENDBRANCH  16  18
ENDBRANCH  12  16
ENDBRANCH  11  12
ENDBRANCH   6  11
TORSDOF 4
ENDMDL
MODEL 8
REMARK VINA RESULT:      -5.6      7.340      8.940
REMARK  4 active torsions:
REMARK  status: ('A' for Active; 'I' for Inactive)
REMARK    1  A    between atoms: C_7  and  C_5 
REMARK    2  A    between atoms: C_9  and  C_5 
REMARK    3  A    between atoms: C_11  and  C_9 
REMARK    4  A    between atoms: O_16  and  C_11 
ROOT
HETATM    1  C   UNK N   1      24.905  12.906   9.834  0.00  0.00     0.001 A 
HETATM    2  C   UNK N   1      24.873  12.184  11.044  0.00  0.00     0.002 A 
HETATM    3  C   UNK N   1      23.709  13.343   9.243  0.00  0.00     0.014 A 
HETATM    4  C   UNK N   1      23.646  11.900  11.665  0.00  0.00     0.030 A 
HETATM    5  C   UNK N   1      20.416  12.774  10.585  0.00  0.00     0.096 A 
HETATM    6  C   UNK N   1      21.174  13.334   9.558  0.00  0.00    -0.025 A 
HETATM    7  C   UNK N   1      22.500  13.052   9.873  0.00  0.00    -0.002 A 
HETATM    8  C   UNK N   1      22.480  12.350  11.049  0.00  0.00     0.042 A 
HETATM    9  N   UNK N   1      21.226  12.174  11.491  0.00  0.00    -0.365 N 
HETATM   10  H   UNK N   1      20.950  11.704  12.311  0.00  0.00     0.165 HD
ENDROOT
BRANCH   6  11
HETATM   11  C   UNK N   1      20.514  14.069   8.407  0.00  0.00     0.104 C 
BRANCH  11  12
HETATM   12  C   UNK N   1      20.756  15.533   8.112  0.00  0.00     0.081 C 
HETATM   13  N   UNK N   1      21.719  15.907   7.350  0.00  0.00    -0.397 N 
HETATM   14  H   UNK N   1      21.905  16.895   7.134  0.00  0.00     0.156 HD
ATOM     15  HN  UNK N   1      22.324  15.194   6.942  1.00  0.00     0.156 HD
BRANCH  12  16
HETATM   16  C   UNK N   1      19.859  16.546   8.720  0.00  0.00     0.189 C 
HETATM   17  O   UNK N   1      20.266  17.671   8.956  0.00  0.00    -0.645 OA
BRANCH  16  18
HETATM   18  O   UNK N   1      18.584  16.226   9.018  0.00  0.00    -0.772 OA
HETATM   19  H   UNK N   1      17.996  15.963   8.338  0.00  0.00     0.167 HD
ENDBRANCH  16  18
ENDBRANCH  12  16
ENDBRANCH  11  12
ENDBRANCH   6  11
TORSDOF 4
ENDMDL
MODEL 9
REMARK VINA RESULT:      -5.5     10.080     12.442
REMARK  4 active torsions:
REMARK  status: ('A' for Active; 'I' for Inactive)
REMARK    1  A    between atoms: C_7  and  C_5 
REMARK    2  A    between atoms: C_9  and  C_5 
REMARK    3  A    between atoms: C_11  and  C_9 
REMARK    4  A    between atoms: O_16  and  C_11 
ROOT
HETATM    1  C   UNK N   1      32.739  17.532   4.144  0.00  0.00     0.001 A 
HETATM    2  C   UNK N   1      31.336  17.406   4.098  0.00  0.00     0.002 A 
HETATM    3  C   UNK N   1      33.408  17.503   5.377  0.00  0.00     0.014 A 
HETATM    4  C   UNK N   1      30.601  17.250   5.284  0.00  0.00     0.030 A 
HETATM    5  C   UNK N   1      31.812  17.119   8.582  0.00  0.00     0.096 A 
HETATM    6  C   UNK N   1      33.011  17.281   7.891  0.00  0.00    -0.025 A 
HETATM    7  C   UNK N   1      32.663  17.348   6.545  0.00  0.00    -0.002 A 
HETATM    8  C   UNK N   1      31.301  17.226   6.489  0.00  0.00     0.042 A 
HETATM    9  N   UNK N   1      30.772  17.086   7.714  0.00  0.00    -0.365 N 
HETATM   10  H   UNK N   1      29.819  16.982   7.938  0.00  0.00     0.165 HD
ENDROOT
BRANCH   6  11
HETATM   11  C   UNK N   1      34.338  17.349   8.625  0.00  0.00     0.104 C 
BRANCH  11  12
HETATM   12  C   UNK N   1      34.603  16.619   9.923  0.00  0.00     0.081 C 
HETATM   13  N   UNK N   1      35.211  17.194  10.897  0.00  0.00    -0.397 N 
HETATM   14  H   UNK N   1      35.403  16.720  11.789  0.00  0.00     0.156 HD
ATOM     15  HN  UNK N   1      35.515  18.161  10.781  1.00  0.00     0.156 HD
BRANCH  12  16
HETATM   16  C   UNK N   1      34.148  15.214  10.062  0.00  0.00     0.189 C 
HETATM   17  O   UNK N   1      34.555  14.354   9.299  0.00  0.00    -0.645 OA
BRANCH  16  18
HETATM   18  O   UNK N   1      33.280  14.879  11.037  0.00  0.00    -0.772 OA
HETATM   19  H   UNK N   1      32.807  14.072  10.986  0.00  0.00     0.167 HD
ENDBRANCH  16  18
ENDBRANCH  12  16
ENDBRANCH  11  12
ENDBRANCH   6  11
TORSDOF 4
ENDMDL
