MODEL 1
REMARK VINA RESULT:      -7.5      0.000      0.000
REMARK  14 active torsions:
REMARK  status: ('A' for Active; 'I' for Inactive)
REMARK    1  A    between atoms: C_2  and  C_3 
REMARK    2  A    between atoms: C_3  and  C_4 
REMARK    3  A    between atoms: C_4  and  C_5 
REMARK    4  A    between atoms: C_5  and  C_6 
REMARK    5  A    between atoms: C_9  and  C_12 
REMARK       I    between atoms: C_12  and  N_14 
REMARK    6  A    between atoms: N_14  and  C_15 
REMARK    7  A    between atoms: N_14  and  C_33 
REMARK    8  A    between atoms: C_15  and  C_16 
REMARK    9  A    between atoms: C_19  and  C_22 
REMARK   10  A    between atoms: C_25  and  C_26 
REMARK   11  A    between atoms: C_26  and  C_27 
REMARK   12  A    between atoms: C_27  and  O_29 
REMARK   13  A    between atoms: N_36  and  C_39 
REMARK   14  A    between atoms: C_39  and  C_40 
ROOT
HETATM    1  C   UNK N   1      21.380  17.105   5.939  0.00  0.00     0.254 C 
HETATM    2  O   UNK N   1      20.664  17.639   6.777  0.00  0.00    -0.267 OA
HETATM    3  N   UNK N   1      21.336  15.733   5.792  0.00  0.00    -0.339 N 
ENDROOT
BRANCH   3   4
HETATM    4  C   UNK N   1      22.114  15.102   4.734  0.00  0.00     0.165 C 
BRANCH   4   5
HETATM    5  C   UNK N   1      23.580  14.969   5.021  0.00  0.00    -0.040 C 
HETATM    6  C   UNK N   1      23.994  14.738   6.338  0.00  0.00     0.010 C 
HETATM    7  C   UNK N   1      25.327  14.956   6.700  0.00  0.00     0.013 C 
HETATM    8  C   UNK N   1      26.228  15.460   5.750  0.00  0.00    -0.026 C 
HETATM    9  C   UNK N   1      25.827  15.575   4.416  0.00  0.00     0.013 C 
HETATM   10  C   UNK N   1      24.520  15.295   4.052  0.00  0.00     0.010 C 
BRANCH   8  11
HETATM   11  C   UNK N   1      27.474  16.111   6.186  0.00  0.00    -0.026 A 
HETATM   12  C   UNK N   1      28.694  15.880   5.537  0.00  0.00     0.013 A 
HETATM   13  C   UNK N   1      29.876  16.416   6.060  0.00  0.00     0.008 A 
HETATM   14  C   UNK N   1      29.859  17.122   7.277  0.00  0.00    -0.049 A 
HETATM   15  C   UNK N   1      28.646  17.329   7.933  0.00  0.00     0.008 A 
HETATM   16  C   UNK N   1      27.465  16.832   7.391  0.00  0.00     0.013 A 
BRANCH  14  17
HETATM   17  C   UNK N   1      31.088  17.781   7.825  0.00  0.00     0.149 C 
BRANCH  17  18
HETATM   18  C   UNK N   1      32.149  16.850   8.331  0.00  0.00     0.262 C 
HETATM   19  O   UNK N   1      31.838  15.915   9.056  0.00  0.00    -0.265 OA
BRANCH  18  20
HETATM   20  O   UNK N   1      33.423  16.991   7.895  0.00  0.00    -0.326 OA
HETATM   21  C   UNK N   1      33.718  17.497   6.648  0.00  0.00     0.213 C 
ENDBRANCH  18  20
ENDBRANCH  17  18
ENDBRANCH  14  17
ENDBRANCH   8  11
ENDBRANCH   4   5
ENDBRANCH   3   4
BRANCH   3  22
HETATM   22  C   UNK N   1      20.376  14.938   6.592  0.00  0.00     0.090 C 
HETATM   23  C   UNK N   1      20.407  13.410   6.402  0.00  0.00     0.045 C 
HETATM   24  C   UNK N   1      21.512  12.690   7.198  0.00  0.00     0.119 C 
HETATM   25  N   UNK N   1      21.759  13.230   8.553  0.00  0.00    -0.406 N 
HETATM   26  C   UNK N   1      21.642  14.678   8.744  0.00  0.00     0.119 C 
HETATM   27  C   UNK N   1      20.396  15.241   8.090  0.00  0.00     0.045 C 
BRANCH  25  28
HETATM   28  C   UNK N   1      21.248  12.438   9.672  0.00  0.00     0.193 C 
BRANCH  28  29
HETATM   29  C   UNK N   1      22.266  12.214  10.737  0.00  0.00     0.098 A 
HETATM   30  N   UNK N   1      21.944  11.940  12.011  0.00  0.00    -0.353 N 
HETATM   31  C   UNK N   1      23.119  11.823  12.653  0.00  0.00     0.106 A 
ATOM     32  HN  UNK N   1      21.009  11.841  12.407  1.00  0.00     0.166 HD
HETATM   33  C   UNK N   1      24.139  12.030  11.742  0.00  0.00     0.106 A 
HETATM   34  N   UNK N   1      23.593  12.274  10.538  0.00  0.00    -0.353 N 
HETATM   35  H   UNK N   1      24.064  12.458   9.692  0.00  0.00     0.166 HD
ENDBRANCH  28  29
ENDBRANCH  25  28
ENDBRANCH   3  22
BRANCH   1  36
HETATM   36  C   UNK N   1      22.287  18.001   5.136  0.00  0.00     0.032 A 
HETATM   37  C   UNK N   1      21.901  18.589   3.919  0.00  0.00     0.017 A 
HETATM   38  C   UNK N   1      22.779  19.375   3.181  0.00  0.00     0.008 A 
HETATM   39  C   UNK N   1      24.074  19.588   3.648  0.00  0.00    -0.058 A 
HETATM   40  C   UNK N   1      24.478  19.023   4.862  0.00  0.00     0.008 A 
HETATM   41  C   UNK N   1      23.588  18.241   5.603  0.00  0.00     0.017 A 
BRANCH  39  42
HETATM   42  C   UNK N   1      25.035  20.409   2.860  0.00  0.00     0.038 C 
BRANCH  42  43
HETATM   43  C   UNK N   1      26.289  20.771   3.660  0.00  0.00     0.005 C 
BRANCH  43  44
HETATM   44  C   UNK N   1      27.378  19.692   3.625  0.00  0.00    -0.000 C 
BRANCH  44  45
HETATM   45  C   UNK N   1      28.154  19.557   4.933  0.00  0.00    -0.005 C 
HETATM   46  C   UNK N   1      27.613  20.489   5.999  0.00  0.00     0.005 C 
ENDBRANCH  44  45
ENDBRANCH  43  44
ENDBRANCH  42  43
ENDBRANCH  39  42
ENDBRANCH   1  36
TORSDOF 14
ENDMDL
MODEL 2
REMARK VINA RESULT:      -7.4      4.931      9.046
REMARK  14 active torsions:
REMARK  status: ('A' for Active; 'I' for Inactive)
REMARK    1  A    between atoms: C_2  and  C_3 
REMARK    2  A    between atoms: C_3  and  C_4 
REMARK    3  A    between atoms: C_4  and  C_5 
REMARK    4  A    between atoms: C_5  and  C_6 
REMARK    5  A    between atoms: C_9  and  C_12 
REMARK       I    between atoms: C_12  and  N_14 
REMARK    6  A    between atoms: N_14  and  C_15 
REMARK    7  A    between atoms: N_14  and  C_33 
REMARK    8  A    between atoms: C_15  and  C_16 
REMARK    9  A    between atoms: C_19  and  C_22 
REMARK   10  A    between atoms: C_25  and  C_26 
REMARK   11  A    between atoms: C_26  and  C_27 
REMARK   12  A    between atoms: C_27  and  O_29 
REMARK   13  A    between atoms: N_36  and  C_39 
REMARK   14  A    between atoms: C_39  and  C_40 
ROOT
HETATM    1  C   UNK N   1      28.775  17.602   6.934  0.00  0.00     0.254 C 
HETATM    2  O   UNK N   1      28.329  17.572   8.075  0.00  0.00    -0.267 OA
HETATM    3  N   UNK N   1      30.057  17.147   6.701  0.00  0.00    -0.339 N 
ENDROOT
BRANCH   3   4
HETATM    4  C   UNK N   1      30.559  17.092   5.335  0.00  0.00     0.165 C 
BRANCH   4   5
HETATM    5  C   UNK N   1      29.857  16.112   4.443  0.00  0.00    -0.040 C 
HETATM    6  C   UNK N   1      29.579  16.478   3.120  0.00  0.00     0.010 C 
HETATM    7  C   UNK N   1      28.638  15.757   2.378  0.00  0.00     0.013 C 
HETATM    8  C   UNK N   1      27.938  14.704   2.986  0.00  0.00    -0.026 C 
HETATM    9  C   UNK N   1      28.309  14.280   4.265  0.00  0.00     0.013 C 
HETATM   10  C   UNK N   1      29.288  14.960   4.971  0.00  0.00     0.010 C 
BRANCH   8  11
HETATM   11  C   UNK N   1      26.667  14.234   2.413  0.00  0.00    -0.026 A 
HETATM   12  C   UNK N   1      26.414  12.874   2.191  0.00  0.00     0.013 A 
HETATM   13  C   UNK N   1      25.247  12.479   1.526  0.00  0.00     0.008 A 
HETATM   14  C   UNK N   1      24.363  13.442   1.010  0.00  0.00    -0.049 A 
HETATM   15  C   UNK N   1      24.629  14.796   1.211  0.00  0.00     0.008 A 
HETATM   16  C   UNK N   1      25.767  15.188   1.910  0.00  0.00     0.013 A 
BRANCH  14  17
HETATM   17  C   UNK N   1      23.064  13.058   0.367  0.00  0.00     0.149 C 
BRANCH  17  18
HETATM   18  C   UNK N   1      21.832  13.601   1.026  0.00  0.00     0.262 C 
HETATM   19  O   UNK N   1      21.404  13.071   2.041  0.00  0.00    -0.265 OA
BRANCH  18  20
HETATM   20  O   UNK N   1      21.269  14.737   0.550  0.00  0.00    -0.326 OA
HETATM   21  C   UNK N   1      20.816  15.735   1.385  0.00  0.00     0.213 C 
ENDBRANCH  18  20
ENDBRANCH  17  18
ENDBRANCH  14  17
ENDBRANCH   8  11
ENDBRANCH   4   5
ENDBRANCH   3   4
BRANCH   3  22
HETATM   22  C   UNK N   1      30.844  16.563   7.812  0.00  0.00     0.090 C 
HETATM   23  C   UNK N   1      31.990  15.609   7.429  0.00  0.00     0.045 C 
HETATM   24  C   UNK N   1      33.294  16.313   7.009  0.00  0.00     0.119 C 
HETATM   25  N   UNK N   1      33.627  17.526   7.787  0.00  0.00    -0.406 N 
HETATM   26  C   UNK N   1      32.522  18.385   8.222  0.00  0.00     0.119 C 
HETATM   27  C   UNK N   1      31.379  17.585   8.815  0.00  0.00     0.045 C 
BRANCH  25  28
HETATM   28  C   UNK N   1      34.703  17.395   8.769  0.00  0.00     0.193 C 
BRANCH  28  29
HETATM   29  C   UNK N   1      34.725  16.059   9.429  0.00  0.00     0.098 A 
HETATM   30  N   UNK N   1      33.959  15.754  10.489  0.00  0.00    -0.353 N 
HETATM   31  C   UNK N   1      34.275  14.483  10.796  0.00  0.00     0.106 A 
ATOM     32  HN  UNK N   1      33.282  16.354  10.959  1.00  0.00     0.166 HD
HETATM   33  C   UNK N   1      35.236  14.043   9.905  0.00  0.00     0.106 A 
HETATM   34  N   UNK N   1      35.513  15.041   9.047  0.00  0.00    -0.353 N 
HETATM   35  H   UNK N   1      36.155  15.028   8.300  0.00  0.00     0.166 HD
ENDBRANCH  28  29
ENDBRANCH  25  28
ENDBRANCH   3  22
BRANCH   1  36
HETATM   36  C   UNK N   1      27.882  18.166   5.860  0.00  0.00     0.032 A 
HETATM   37  C   UNK N   1      26.742  17.496   5.382  0.00  0.00     0.017 A 
HETATM   38  C   UNK N   1      25.965  18.025   4.357  0.00  0.00     0.008 A 
HETATM   39  C   UNK N   1      26.318  19.244   3.784  0.00  0.00    -0.058 A 
HETATM   40  C   UNK N   1      27.440  19.935   4.250  0.00  0.00     0.008 A 
HETATM   41  C   UNK N   1      28.213  19.402   5.285  0.00  0.00     0.017 A 
BRANCH  39  42
HETATM   42  C   UNK N   1      25.509  19.816   2.669  0.00  0.00     0.038 C 
BRANCH  42  43
HETATM   43  C   UNK N   1      24.418  20.767   3.166  0.00  0.00     0.005 C 
BRANCH  43  44
HETATM   44  C   UNK N   1      22.995  20.308   2.823  0.00  0.00    -0.000 C 
BRANCH  44  45
HETATM   45  C   UNK N   1      22.479  19.180   3.712  0.00  0.00    -0.005 C 
HETATM   46  C   UNK N   1      20.966  19.203   3.817  0.00  0.00     0.005 C 
ENDBRANCH  44  45
ENDBRANCH  43  44
ENDBRANCH  42  43
ENDBRANCH  39  42
ENDBRANCH   1  36
TORSDOF 14
ENDMDL
MODEL 3
REMARK VINA RESULT:      -7.3      4.194      9.603
REMARK  14 active torsions:
REMARK  status: ('A' for Active; 'I' for Inactive)
REMARK    1  A    between atoms: C_2  and  C_3 
REMARK    2  A    between atoms: C_3  and  C_4 
REMARK    3  A    between atoms: C_4  and  C_5 
REMARK    4  A    between atoms: C_5  and  C_6 
REMARK    5  A    between atoms: C_9  and  C_12 
REMARK       I    between atoms: C_12  and  N_14 
REMARK    6  A    between atoms: N_14  and  C_15 
REMARK    7  A    between atoms: N_14  and  C_33 
REMARK    8  A    between atoms: C_15  and  C_16 
REMARK    9  A    between atoms: C_19  and  C_22 
REMARK   10  A    between atoms: C_25  and  C_26 
REMARK   11  A    between atoms: C_26  and  C_27 
REMARK   12  A    between atoms: C_27  and  O_29 
REMARK   13  A    between atoms: N_36  and  C_39 
REMARK   14  A    between atoms: C_39  and  C_40 
ROOT
HETATM    1  C   UNK N   1      30.246  15.161   3.661  0.00  0.00     0.254 C 
HETATM    2  O   UNK N   1      30.888  15.034   2.625  0.00  0.00    -0.267 OA
HETATM    3  N   UNK N   1      30.892  15.592   4.803  0.00  0.00    -0.339 N 
ENDROOT
BRANCH   3   4
HETATM    4  C   UNK N   1      30.117  15.836   6.012  0.00  0.00     0.165 C 
BRANCH   4   5
HETATM    5  C   UNK N   1      29.060  16.892   5.883  0.00  0.00    -0.040 C 
HETATM    6  C   UNK N   1      27.776  16.629   6.375  0.00  0.00     0.010 C 
HETATM    7  C   UNK N   1      26.696  17.421   5.969  0.00  0.00     0.013 C 
HETATM    8  C   UNK N   1      26.902  18.441   5.029  0.00  0.00    -0.026 C 
HETATM    9  C   UNK N   1      28.205  18.763   4.638  0.00  0.00     0.013 C 
HETATM   10  C   UNK N   1      29.278  18.014   5.094  0.00  0.00     0.010 C 
BRANCH   8  11
HETATM   11  C   UNK N   1      25.768  18.978   4.260  0.00  0.00    -0.026 A 
HETATM   12  C   UNK N   1      25.900  20.100   3.433  0.00  0.00     0.013 A 
HETATM   13  C   UNK N   1      24.770  20.656   2.822  0.00  0.00     0.008 A 
HETATM   14  C   UNK N   1      23.490  20.141   3.094  0.00  0.00    -0.049 A 
HETATM   15  C   UNK N   1      23.358  19.038   3.937  0.00  0.00     0.008 A 
HETATM   16  C   UNK N   1      24.487  18.459   4.511  0.00  0.00     0.013 A 
BRANCH  14  17
HETATM   17  C   UNK N   1      22.268  20.654   2.395  0.00  0.00     0.149 C 
BRANCH  17  18
HETATM   18  C   UNK N   1      20.964  20.094   2.879  0.00  0.00     0.262 C 
HETATM   19  O   UNK N   1      20.368  20.649   3.791  0.00  0.00    -0.265 OA
BRANCH  18  20
HETATM   20  O   UNK N   1      20.409  19.043   2.230  0.00  0.00    -0.326 OA
HETATM   21  C   UNK N   1      19.374  18.313   2.770  0.00  0.00     0.213 C 
ENDBRANCH  18  20
ENDBRANCH  17  18
ENDBRANCH  14  17
ENDBRANCH   8  11
ENDBRANCH   4   5
ENDBRANCH   3   4
BRANCH   3  22
HETATM   22  C   UNK N   1      32.324  15.963   4.744  0.00  0.00     0.090 C 
HETATM   23  C   UNK N   1      32.710  17.348   5.294  0.00  0.00     0.045 C 
HETATM   24  C   UNK N   1      32.861  17.407   6.826  0.00  0.00     0.119 C 
HETATM   25  N   UNK N   1      33.487  16.215   7.438  0.00  0.00    -0.406 N 
HETATM   26  C   UNK N   1      33.182  14.906   6.853  0.00  0.00     0.119 C 
HETATM   27  C   UNK N   1      33.273  14.923   5.340  0.00  0.00     0.045 C 
BRANCH  25  28
HETATM   28  C   UNK N   1      34.873  16.362   7.881  0.00  0.00     0.193 C 
BRANCH  28  29
HETATM   29  C   UNK N   1      35.065  16.011   9.316  0.00  0.00     0.098 A 
HETATM   30  N   UNK N   1      34.956  16.908  10.309  0.00  0.00    -0.353 N 
HETATM   31  C   UNK N   1      35.211  16.218  11.435  0.00  0.00     0.106 A 
ATOM     32  HN  UNK N   1      34.729  17.899  10.228  1.00  0.00     0.166 HD
HETATM   33  C   UNK N   1      35.470  14.903  11.094  0.00  0.00     0.106 A 
HETATM   34  N   UNK N   1      35.374  14.782   9.758  0.00  0.00    -0.353 N 
HETATM   35  H   UNK N   1      35.504  13.967   9.220  0.00  0.00     0.166 HD
ENDBRANCH  28  29
ENDBRANCH  25  28
ENDBRANCH   3  22
BRANCH   1  36
HETATM   36  C   UNK N   1      28.783  14.809   3.612  0.00  0.00     0.032 A 
HETATM   37  C   UNK N   1      28.235  13.718   4.309  0.00  0.00     0.017 A 
HETATM   38  C   UNK N   1      26.886  13.393   4.207  0.00  0.00     0.008 A 
HETATM   39  C   UNK N   1      26.053  14.159   3.394  0.00  0.00    -0.058 A 
HETATM   40  C   UNK N   1      26.572  15.256   2.700  0.00  0.00     0.008 A 
HETATM   41  C   UNK N   1      27.927  15.581   2.814  0.00  0.00     0.017 A 
BRANCH  39  42
HETATM   42  C   UNK N   1      24.610  13.813   3.255  0.00  0.00     0.038 C 
BRANCH  42  43
HETATM   43  C   UNK N   1      23.697  15.029   3.423  0.00  0.00     0.005 C 
BRANCH  43  44
HETATM   44  C   UNK N   1      22.847  14.993   4.699  0.00  0.00    -0.000 C 
BRANCH  44  45
HETATM   45  C   UNK N   1      23.412  14.088   5.791  0.00  0.00    -0.005 C 
HETATM   46  C   UNK N   1      24.265  14.867   6.773  0.00  0.00     0.005 C 
ENDBRANCH  44  45
ENDBRANCH  43  44
ENDBRANCH  42  43
ENDBRANCH  39  42
ENDBRANCH   1  36
TORSDOF 14
ENDMDL
MODEL 4
REMARK VINA RESULT:      -7.0      1.310      1.549
REMARK  14 active torsions:
REMARK  status: ('A' for Active; 'I' for Inactive)
REMARK    1  A    between atoms: C_2  and  C_3 
REMARK    2  A    between atoms: C_3  and  C_4 
REMARK    3  A    between atoms: C_4  and  C_5 
REMARK    4  A    between atoms: C_5  and  C_6 
REMARK    5  A    between atoms: C_9  and  C_12 
REMARK       I    between atoms: C_12  and  N_14 
REMARK    6  A    between atoms: N_14  and  C_15 
REMARK    7  A    between atoms: N_14  and  C_33 
REMARK    8  A    between atoms: C_15  and  C_16 
REMARK    9  A    between atoms: C_19  and  C_22 
REMARK   10  A    between atoms: C_25  and  C_26 
REMARK   11  A    between atoms: C_26  and  C_27 
REMARK   12  A    between atoms: C_27  and  O_29 
REMARK   13  A    between atoms: N_36  and  C_39 
REMARK   14  A    between atoms: C_39  and  C_40 
ROOT
HETATM    1  C   UNK N   1      21.320  16.875   5.984  0.00  0.00     0.254 C 
HETATM    2  O   UNK N   1      20.840  17.268   7.041  0.00  0.00    -0.267 OA
HETATM    3  N   UNK N   1      21.148  15.555   5.618  0.00  0.00    -0.339 N 
ENDROOT
BRANCH   3   4
HETATM    4  C   UNK N   1      21.634  15.104   4.321  0.00  0.00     0.165 C 
BRANCH   4   5
HETATM    5  C   UNK N   1      23.123  14.951   4.223  0.00  0.00    -0.040 C 
HETATM    6  C   UNK N   1      23.842  14.579   5.364  0.00  0.00     0.010 C 
HETATM    7  C   UNK N   1      25.228  14.765   5.409  0.00  0.00     0.013 C 
HETATM    8  C   UNK N   1      25.878  15.377   4.327  0.00  0.00    -0.026 C 
HETATM    9  C   UNK N   1      25.165  15.636   3.154  0.00  0.00     0.013 C 
HETATM   10  C   UNK N   1      23.803  15.388   3.094  0.00  0.00     0.010 C 
BRANCH   8  11
HETATM   11  C   UNK N   1      27.206  15.985   4.511  0.00  0.00    -0.026 A 
HETATM   12  C   UNK N   1      28.020  16.325   3.423  0.00  0.00     0.013 A 
HETATM   13  C   UNK N   1      29.325  16.781   3.642  0.00  0.00     0.008 A 
HETATM   14  C   UNK N   1      29.852  16.826   4.945  0.00  0.00    -0.049 A 
HETATM   15  C   UNK N   1      29.048  16.464   6.025  0.00  0.00     0.008 A 
HETATM   16  C   UNK N   1      27.735  16.052   5.810  0.00  0.00     0.013 A 
BRANCH  14  17
HETATM   17  C   UNK N   1      31.214  17.386   5.227  0.00  0.00     0.149 C 
BRANCH  17  18
HETATM   18  C   UNK N   1      32.342  16.402   5.164  0.00  0.00     0.262 C 
HETATM   19  O   UNK N   1      32.379  15.471   5.957  0.00  0.00    -0.265 OA
BRANCH  18  20
HETATM   20  O   UNK N   1      33.250  16.492   4.163  0.00  0.00    -0.326 OA
HETATM   21  C   UNK N   1      33.117  15.788   2.988  0.00  0.00     0.213 C 
ENDBRANCH  18  20
ENDBRANCH  17  18
ENDBRANCH  14  17
ENDBRANCH   8  11
ENDBRANCH   4   5
ENDBRANCH   3   4
BRANCH   3  22
HETATM   22  C   UNK N   1      20.328  14.657   6.463  0.00  0.00     0.090 C 
HETATM   23  C   UNK N   1      20.366  13.155   6.128  0.00  0.00     0.045 C 
HETATM   24  C   UNK N   1      21.587  12.406   6.694  0.00  0.00     0.119 C 
HETATM   25  N   UNK N   1      22.009  12.829   8.047  0.00  0.00    -0.406 N 
HETATM   26  C   UNK N   1      21.888  14.250   8.388  0.00  0.00     0.119 C 
HETATM   27  C   UNK N   1      20.550  14.824   7.966  0.00  0.00     0.045 C 
BRANCH  25  28
HETATM   28  C   UNK N   1      21.678  11.923   9.145  0.00  0.00     0.193 C 
BRANCH  28  29
HETATM   29  C   UNK N   1      22.690  11.942  10.239  0.00  0.00     0.098 A 
HETATM   30  N   UNK N   1      22.361  11.901  11.540  0.00  0.00    -0.353 N 
HETATM   31  C   UNK N   1      23.532  11.953  12.200  0.00  0.00     0.106 A 
ATOM     32  HN  UNK N   1      21.426  11.843  11.942  1.00  0.00     0.166 HD
HETATM   33  C   UNK N   1      24.555  12.023  11.272  0.00  0.00     0.106 A 
HETATM   34  N   UNK N   1      24.015  12.015  10.040  0.00  0.00    -0.353 N 
HETATM   35  H   UNK N   1      24.491  12.054   9.178  0.00  0.00     0.166 HD
ENDBRANCH  28  29
ENDBRANCH  25  28
ENDBRANCH   3  22
BRANCH   1  36
HETATM   36  C   UNK N   1      22.095  17.873   5.166  0.00  0.00     0.032 A 
HETATM   37  C   UNK N   1      21.531  18.586   4.092  0.00  0.00     0.017 A 
HETATM   38  C   UNK N   1      22.288  19.468   3.328  0.00  0.00     0.008 A 
HETATM   39  C   UNK N   1      23.637  19.653   3.623  0.00  0.00    -0.058 A 
HETATM   40  C   UNK N   1      24.217  18.964   4.692  0.00  0.00     0.008 A 
HETATM   41  C   UNK N   1      23.449  18.086   5.462  0.00  0.00     0.017 A 
BRANCH  39  42
HETATM   42  C   UNK N   1      24.468  20.577   2.801  0.00  0.00     0.038 C 
BRANCH  42  43
HETATM   43  C   UNK N   1      25.935  20.144   2.737  0.00  0.00     0.005 C 
BRANCH  43  44
HETATM   44  C   UNK N   1      26.839  20.873   3.738  0.00  0.00    -0.000 C 
BRANCH  44  45
HETATM   45  C   UNK N   1      27.807  19.954   4.479  0.00  0.00    -0.005 C 
HETATM   46  C   UNK N   1      27.403  19.775   5.929  0.00  0.00     0.005 C 
ENDBRANCH  44  45
ENDBRANCH  43  44
ENDBRANCH  42  43
ENDBRANCH  39  42
ENDBRANCH   1  36
TORSDOF 14
ENDMDL
MODEL 5
REMARK VINA RESULT:      -7.0     14.113     16.175
REMARK  14 active torsions:
REMARK  status: ('A' for Active; 'I' for Inactive)
REMARK    1  A    between atoms: C_2  and  C_3 
REMARK    2  A    between atoms: C_3  and  C_4 
REMARK    3  A    between atoms: C_4  and  C_5 
REMARK    4  A    between atoms: C_5  and  C_6 
REMARK    5  A    between atoms: C_9  and  C_12 
REMARK       I    between atoms: C_12  and  N_14 
REMARK    6  A    between atoms: N_14  and  C_15 
REMARK    7  A    between atoms: N_14  and  C_33 
REMARK    8  A    between atoms: C_15  and  C_16 
REMARK    9  A    between atoms: C_19  and  C_22 
REMARK   10  A    between atoms: C_25  and  C_26 
REMARK   11  A    between atoms: C_26  and  C_27 
REMARK   12  A    between atoms: C_27  and  O_29 
REMARK   13  A    between atoms: N_36  and  C_39 
REMARK   14  A    between atoms: C_39  and  C_40 
ROOT
HETATM    1  C   UNK N   1      26.470  25.589  -7.458  0.00  0.00     0.254 C 
HETATM    2  O   UNK N   1      26.292  26.420  -8.341  0.00  0.00    -0.267 OA
HETATM    3  N   UNK N   1      26.279  25.957  -6.141  0.00  0.00    -0.339 N 
ENDROOT
BRANCH   3   4
HETATM    4  C   UNK N   1      26.396  24.950  -5.095  0.00  0.00     0.165 C 
BRANCH   4   5
HETATM    5  C   UNK N   1      27.777  24.775  -4.538  0.00  0.00    -0.040 C 
HETATM    6  C   UNK N   1      28.867  25.275  -5.260  0.00  0.00     0.010 C 
HETATM    7  C   UNK N   1      30.162  24.835  -4.966  0.00  0.00     0.013 C 
HETATM    8  C   UNK N   1      30.352  23.852  -3.984  0.00  0.00    -0.026 C 
HETATM    9  C   UNK N   1      29.269  23.449  -3.196  0.00  0.00     0.013 C 
HETATM   10  C   UNK N   1      27.998  23.938  -3.451  0.00  0.00     0.010 C 
BRANCH   8  11
HETATM   11  C   UNK N   1      31.592  23.060  -3.960  0.00  0.00    -0.026 A 
HETATM   12  C   UNK N   1      32.690  23.382  -4.768  0.00  0.00     0.013 A 
HETATM   13  C   UNK N   1      33.800  22.530  -4.812  0.00  0.00     0.008 A 
HETATM   14  C   UNK N   1      33.789  21.312  -4.108  0.00  0.00    -0.049 A 
HETATM   15  C   UNK N   1      32.684  20.983  -3.323  0.00  0.00     0.008 A 
HETATM   16  C   UNK N   1      31.598  21.850  -3.247  0.00  0.00     0.013 A 
BRANCH  14  17
HETATM   17  C   UNK N   1      34.989  20.415  -4.063  0.00  0.00     0.149 C 
BRANCH  17  18
HETATM   18  C   UNK N   1      34.866  19.134  -4.831  0.00  0.00     0.262 C 
HETATM   19  O   UNK N   1      35.450  18.134  -4.438  0.00  0.00    -0.265 OA
BRANCH  18  20
HETATM   20  O   UNK N   1      34.026  19.071  -5.891  0.00  0.00    -0.326 OA
HETATM   21  C   UNK N   1      34.451  18.673  -7.139  0.00  0.00     0.213 C 
ENDBRANCH  18  20
ENDBRANCH  17  18
ENDBRANCH  14  17
ENDBRANCH   8  11
ENDBRANCH   4   5
ENDBRANCH   3   4
BRANCH   3  22
HETATM   22  C   UNK N   1      25.794  27.318  -5.820  0.00  0.00     0.090 C 
HETATM   23  C   UNK N   1      25.086  27.506  -4.466  0.00  0.00     0.045 C 
HETATM   24  C   UNK N   1      26.038  27.670  -3.265  0.00  0.00     0.119 C 
HETATM   25  N   UNK N   1      27.251  28.472  -3.535  0.00  0.00    -0.406 N 
HETATM   26  C   UNK N   1      27.870  28.353  -4.858  0.00  0.00     0.119 C 
HETATM   27  C   UNK N   1      26.845  28.418  -5.973  0.00  0.00     0.045 C 
BRANCH  25  28
HETATM   28  C   UNK N   1      27.269  29.828  -2.988  0.00  0.00     0.193 C 
BRANCH  28  29
HETATM   29  C   UNK N   1      28.177  29.970  -1.814  0.00  0.00     0.098 A 
HETATM   30  N   UNK N   1      29.462  30.343  -1.925  0.00  0.00    -0.353 N 
HETATM   31  C   UNK N   1      29.938  30.337  -0.667  0.00  0.00     0.106 A 
ATOM     32  HN  UNK N   1      29.968  30.581  -2.777  1.00  0.00     0.166 HD
HETATM   33  C   UNK N   1      28.918  29.957   0.186  0.00  0.00     0.106 A 
HETATM   34  N   UNK N   1      27.813  29.728  -0.545  0.00  0.00    -0.353 N 
HETATM   35  H   UNK N   1      26.927  29.445  -0.219  0.00  0.00     0.166 HD
ENDBRANCH  28  29
ENDBRANCH  25  28
ENDBRANCH   3  22
BRANCH   1  36
HETATM   36  C   UNK N   1      26.913  24.214  -7.885  0.00  0.00     0.032 A 
HETATM   37  C   UNK N   1      26.183  23.049  -7.589  0.00  0.00     0.017 A 
HETATM   38  C   UNK N   1      26.644  21.790  -7.959  0.00  0.00     0.008 A 
HETATM   39  C   UNK N   1      27.857  21.671  -8.635  0.00  0.00    -0.058 A 
HETATM   40  C   UNK N   1      28.595  22.816  -8.950  0.00  0.00     0.008 A 
HETATM   41  C   UNK N   1      28.122  24.078  -8.583  0.00  0.00     0.017 A 
BRANCH  39  42
HETATM   42  C   UNK N   1      28.377  20.328  -9.020  0.00  0.00     0.038 C 
BRANCH  42  43
HETATM   43  C   UNK N   1      28.579  19.410  -7.812  0.00  0.00     0.005 C 
BRANCH  43  44
HETATM   44  C   UNK N   1      30.051  19.195  -7.438  0.00  0.00    -0.000 C 
BRANCH  44  45
HETATM   45  C   UNK N   1      30.642  20.317  -6.589  0.00  0.00    -0.005 C 
HETATM   46  C   UNK N   1      31.600  21.176  -7.392  0.00  0.00     0.005 C 
ENDBRANCH  44  45
ENDBRANCH  43  44
ENDBRANCH  42  43
ENDBRANCH  39  42
ENDBRANCH   1  36
TORSDOF 14
ENDMDL
MODEL 6
REMARK VINA RESULT:      -6.8     13.107     17.088
REMARK  14 active torsions:
REMARK  status: ('A' for Active; 'I' for Inactive)
REMARK    1  A    between atoms: C_2  and  C_3 
REMARK    2  A    between atoms: C_3  and  C_4 
REMARK    3  A    between atoms: C_4  and  C_5 
REMARK    4  A    between atoms: C_5  and  C_6 
REMARK    5  A    between atoms: C_9  and  C_12 
REMARK       I    between atoms: C_12  and  N_14 
REMARK    6  A    between atoms: N_14  and  C_15 
REMARK    7  A    between atoms: N_14  and  C_33 
REMARK    8  A    between atoms: C_15  and  C_16 
REMARK    9  A    between atoms: C_19  and  C_22 
REMARK   10  A    between atoms: C_25  and  C_26 
REMARK   11  A    between atoms: C_26  and  C_27 
REMARK   12  A    between atoms: C_27  and  O_29 
REMARK   13  A    between atoms: N_36  and  C_39 
REMARK   14  A    between atoms: C_39  and  C_40 
ROOT
HETATM    1  C   UNK N   1      35.484  13.162  12.667  0.00  0.00     0.254 C 
HETATM    2  O   UNK N   1      34.564  13.696  12.059  0.00  0.00    -0.267 OA
HETATM    3  N   UNK N   1      36.389  12.387  11.969  0.00  0.00    -0.339 N 
ENDROOT
BRANCH   3   4
HETATM    4  C   UNK N   1      37.538  11.827  12.669  0.00  0.00     0.165 C 
BRANCH   4   5
HETATM    5  C   UNK N   1      37.220  10.696  13.601  0.00  0.00    -0.040 C 
HETATM    6  C   UNK N   1      36.027   9.986  13.423  0.00  0.00     0.010 C 
HETATM    7  C   UNK N   1      35.532   9.181  14.454  0.00  0.00     0.013 C 
HETATM    8  C   UNK N   1      36.209   9.136  15.682  0.00  0.00    -0.026 C 
HETATM    9  C   UNK N   1      37.455   9.758  15.803  0.00  0.00     0.013 C 
HETATM   10  C   UNK N   1      37.970  10.502  14.754  0.00  0.00     0.010 C 
BRANCH   8  11
HETATM   11  C   UNK N   1      35.510   8.684  16.896  0.00  0.00    -0.026 A 
HETATM   12  C   UNK N   1      35.624   7.371  17.369  0.00  0.00     0.013 A 
HETATM   13  C   UNK N   1      34.843   6.947  18.451  0.00  0.00     0.008 A 
HETATM   14  C   UNK N   1      33.887   7.809  19.017  0.00  0.00    -0.049 A 
HETATM   15  C   UNK N   1      33.758   9.109  18.528  0.00  0.00     0.008 A 
HETATM   16  C   UNK N   1      34.565   9.544  17.481  0.00  0.00     0.013 A 
BRANCH  14  17
HETATM   17  C   UNK N   1      33.092   7.421  20.227  0.00  0.00     0.149 C 
BRANCH  17  18
HETATM   18  C   UNK N   1      32.256   8.510  20.828  0.00  0.00     0.262 C 
HETATM   19  O   UNK N   1      31.158   8.763  20.352  0.00  0.00    -0.265 OA
BRANCH  18  20
HETATM   20  O   UNK N   1      32.679   9.129  21.955  0.00  0.00    -0.326 OA
HETATM   21  C   UNK N   1      32.906  10.486  22.004  0.00  0.00     0.213 C 
ENDBRANCH  18  20
ENDBRANCH  17  18
ENDBRANCH  14  17
ENDBRANCH   8  11
ENDBRANCH   4   5
ENDBRANCH   3   4
BRANCH   3  22
HETATM   22  C   UNK N   1      36.281  12.274  10.497  0.00  0.00     0.090 C 
HETATM   23  C   UNK N   1      36.931  13.391   9.661  0.00  0.00     0.045 C 
HETATM   24  C   UNK N   1      38.451  13.236   9.460  0.00  0.00     0.119 C 
HETATM   25  N   UNK N   1      38.915  11.847   9.249  0.00  0.00    -0.406 N 
HETATM   26  C   UNK N   1      38.232  10.779   9.984  0.00  0.00     0.119 C 
HETATM   27  C   UNK N   1      36.724  10.925   9.931  0.00  0.00     0.045 C 
BRANCH  25  28
HETATM   28  C   UNK N   1      39.287  11.486   7.882  0.00  0.00     0.193 C 
BRANCH  28  29
HETATM   29  C   UNK N   1      39.935  12.605   7.142  0.00  0.00     0.098 A 
HETATM   30  N   UNK N   1      41.248  12.874   7.225  0.00  0.00    -0.353 N 
HETATM   31  C   UNK N   1      41.436  13.948   6.438  0.00  0.00     0.106 A 
ATOM     32  HN  UNK N   1      41.951  12.372   7.767  1.00  0.00     0.166 HD
HETATM   33  C   UNK N   1      40.220  14.308   5.889  0.00  0.00     0.106 A 
HETATM   34  N   UNK N   1      39.280  13.457   6.337  0.00  0.00    -0.353 N 
HETATM   35  H   UNK N   1      38.319  13.458   6.121  0.00  0.00     0.166 HD
ENDBRANCH  28  29
ENDBRANCH  25  28
ENDBRANCH   3  22
BRANCH   1  36
HETATM   36  C   UNK N   1      35.543  13.376  14.156  0.00  0.00     0.032 A 
HETATM   37  C   UNK N   1      36.550  14.132  14.782  0.00  0.00     0.017 A 
HETATM   38  C   UNK N   1      36.599  14.272  16.165  0.00  0.00     0.008 A 
HETATM   39  C   UNK N   1      35.636  13.650  16.956  0.00  0.00    -0.058 A 
HETATM   40  C   UNK N   1      34.618  12.902  16.356  0.00  0.00     0.008 A 
HETATM   41  C   UNK N   1      34.569  12.772  14.966  0.00  0.00     0.017 A 
BRANCH  39  42
HETATM   42  C   UNK N   1      35.687  13.770  18.441  0.00  0.00     0.038 C 
BRANCH  42  43
HETATM   43  C   UNK N   1      35.024  12.586  19.147  0.00  0.00     0.005 C 
BRANCH  43  44
HETATM   44  C   UNK N   1      35.857  12.006  20.297  0.00  0.00    -0.000 C 
BRANCH  44  45
HETATM   45  C   UNK N   1      36.581  10.710  19.942  0.00  0.00    -0.005 C 
HETATM   46  C   UNK N   1      36.512   9.706  21.078  0.00  0.00     0.005 C 
ENDBRANCH  44  45
ENDBRANCH  43  44
ENDBRANCH  42  43
ENDBRANCH  39  42
ENDBRANCH   1  36
TORSDOF 14
ENDMDL
MODEL 7
REMARK VINA RESULT:      -6.7      4.107      9.410
REMARK  14 active torsions:
REMARK  status: ('A' for Active; 'I' for Inactive)
REMARK    1  A    between atoms: C_2  and  C_3 
REMARK    2  A    between atoms: C_3  and  C_4 
REMARK    3  A    between atoms: C_4  and  C_5 
REMARK    4  A    between atoms: C_5  and  C_6 
REMARK    5  A    between atoms: C_9  and  C_12 
REMARK       I    between atoms: C_12  and  N_14 
REMARK    6  A    between atoms: N_14  and  C_15 
REMARK    7  A    between atoms: N_14  and  C_33 
REMARK    8  A    between atoms: C_15  and  C_16 
REMARK    9  A    between atoms: C_19  and  C_22 
REMARK   10  A    between atoms: C_25  and  C_26 
REMARK   11  A    between atoms: C_26  and  C_27 
REMARK   12  A    between atoms: C_27  and  O_29 
REMARK   13  A    between atoms: N_36  and  C_39 
REMARK   14  A    between atoms: C_39  and  C_40 
ROOT
HETATM    1  C   UNK N   1      30.332  13.765   4.789  0.00  0.00     0.254 C 
HETATM    2  O   UNK N   1      30.804  12.784   5.352  0.00  0.00    -0.267 OA
HETATM    3  N   UNK N   1      30.989  14.975   4.885  0.00  0.00    -0.339 N 
ENDROOT
BRANCH   3   4
HETATM    4  C   UNK N   1      30.485  16.122   4.141  0.00  0.00     0.165 C 
BRANCH   4   5
HETATM    5  C   UNK N   1      29.141  16.619   4.581  0.00  0.00    -0.040 C 
HETATM    6  C   UNK N   1      28.807  16.556   5.939  0.00  0.00     0.010 C 
HETATM    7  C   UNK N   1      27.470  16.672   6.337  0.00  0.00     0.013 C 
HETATM    8  C   UNK N   1      26.468  16.797   5.363  0.00  0.00    -0.026 C 
HETATM    9  C   UNK N   1      26.829  16.975   4.024  0.00  0.00     0.013 C 
HETATM   10  C   UNK N   1      28.160  16.922   3.646  0.00  0.00     0.010 C 
BRANCH   8  11
HETATM   11  C   UNK N   1      25.071  16.475   5.695  0.00  0.00    -0.026 A 
HETATM   12  C   UNK N   1      24.720  15.281   6.337  0.00  0.00     0.013 A 
HETATM   13  C   UNK N   1      23.371  14.955   6.518  0.00  0.00     0.008 A 
HETATM   14  C   UNK N   1      22.363  15.783   5.992  0.00  0.00    -0.049 A 
HETATM   15  C   UNK N   1      22.716  16.959   5.332  0.00  0.00     0.008 A 
HETATM   16  C   UNK N   1      24.057  17.305   5.189  0.00  0.00     0.013 A 
BRANCH  14  17
HETATM   17  C   UNK N   1      20.910  15.511   6.237  0.00  0.00     0.149 C 
BRANCH  17  18
HETATM   18  C   UNK N   1      20.551  15.139   7.644  0.00  0.00     0.262 C 
HETATM   19  O   UNK N   1      20.274  13.978   7.912  0.00  0.00    -0.265 OA
BRANCH  18  20
HETATM   20  O   UNK N   1      20.641  16.070   8.623  0.00  0.00    -0.326 OA
HETATM   21  C   UNK N   1      19.886  17.221   8.611  0.00  0.00     0.213 C 
ENDBRANCH  18  20
ENDBRANCH  17  18
ENDBRANCH  14  17
ENDBRANCH   8  11
ENDBRANCH   4   5
ENDBRANCH   3   4
BRANCH   3  22
HETATM   22  C   UNK N   1      32.285  15.055   5.597  0.00  0.00     0.090 C 
HETATM   23  C   UNK N   1      33.282  16.125   5.115  0.00  0.00     0.045 C 
HETATM   24  C   UNK N   1      33.010  17.541   5.658  0.00  0.00     0.119 C 
HETATM   25  N   UNK N   1      32.556  17.594   7.065  0.00  0.00    -0.406 N 
HETATM   26  C   UNK N   1      31.676  16.523   7.541  0.00  0.00     0.119 C 
HETATM   27  C   UNK N   1      32.167  15.153   7.118  0.00  0.00     0.045 C 
BRANCH  25  28
HETATM   28  C   UNK N   1      33.541  18.038   8.051  0.00  0.00     0.193 C 
BRANCH  28  29
HETATM   29  C   UNK N   1      34.197  16.907   8.766  0.00  0.00     0.098 A 
HETATM   30  N   UNK N   1      35.143  16.138   8.205  0.00  0.00    -0.353 N 
HETATM   31  C   UNK N   1      35.465  15.235   9.148  0.00  0.00     0.106 A 
ATOM     32  HN  UNK N   1      35.533  16.220   7.266  1.00  0.00     0.166 HD
HETATM   33  C   UNK N   1      34.700  15.483  10.272  0.00  0.00     0.106 A 
HETATM   34  N   UNK N   1      33.904  16.538  10.023  0.00  0.00    -0.353 N 
HETATM   35  H   UNK N   1      33.249  16.951  10.632  0.00  0.00     0.166 HD
ENDBRANCH  28  29
ENDBRANCH  25  28
ENDBRANCH   3  22
BRANCH   1  36
HETATM   36  C   UNK N   1      29.036  13.576   4.045  0.00  0.00     0.032 A 
HETATM   37  C   UNK N   1      27.807  13.355   4.692  0.00  0.00     0.017 A 
HETATM   38  C   UNK N   1      26.637  13.140   3.973  0.00  0.00     0.008 A 
HETATM   39  C   UNK N   1      26.673  13.137   2.580  0.00  0.00    -0.058 A 
HETATM   40  C   UNK N   1      27.882  13.365   1.914  0.00  0.00     0.008 A 
HETATM   41  C   UNK N   1      29.053  13.589   2.643  0.00  0.00     0.017 A 
BRANCH  39  42
HETATM   42  C   UNK N   1      25.433  12.885   1.793  0.00  0.00     0.038 C 
BRANCH  42  43
HETATM   43  C   UNK N   1      24.752  14.180   1.344  0.00  0.00     0.005 C 
BRANCH  43  44
HETATM   44  C   UNK N   1      24.009  14.910   2.468  0.00  0.00    -0.000 C 
BRANCH  44  45
HETATM   45  C   UNK N   1      22.490  14.780   2.390  0.00  0.00    -0.005 C 
HETATM   46  C   UNK N   1      22.004  13.514   3.069  0.00  0.00     0.005 C 
ENDBRANCH  44  45
ENDBRANCH  43  44
ENDBRANCH  42  43
ENDBRANCH  39  42
ENDBRANCH   1  36
TORSDOF 14
ENDMDL
MODEL 8
REMARK VINA RESULT:      -6.7      4.385      9.040
REMARK  14 active torsions:
REMARK  status: ('A' for Active; 'I' for Inactive)
REMARK    1  A    between atoms: C_2  and  C_3 
REMARK    2  A    between atoms: C_3  and  C_4 
REMARK    3  A    between atoms: C_4  and  C_5 
REMARK    4  A    between atoms: C_5  and  C_6 
REMARK    5  A    between atoms: C_9  and  C_12 
REMARK       I    between atoms: C_12  and  N_14 
REMARK    6  A    between atoms: N_14  and  C_15 
REMARK    7  A    between atoms: N_14  and  C_33 
REMARK    8  A    between atoms: C_15  and  C_16 
REMARK    9  A    between atoms: C_19  and  C_22 
REMARK   10  A    between atoms: C_25  and  C_26 
REMARK   11  A    between atoms: C_26  and  C_27 
REMARK   12  A    between atoms: C_27  and  O_29 
REMARK   13  A    between atoms: N_36  and  C_39 
REMARK   14  A    between atoms: C_39  and  C_40 
ROOT
HETATM    1  C   UNK N   1      28.927  17.928   6.643  0.00  0.00     0.254 C 
HETATM    2  O   UNK N   1      28.736  18.166   7.830  0.00  0.00    -0.267 OA
HETATM    3  N   UNK N   1      30.024  17.173   6.278  0.00  0.00    -0.339 N 
ENDROOT
BRANCH   3   4
HETATM    4  C   UNK N   1      30.205  16.807   4.879  0.00  0.00     0.165 C 
BRANCH   4   5
HETATM    5  C   UNK N   1      29.123  15.941   4.308  0.00  0.00    -0.040 C 
HETATM    6  C   UNK N   1      28.581  16.270   3.060  0.00  0.00     0.010 C 
HETATM    7  C   UNK N   1      27.359  15.716   2.660  0.00  0.00     0.013 C 
HETATM    8  C   UNK N   1      26.660  14.876   3.540  0.00  0.00    -0.026 C 
HETATM    9  C   UNK N   1      27.269  14.469   4.730  0.00  0.00     0.013 C 
HETATM   10  C   UNK N   1      28.509  14.972   5.090  0.00  0.00     0.010 C 
BRANCH   8  11
HETATM   11  C   UNK N   1      25.218  14.647   3.354  0.00  0.00    -0.026 A 
HETATM   12  C   UNK N   1      24.317  15.707   3.189  0.00  0.00     0.013 A 
HETATM   13  C   UNK N   1      22.941  15.454   3.145  0.00  0.00     0.008 A 
HETATM   14  C   UNK N   1      22.452  14.150   3.343  0.00  0.00    -0.049 A 
HETATM   15  C   UNK N   1      23.351  13.101   3.531  0.00  0.00     0.008 A 
HETATM   16  C   UNK N   1      24.721  13.346   3.533  0.00  0.00     0.013 A 
BRANCH  14  17
HETATM   17  C   UNK N   1      20.994  13.827   3.220  0.00  0.00     0.149 C 
BRANCH  17  18
HETATM   18  C   UNK N   1      20.117  14.958   2.774  0.00  0.00     0.262 C 
HETATM   19  O   UNK N   1      19.608  15.695   3.608  0.00  0.00    -0.265 OA
BRANCH  18  20
HETATM   20  O   UNK N   1      19.984  15.217   1.452  0.00  0.00    -0.326 OA
HETATM   21  C   UNK N   1      20.176  16.476   0.929  0.00  0.00     0.213 C 
ENDBRANCH  18  20
ENDBRANCH  17  18
ENDBRANCH  14  17
ENDBRANCH   8  11
ENDBRANCH   4   5
ENDBRANCH   3   4
BRANCH   3  22
HETATM   22  C   UNK N   1      30.907  16.603   7.321  0.00  0.00     0.090 C 
HETATM   23  C   UNK N   1      31.440  15.179   7.083  0.00  0.00     0.045 C 
HETATM   24  C   UNK N   1      32.663  15.103   6.149  0.00  0.00     0.119 C 
HETATM   25  N   UNK N   1      33.645  16.196   6.315  0.00  0.00    -0.406 N 
HETATM   26  C   UNK N   1      33.134  17.533   6.628  0.00  0.00     0.119 C 
HETATM   27  C   UNK N   1      32.080  17.500   7.717  0.00  0.00     0.045 C 
BRANCH  25  28
HETATM   28  C   UNK N   1      34.886  15.855   7.009  0.00  0.00     0.193 C 
BRANCH  28  29
HETATM   29  C   UNK N   1      34.661  15.044   8.239  0.00  0.00     0.098 A 
HETATM   30  N   UNK N   1      34.816  13.711   8.274  0.00  0.00    -0.353 N 
HETATM   31  C   UNK N   1      34.509  13.356   9.534  0.00  0.00     0.106 A 
ATOM     32  HN  UNK N   1      35.104  13.100   7.511  1.00  0.00     0.166 HD
HETATM   33  C   UNK N   1      34.173  14.495  10.242  0.00  0.00     0.106 A 
HETATM   34  N   UNK N   1      34.272  15.554   9.418  0.00  0.00    -0.353 N 
HETATM   35  H   UNK N   1      34.097  16.499   9.634  0.00  0.00     0.166 HD
ENDBRANCH  28  29
ENDBRANCH  25  28
ENDBRANCH   3  22
BRANCH   1  36
HETATM   36  C   UNK N   1      27.947  18.507   5.658  0.00  0.00     0.032 A 
HETATM   37  C   UNK N   1      28.275  19.551   4.775  0.00  0.00     0.017 A 
HETATM   38  C   UNK N   1      27.333  20.094   3.908  0.00  0.00     0.008 A 
HETATM   39  C   UNK N   1      26.030  19.600   3.910  0.00  0.00    -0.058 A 
HETATM   40  C   UNK N   1      25.682  18.554   4.770  0.00  0.00     0.008 A 
HETATM   41  C   UNK N   1      26.636  18.008   5.633  0.00  0.00     0.017 A 
BRANCH  39  42
HETATM   42  C   UNK N   1      25.001  20.183   3.003  0.00  0.00     0.038 C 
BRANCH  42  43
HETATM   43  C   UNK N   1      23.576  19.811   3.419  0.00  0.00     0.005 C 
BRANCH  43  44
HETATM   44  C   UNK N   1      22.489  20.559   2.638  0.00  0.00    -0.000 C 
BRANCH  44  45
HETATM   45  C   UNK N   1      21.067  20.165   3.030  0.00  0.00    -0.005 C 
HETATM   46  C   UNK N   1      21.041  18.843   3.772  0.00  0.00     0.005 C 
ENDBRANCH  44  45
ENDBRANCH  43  44
ENDBRANCH  42  43
ENDBRANCH  39  42
ENDBRANCH   1  36
TORSDOF 14
ENDMDL
MODEL 9
REMARK VINA RESULT:      -6.6      5.746     10.393
REMARK  14 active torsions:
REMARK  status: ('A' for Active; 'I' for Inactive)
REMARK    1  A    between atoms: C_2  and  C_3 
REMARK    2  A    between atoms: C_3  and  C_4 
REMARK    3  A    between atoms: C_4  and  C_5 
REMARK    4  A    between atoms: C_5  and  C_6 
REMARK    5  A    between atoms: C_9  and  C_12 
REMARK       I    between atoms: C_12  and  N_14 
REMARK    6  A    between atoms: N_14  and  C_15 
REMARK    7  A    between atoms: N_14  and  C_33 
REMARK    8  A    between atoms: C_15  and  C_16 
REMARK    9  A    between atoms: C_19  and  C_22 
REMARK   10  A    between atoms: C_25  and  C_26 
REMARK   11  A    between atoms: C_26  and  C_27 
REMARK   12  A    between atoms: C_27  and  O_29 
REMARK   13  A    between atoms: N_36  and  C_39 
REMARK   14  A    between atoms: C_39  and  C_40 
ROOT
HETATM    1  C   UNK N   1      31.627  13.598   4.956  0.00  0.00     0.254 C 
HETATM    2  O   UNK N   1      30.922  12.598   4.893  0.00  0.00    -0.267 OA
HETATM    3  N   UNK N   1      31.069  14.831   4.685  0.00  0.00    -0.339 N 
ENDROOT
BRANCH   3   4
HETATM    4  C   UNK N   1      31.877  16.032   4.850  0.00  0.00     0.165 C 
BRANCH   4   5
HETATM    5  C   UNK N   1      32.398  16.257   6.238  0.00  0.00    -0.040 C 
HETATM    6  C   UNK N   1      33.752  16.571   6.410  0.00  0.00     0.010 C 
HETATM    7  C   UNK N   1      34.344  16.442   7.671  0.00  0.00     0.013 C 
HETATM    8  C   UNK N   1      33.588  15.945   8.743  0.00  0.00    -0.026 C 
HETATM    9  C   UNK N   1      32.213  15.747   8.580  0.00  0.00     0.013 C 
HETATM   10  C   UNK N   1      31.620  15.938   7.343  0.00  0.00     0.010 C 
BRANCH   8  11
HETATM   11  C   UNK N   1      34.261  15.383   9.925  0.00  0.00    -0.026 A 
HETATM   12  C   UNK N   1      35.069  16.168  10.758  0.00  0.00     0.013 A 
HETATM   13  C   UNK N   1      35.793  15.568  11.795  0.00  0.00     0.008 A 
HETATM   14  C   UNK N   1      35.775  14.172  11.959  0.00  0.00    -0.049 A 
HETATM   15  C   UNK N   1      34.989  13.391  11.113  0.00  0.00     0.008 A 
HETATM   16  C   UNK N   1      34.235  13.991  10.109  0.00  0.00     0.013 A 
BRANCH  14  17
HETATM   17  C   UNK N   1      36.470  13.503  13.107  0.00  0.00     0.149 C 
BRANCH  17  18
HETATM   18  C   UNK N   1      35.592  12.688  14.007  0.00  0.00     0.262 C 
HETATM   19  O   UNK N   1      35.716  11.472  14.036  0.00  0.00    -0.265 OA
BRANCH  18  20
HETATM   20  O   UNK N   1      34.743  13.316  14.856  0.00  0.00    -0.326 OA
HETATM   21  C   UNK N   1      34.598  12.923  16.168  0.00  0.00     0.213 C 
ENDBRANCH  18  20
ENDBRANCH  17  18
ENDBRANCH  14  17
ENDBRANCH   8  11
ENDBRANCH   4   5
ENDBRANCH   3   4
BRANCH   3  22
HETATM   22  C   UNK N   1      29.621  14.937   4.396  0.00  0.00     0.090 C 
HETATM   23  C   UNK N   1      28.676  15.063   5.605  0.00  0.00     0.045 C 
HETATM   24  C   UNK N   1      28.563  16.488   6.181  0.00  0.00     0.119 C 
HETATM   25  N   UNK N   1      28.555  17.570   5.173  0.00  0.00    -0.406 N 
HETATM   26  C   UNK N   1      29.392  17.403   3.982  0.00  0.00     0.119 C 
HETATM   27  C   UNK N   1      29.255  16.019   3.380  0.00  0.00     0.045 C 
BRANCH  25  28
HETATM   28  C   UNK N   1      27.263  18.204   4.910  0.00  0.00     0.193 C 
BRANCH  28  29
HETATM   29  C   UNK N   1      27.115  19.525   5.585  0.00  0.00     0.098 A 
HETATM   30  N   UNK N   1      26.808  19.650   6.886  0.00  0.00    -0.353 N 
HETATM   31  C   UNK N   1      26.751  20.975   7.107  0.00  0.00     0.106 A 
ATOM     32  HN  UNK N   1      26.652  18.902   7.562  1.00  0.00     0.166 HD
HETATM   33  C   UNK N   1      27.030  21.629   5.921  0.00  0.00     0.106 A 
HETATM   34  N   UNK N   1      27.259  20.708   4.968  0.00  0.00    -0.353 N 
HETATM   35  H   UNK N   1      27.484  20.868   4.023  0.00  0.00     0.166 HD
ENDBRANCH  28  29
ENDBRANCH  25  28
ENDBRANCH   3  22
BRANCH   1  36
HETATM   36  C   UNK N   1      33.078  13.397   5.307  0.00  0.00     0.032 A 
HETATM   37  C   UNK N   1      34.129  13.716   4.430  0.00  0.00     0.017 A 
HETATM   38  C   UNK N   1      35.456  13.476   4.768  0.00  0.00     0.008 A 
HETATM   39  C   UNK N   1      35.760  12.903   6.001  0.00  0.00    -0.058 A 
HETATM   40  C   UNK N   1      34.733  12.587   6.895  0.00  0.00     0.008 A 
HETATM   41  C   UNK N   1      33.402  12.839   6.552  0.00  0.00     0.017 A 
BRANCH  39  42
HETATM   42  C   UNK N   1      37.176  12.618   6.372  0.00  0.00     0.038 C 
BRANCH  42  43
HETATM   43  C   UNK N   1      37.399  12.636   7.886  0.00  0.00     0.005 C 
BRANCH  43  44
HETATM   44  C   UNK N   1      37.513  14.046   8.478  0.00  0.00    -0.000 C 
BRANCH  44  45
HETATM   45  C   UNK N   1      38.493  14.148   9.643  0.00  0.00    -0.005 C 
HETATM   46  C   UNK N   1      38.827  12.782  10.211  0.00  0.00     0.005 C 
ENDBRANCH  44  45
ENDBRANCH  43  44
ENDBRANCH  42  43
ENDBRANCH  39  42
ENDBRANCH   1  36
TORSDOF 14
ENDMDL
