MODEL 1
REMARK VINA RESULT:      -4.9      0.000      0.000
REMARK  5 active torsions:
REMARK  status: ('A' for Active; 'I' for Inactive)
REMARK    1  A    between atoms: C_3  and  C_2 
REMARK    2  A    between atoms: O_8  and  C_2 
REMARK    3  A    between atoms: C_4  and  O_9 
REMARK    4  A    between atoms: C_6  and  S_13 
REMARK    5  A    between atoms: C_7  and  O_11 
ROOT
HETATM    1  C   UNK N   1      42.394  21.118   3.156  0.00  0.00     0.164 C 
HETATM    2  C   UNK N   1      44.753  22.120   3.149  0.00  0.00     0.168 C 
HETATM    3  C   UNK N   1      43.904  23.386   3.067  0.00  0.00     0.203 C 
HETATM    4  C   UNK N   1      43.875  20.936   3.627  0.00  0.00     0.109 C 
HETATM    5  C   UNK N   1      42.816  23.118   1.980  0.00  0.00     0.288 C 
HETATM    6  O   UNK N   1      43.333  23.655   4.316  0.00  0.00    -0.388 OA
HETATM    7  O   UNK N   1      42.335  21.768   1.906  0.00  0.00    -0.350 OA
HETATM    8  H   UNK N   1      42.994  23.972   5.169  0.00  0.00     0.210 HD
ENDROOT
BRANCH   2   9
HETATM    9  O   UNK N   1      45.854  22.289   3.992  0.00  0.00    -0.392 OA
HETATM   10  H   UNK N   1      46.765  22.042   3.769  0.00  0.00     0.210 HD
ENDBRANCH   2   9
BRANCH   5  11
HETATM   11  O   UNK N   1      41.753  24.013   2.106  0.00  0.00    -0.369 OA
HETATM   12  H   UNK N   1      40.906  23.842   2.544  0.00  0.00     0.212 HD
ENDBRANCH   5  11
BRANCH   4  13
HETATM   13  S   UNK N   1      44.663  19.373   3.062  0.00  0.00    -0.163 SA
HETATM   14  C   UNK N   1      45.107  19.994   1.408  0.00  0.00     0.090 C 
ENDBRANCH   4  13
BRANCH   1  15
HETATM   15  C   UNK N   1      41.605  19.813   3.095  0.00  0.00     0.197 C 
BRANCH  15  16
HETATM   16  O   UNK N   1      40.614  19.784   4.077  0.00  0.00    -0.398 OA
HETATM   17  H   UNK N   1      40.464  19.874   5.031  0.00  0.00     0.209 HD
ENDBRANCH  15  16
ENDBRANCH   1  15
TORSDOF 5
ENDMDL
MODEL 2
REMARK VINA RESULT:      -4.8     11.052     13.141
REMARK  5 active torsions:
REMARK  status: ('A' for Active; 'I' for Inactive)
REMARK    1  A    between atoms: C_3  and  C_2 
REMARK    2  A    between atoms: O_8  and  C_2 
REMARK    3  A    between atoms: C_4  and  O_9 
REMARK    4  A    between atoms: C_6  and  S_13 
REMARK    5  A    between atoms: C_7  and  O_11 
ROOT
HETATM    1  C   UNK N   1      34.213  16.945   9.032  0.00  0.00     0.164 C 
HETATM    2  C   UNK N   1      33.523  14.477   9.011  0.00  0.00     0.168 C 
HETATM    3  C   UNK N   1      34.361  14.530  10.286  0.00  0.00     0.203 C 
HETATM    4  C   UNK N   1      33.120  15.914   8.595  0.00  0.00     0.109 C 
HETATM    5  C   UNK N   1      35.661  15.314   9.928  0.00  0.00     0.288 C 
HETATM    6  O   UNK N   1      33.637  15.163  11.303  0.00  0.00    -0.388 OA
HETATM    7  O   UNK N   1      35.501  16.375   8.974  0.00  0.00    -0.350 OA
HETATM    8  H   UNK N   1      33.162  15.487  12.086  0.00  0.00     0.210 HD
ENDROOT
BRANCH   2   9
HETATM    9  O   UNK N   1      32.390  13.674   9.168  0.00  0.00    -0.392 OA
HETATM   10  H   UNK N   1      32.182  13.161   9.963  0.00  0.00     0.210 HD
ENDBRANCH   2   9
BRANCH   5  11
HETATM   11  O   UNK N   1      36.297  15.779  11.080  0.00  0.00    -0.369 OA
HETATM   12  H   UNK N   1      35.866  16.055  11.903  0.00  0.00     0.212 HD
ENDBRANCH   5  11
BRANCH   4  13
HETATM   13  S   UNK N   1      32.761  15.910   6.792  0.00  0.00    -0.163 SA
HETATM   14  C   UNK N   1      31.007  16.370   6.966  0.00  0.00     0.090 C 
ENDBRANCH   4  13
BRANCH   1  15
HETATM   15  C   UNK N   1      34.189  18.243   8.228  0.00  0.00     0.197 C 
BRANCH  15  16
HETATM   16  O   UNK N   1      35.267  19.060   8.570  0.00  0.00    -0.398 OA
HETATM   17  H   UNK N   1      35.605  19.650   9.263  0.00  0.00     0.209 HD
ENDBRANCH  15  16
ENDBRANCH   1  15
TORSDOF 5
ENDMDL
MODEL 3
REMARK VINA RESULT:      -4.7     21.197     22.828
REMARK  5 active torsions:
REMARK  status: ('A' for Active; 'I' for Inactive)
REMARK    1  A    between atoms: C_3  and  C_2 
REMARK    2  A    between atoms: O_8  and  C_2 
REMARK    3  A    between atoms: C_4  and  O_9 
REMARK    4  A    between atoms: C_6  and  S_13 
REMARK    5  A    between atoms: C_7  and  O_11 
ROOT
HETATM    1  C   UNK N   1      21.931  18.537   3.494  0.00  0.00     0.164 C 
HETATM    2  C   UNK N   1      19.521  18.696   2.638  0.00  0.00     0.168 C 
HETATM    3  C   UNK N   1      20.114  19.982   2.067  0.00  0.00     0.203 C 
HETATM    4  C   UNK N   1      20.666  17.734   3.046  0.00  0.00     0.109 C 
HETATM    5  C   UNK N   1      20.918  20.649   3.226  0.00  0.00     0.288 C 
HETATM    6  O   UNK N   1      20.933  19.682   0.973  0.00  0.00    -0.388 OA
HETATM    7  O   UNK N   1      21.570  19.743   4.129  0.00  0.00    -0.350 OA
HETATM    8  H   UNK N   1      21.423  19.568   0.143  0.00  0.00     0.210 HD
ENDROOT
BRANCH   2   9
HETATM    9  O   UNK N   1      18.657  18.076   1.731  0.00  0.00    -0.392 OA
HETATM   10  H   UNK N   1      18.051  18.544   1.136  0.00  0.00     0.210 HD
ENDBRANCH   2   9
BRANCH   5  11
HETATM   11  O   UNK N   1      21.825  21.586   2.729  0.00  0.00    -0.369 OA
HETATM   12  H   UNK N   1      22.639  21.394   2.238  0.00  0.00     0.212 HD
ENDBRANCH   5  11
BRANCH   4  13
HETATM   13  S   UNK N   1      20.014  16.575   4.317  0.00  0.00    -0.163 SA
HETATM   14  C   UNK N   1      19.945  15.129   3.211  0.00  0.00     0.090 C 
ENDBRANCH   4  13
BRANCH   1  15
HETATM   15  C   UNK N   1      22.873  17.743   4.397  0.00  0.00     0.197 C 
BRANCH  15  16
HETATM   16  O   UNK N   1      22.953  18.322   5.664  0.00  0.00    -0.398 OA
HETATM   17  H   UNK N   1      22.953  19.173   6.130  0.00  0.00     0.209 HD
ENDBRANCH  15  16
ENDBRANCH   1  15
TORSDOF 5
ENDMDL
MODEL 4
REMARK VINA RESULT:      -4.5     11.061     12.140
REMARK  5 active torsions:
REMARK  status: ('A' for Active; 'I' for Inactive)
REMARK    1  A    between atoms: C_3  and  C_2 
REMARK    2  A    between atoms: O_8  and  C_2 
REMARK    3  A    between atoms: C_4  and  O_9 
REMARK    4  A    between atoms: C_6  and  S_13 
REMARK    5  A    between atoms: C_7  and  O_11 
ROOT
HETATM    1  C   UNK N   1      34.249  16.091   9.325  0.00  0.00     0.164 C 
HETATM    2  C   UNK N   1      34.412  15.823   6.782  0.00  0.00     0.168 C 
HETATM    3  C   UNK N   1      33.712  17.176   6.883  0.00  0.00     0.203 C 
HETATM    4  C   UNK N   1      35.067  15.475   8.143  0.00  0.00     0.109 C 
HETATM    5  C   UNK N   1      32.576  17.007   7.940  0.00  0.00     0.288 C 
HETATM    6  O   UNK N   1      34.632  18.159   7.266  0.00  0.00    -0.388 OA
HETATM    7  O   UNK N   1      32.871  16.121   9.030  0.00  0.00    -0.350 OA
HETATM    8  H   UNK N   1      35.226  18.912   7.416  0.00  0.00     0.210 HD
ENDROOT
BRANCH   2   9
HETATM    9  O   UNK N   1      35.365  15.808   5.759  0.00  0.00    -0.392 OA
HETATM   10  H   UNK N   1      35.601  15.028   5.235  0.00  0.00     0.210 HD
ENDBRANCH   2   9
BRANCH   5  11
HETATM   11  O   UNK N   1      32.147  18.247   8.415  0.00  0.00    -0.369 OA
HETATM   12  H   UNK N   1      31.608  18.405   9.205  0.00  0.00     0.212 HD
ENDBRANCH   5  11
BRANCH   4  13
HETATM   13  S   UNK N   1      35.267  13.649   8.231  0.00  0.00    -0.163 SA
HETATM   14  C   UNK N   1      37.081  13.684   8.401  0.00  0.00     0.090 C 
ENDBRANCH   4  13
BRANCH   1  15
HETATM   15  C   UNK N   1      34.474  15.385  10.660  0.00  0.00     0.197 C 
BRANCH  15  16
HETATM   16  O   UNK N   1      33.268  14.919  11.186  0.00  0.00    -0.398 OA
HETATM   17  H   UNK N   1      32.655  15.022  11.931  0.00  0.00     0.209 HD
ENDBRANCH  15  16
ENDBRANCH   1  15
TORSDOF 5
ENDMDL
MODEL 5
REMARK VINA RESULT:      -4.5     12.201     13.819
REMARK  5 active torsions:
REMARK  status: ('A' for Active; 'I' for Inactive)
REMARK    1  A    between atoms: C_3  and  C_2 
REMARK    2  A    between atoms: O_8  and  C_2 
REMARK    3  A    between atoms: C_4  and  O_9 
REMARK    4  A    between atoms: C_6  and  S_13 
REMARK    5  A    between atoms: C_7  and  O_11 
ROOT
HETATM    1  C   UNK N   1      36.182  14.320  12.835  0.00  0.00     0.164 C 
HETATM    2  C   UNK N   1      36.520  13.619  10.393  0.00  0.00     0.168 C 
HETATM    3  C   UNK N   1      36.231  15.109  10.226  0.00  0.00     0.203 C 
HETATM    4  C   UNK N   1      36.905  13.327  11.866  0.00  0.00     0.109 C 
HETATM    5  C   UNK N   1      34.992  15.421  11.123  0.00  0.00     0.288 C 
HETATM    6  O   UNK N   1      37.351  15.855  10.612  0.00  0.00    -0.388 OA
HETATM    7  O   UNK N   1      34.908  14.672  12.345  0.00  0.00    -0.350 OA
HETATM    8  H   UNK N   1      38.117  16.434  10.751  0.00  0.00     0.210 HD
ENDROOT
BRANCH   2   9
HETATM    9  O   UNK N   1      37.528  13.186   9.526  0.00  0.00    -0.392 OA
HETATM   10  H   UNK N   1      37.659  13.515   8.624  0.00  0.00     0.210 HD
ENDBRANCH   2   9
BRANCH   5  11
HETATM   11  O   UNK N   1      34.891  16.789  11.375  0.00  0.00    -0.369 OA
HETATM   12  H   UNK N   1      34.175  17.234  11.853  0.00  0.00     0.212 HD
ENDBRANCH   5  11
BRANCH   4  13
HETATM   13  S   UNK N   1      36.563  11.552  12.206  0.00  0.00    -0.163 SA
HETATM   14  C   UNK N   1      35.028  11.483  11.227  0.00  0.00     0.090 C 
ENDBRANCH   4  13
BRANCH   1  15
HETATM   15  C   UNK N   1      36.057  13.800  14.265  0.00  0.00     0.197 C 
BRANCH  15  16
HETATM   16  O   UNK N   1      37.193  14.118  15.011  0.00  0.00    -0.398 OA
HETATM   17  H   UNK N   1      37.671  14.856  15.421  0.00  0.00     0.209 HD
ENDBRANCH  15  16
ENDBRANCH   1  15
TORSDOF 5
ENDMDL
MODEL 6
REMARK VINA RESULT:      -4.4     11.411     13.008
REMARK  5 active torsions:
REMARK  status: ('A' for Active; 'I' for Inactive)
REMARK    1  A    between atoms: C_3  and  C_2 
REMARK    2  A    between atoms: O_8  and  C_2 
REMARK    3  A    between atoms: C_4  and  O_9 
REMARK    4  A    between atoms: C_6  and  S_13 
REMARK    5  A    between atoms: C_7  and  O_11 
ROOT
HETATM    1  C   UNK N   1      33.641  16.203   8.346  0.00  0.00     0.164 C 
HETATM    2  C   UNK N   1      34.048  13.856   9.292  0.00  0.00     0.168 C 
HETATM    3  C   UNK N   1      34.222  14.706  10.548  0.00  0.00     0.203 C 
HETATM    4  C   UNK N   1      33.310  14.681   8.207  0.00  0.00     0.109 C 
HETATM    5  C   UNK N   1      35.135  15.907  10.146  0.00  0.00     0.288 C 
HETATM    6  O   UNK N   1      32.972  15.137  11.007  0.00  0.00    -0.388 OA
HETATM    7  O   UNK N   1      34.959  16.397   8.809  0.00  0.00    -0.350 OA
HETATM    8  H   UNK N   1      32.143  15.379  11.450  0.00  0.00     0.210 HD
ENDROOT
BRANCH   2   9
HETATM    9  O   UNK N   1      33.362  12.669   9.560  0.00  0.00    -0.392 OA
HETATM   10  H   UNK N   1      33.721  11.924  10.066  0.00  0.00     0.210 HD
ENDBRANCH   2   9
BRANCH   5  11
HETATM   11  O   UNK N   1      35.027  16.947  11.070  0.00  0.00    -0.369 OA
HETATM   12  H   UNK N   1      35.081  16.867  12.035  0.00  0.00     0.212 HD
ENDBRANCH   5  11
BRANCH   4  13
HETATM   13  S   UNK N   1      33.722  13.964   6.564  0.00  0.00    -0.163 SA
HETATM   14  C   UNK N   1      35.457  13.588   6.971  0.00  0.00     0.090 C 
ENDBRANCH   4  13
BRANCH   1  15
HETATM   15  C   UNK N   1      33.425  16.998   7.061  0.00  0.00     0.197 C 
BRANCH  15  16
HETATM   16  O   UNK N   1      34.455  17.920   6.867  0.00  0.00    -0.398 OA
HETATM   17  H   UNK N   1      34.943  18.640   7.297  0.00  0.00     0.209 HD
ENDBRANCH  15  16
ENDBRANCH   1  15
TORSDOF 5
ENDMDL
MODEL 7
REMARK VINA RESULT:      -4.4     21.339     23.395
REMARK  5 active torsions:
REMARK  status: ('A' for Active; 'I' for Inactive)
REMARK    1  A    between atoms: C_3  and  C_2 
REMARK    2  A    between atoms: O_8  and  C_2 
REMARK    3  A    between atoms: C_4  and  O_9 
REMARK    4  A    between atoms: C_6  and  S_13 
REMARK    5  A    between atoms: C_7  and  O_11 
ROOT
HETATM    1  C   UNK N   1      19.676  16.859   3.907  0.00  0.00     0.164 C 
HETATM    2  C   UNK N   1      21.321  18.703   3.225  0.00  0.00     0.168 C 
HETATM    3  C   UNK N   1      20.358  18.725   2.041  0.00  0.00     0.203 C 
HETATM    4  C   UNK N   1      20.660  17.963   4.416  0.00  0.00     0.109 C 
HETATM    5  C   UNK N   1      20.135  17.238   1.625  0.00  0.00     0.288 C 
HETATM    6  O   UNK N   1      19.159  19.344   2.415  0.00  0.00    -0.388 OA
HETATM    7  O   UNK N   1      20.133  16.288   2.701  0.00  0.00    -0.350 OA
HETATM    8  H   UNK N   1      18.349  19.857   2.562  0.00  0.00     0.210 HD
ENDROOT
BRANCH   2   9
HETATM    9  O   UNK N   1      21.710  19.991   3.601  0.00  0.00    -0.392 OA
HETATM   10  H   UNK N   1      21.555  20.384   4.473  0.00  0.00     0.210 HD
ENDBRANCH   2   9
BRANCH   5  11
HETATM   11  O   UNK N   1      18.983  17.104   0.848  0.00  0.00    -0.369 OA
HETATM   12  H   UNK N   1      18.127  17.529   1.010  0.00  0.00     0.212 HD
ENDBRANCH   5  11
BRANCH   4  13
HETATM   13  S   UNK N   1      21.996  17.338   5.515  0.00  0.00    -0.163 SA
HETATM   14  C   UNK N   1      23.137  16.899   4.164  0.00  0.00     0.090 C 
ENDBRANCH   4  13
BRANCH   1  15
HETATM   15  C   UNK N   1      19.407  15.757   4.929  0.00  0.00     0.197 C 
BRANCH  15  16
HETATM   16  O   UNK N   1      18.141  15.903   5.496  0.00  0.00    -0.398 OA
HETATM   17  H   UNK N   1      17.447  15.425   5.979  0.00  0.00     0.209 HD
ENDBRANCH  15  16
ENDBRANCH   1  15
TORSDOF 5
ENDMDL
MODEL 8
REMARK VINA RESULT:      -4.3      2.079      3.776
REMARK  5 active torsions:
REMARK  status: ('A' for Active; 'I' for Inactive)
REMARK    1  A    between atoms: C_3  and  C_2 
REMARK    2  A    between atoms: O_8  and  C_2 
REMARK    3  A    between atoms: C_4  and  O_9 
REMARK    4  A    between atoms: C_6  and  S_13 
REMARK    5  A    between atoms: C_7  and  O_11 
ROOT
HETATM    1  C   UNK N   1      44.590  21.808   1.345  0.00  0.00     0.164 C 
HETATM    2  C   UNK N   1      42.505  22.721   2.522  0.00  0.00     0.168 C 
HETATM    3  C   UNK N   1      43.594  23.122   3.514  0.00  0.00     0.203 C 
HETATM    4  C   UNK N   1      43.150  22.386   1.153  0.00  0.00     0.109 C 
HETATM    5  C   UNK N   1      44.505  21.869   3.700  0.00  0.00     0.288 C 
HETATM    6  O   UNK N   1      44.311  24.216   3.015  0.00  0.00    -0.388 OA
HETATM    7  O   UNK N   1      44.681  21.053   2.533  0.00  0.00    -0.350 OA
HETATM    8  H   UNK N   1      44.779  25.036   2.793  0.00  0.00     0.210 HD
ENDROOT
BRANCH   2   9
HETATM    9  O   UNK N   1      41.539  23.721   2.380  0.00  0.00    -0.392 OA
HETATM   10  H   UNK N   1      40.628  23.660   2.704  0.00  0.00     0.210 HD
ENDBRANCH   2   9
BRANCH   5  11
HETATM   11  O   UNK N   1      45.740  22.226   4.243  0.00  0.00    -0.369 OA
HETATM   12  H   UNK N   1      45.932  23.023   4.761  0.00  0.00     0.212 HD
ENDBRANCH   5  11
BRANCH   4  13
HETATM   13  S   UNK N   1      42.004  21.277   0.236  0.00  0.00    -0.163 SA
HETATM   14  C   UNK N   1      41.477  20.329   1.699  0.00  0.00     0.090 C 
ENDBRANCH   4  13
BRANCH   1  15
HETATM   15  C   UNK N   1      45.078  20.970   0.165  0.00  0.00     0.197 C 
BRANCH  15  16
HETATM   16  O   UNK N   1      46.207  20.228   0.514  0.00  0.00    -0.398 OA
HETATM   17  H   UNK N   1      46.539  19.570   1.146  0.00  0.00     0.209 HD
ENDBRANCH  15  16
ENDBRANCH   1  15
TORSDOF 5
ENDMDL
MODEL 9
REMARK VINA RESULT:      -4.3      2.050      4.182
REMARK  5 active torsions:
REMARK  status: ('A' for Active; 'I' for Inactive)
REMARK    1  A    between atoms: C_3  and  C_2 
REMARK    2  A    between atoms: O_8  and  C_2 
REMARK    3  A    between atoms: C_4  and  O_9 
REMARK    4  A    between atoms: C_6  and  S_13 
REMARK    5  A    between atoms: C_7  and  O_11 
ROOT
HETATM    1  C   UNK N   1      42.515  21.909   3.129  0.00  0.00     0.164 C 
HETATM    2  C   UNK N   1      41.427  21.169   0.930  0.00  0.00     0.168 C 
HETATM    3  C   UNK N   1      40.441  20.596   1.945  0.00  0.00     0.203 C 
HETATM    4  C   UNK N   1      42.310  22.243   1.615  0.00  0.00     0.109 C 
HETATM    5  C   UNK N   1      41.297  19.892   3.043  0.00  0.00     0.288 C 
HETATM    6  O   UNK N   1      39.658  21.626   2.479  0.00  0.00    -0.388 OA
HETATM    7  O   UNK N   1      42.555  20.516   3.342  0.00  0.00    -0.350 OA
HETATM    8  H   UNK N   1      39.003  22.261   2.811  0.00  0.00     0.210 HD
ENDROOT
BRANCH   2   9
HETATM    9  O   UNK N   1      40.773  21.706  -0.182  0.00  0.00    -0.392 OA
HETATM   10  H   UNK N   1      40.997  22.551  -0.601  0.00  0.00     0.210 HD
ENDBRANCH   2   9
BRANCH   5  11
HETATM   11  O   UNK N   1      40.554  19.698   4.208  0.00  0.00    -0.369 OA
HETATM   12  H   UNK N   1      40.785  20.011   5.096  0.00  0.00     0.212 HD
ENDBRANCH   5  11
BRANCH   4  13
HETATM   13  S   UNK N   1      43.872  22.397   0.656  0.00  0.00    -0.163 SA
HETATM   14  C   UNK N   1      43.682  24.175   0.306  0.00  0.00     0.090 C 
ENDBRANCH   4  13
BRANCH   1  15
HETATM   15  C   UNK N   1      43.755  22.558   3.739  0.00  0.00     0.197 C 
BRANCH  15  16
HETATM   16  O   UNK N   1      43.504  23.888   4.080  0.00  0.00    -0.398 OA
HETATM   17  H   UNK N   1      43.639  24.803   3.788  0.00  0.00     0.209 HD
ENDBRANCH  15  16
ENDBRANCH   1  15
TORSDOF 5
ENDMDL
