MODEL 1
REMARK VINA RESULT:      -4.2      0.000      0.000
REMARK  3 active torsions:
REMARK  status: ('A' for Active; 'I' for Inactive)
REMARK       I    between atoms: N_1  and  C_2 
REMARK    1  A    between atoms: C_2  and  C_4 
REMARK    2  A    between atoms: C_4  and  C_5 
REMARK    3  A    between atoms: C_5  and  O_6 
ROOT
HETATM    1  N   UNK N   1      34.273  15.685  10.796  0.00  0.00    -0.370 N 
HETATM    2  C   UNK N   1      34.723  16.743  10.096  0.00  0.00     0.225 C 
HETATM    3  O   UNK N   1      35.772  17.275  10.420  0.00  0.00    -0.273 OA
HETATM    4  H   UNK N   1      33.427  15.250  10.541  0.00  0.00     0.159 HD
HETATM    5  H   UNK N   1      34.789  15.346  11.563  0.00  0.00     0.159 HD
ENDROOT
BRANCH   2   6
HETATM    6  C   UNK N   1      33.913  17.238   8.929  0.00  0.00     0.212 C 
BRANCH   6   7
HETATM    7  C   UNK N   1      34.557  18.234   8.002  0.00  0.00     0.148 C 
HETATM    8  O   UNK N   1      34.440  18.153   6.789  0.00  0.00    -0.650 OA
BRANCH   7   9
HETATM    9  O   UNK N   1      35.280  19.236   8.531  0.00  0.00    -0.776 OA
HETATM   10  H   UNK N   1      34.928  20.104   8.557  0.00  0.00     0.167 HD
ENDBRANCH   7   9
ENDBRANCH   6   7
ENDBRANCH   2   6
TORSDOF 3
ENDMDL
MODEL 2
REMARK VINA RESULT:      -3.8     15.973     16.555
REMARK  3 active torsions:
REMARK  status: ('A' for Active; 'I' for Inactive)
REMARK       I    between atoms: N_1  and  C_2 
REMARK    1  A    between atoms: C_2  and  C_4 
REMARK    2  A    between atoms: C_4  and  C_5 
REMARK    3  A    between atoms: C_5  and  O_6 
ROOT
HETATM    1  N   UNK N   1      19.030  17.580   1.651  0.00  0.00    -0.370 N 
HETATM    2  C   UNK N   1      20.158  18.016   1.059  0.00  0.00     0.225 C 
HETATM    3  O   UNK N   1      20.492  17.547  -0.016  0.00  0.00    -0.273 OA
HETATM    4  H   UNK N   1      18.753  17.953   2.519  0.00  0.00     0.159 HD
HETATM    5  H   UNK N   1      18.482  16.888   1.215  0.00  0.00     0.159 HD
ENDROOT
BRANCH   2   6
HETATM    6  C   UNK N   1      20.975  19.075   1.749  0.00  0.00     0.212 C 
BRANCH   6   7
HETATM    7  C   UNK N   1      20.951  20.464   1.170  0.00  0.00     0.148 C 
HETATM    8  O   UNK N   1      21.281  21.440   1.826  0.00  0.00    -0.650 OA
BRANCH   7   9
HETATM    9  O   UNK N   1      20.555  20.627  -0.104  0.00  0.00    -0.776 OA
HETATM   10  H   UNK N   1      20.248  19.892  -0.597  0.00  0.00     0.167 HD
ENDBRANCH   7   9
ENDBRANCH   6   7
ENDBRANCH   2   6
TORSDOF 3
ENDMDL
MODEL 3
REMARK VINA RESULT:      -3.8     13.627     13.958
REMARK  3 active torsions:
REMARK  status: ('A' for Active; 'I' for Inactive)
REMARK       I    between atoms: N_1  and  C_2 
REMARK    1  A    between atoms: C_2  and  C_4 
REMARK    2  A    between atoms: C_4  and  C_5 
REMARK    3  A    between atoms: C_5  and  O_6 
ROOT
HETATM    1  N   UNK N   1      24.758  12.228  11.399  0.00  0.00    -0.370 N 
HETATM    2  C   UNK N   1      23.467  12.025  11.723  0.00  0.00     0.225 C 
HETATM    3  O   UNK N   1      23.155  11.897  12.895  0.00  0.00    -0.273 OA
HETATM    4  H   UNK N   1      25.019  12.333  10.455  0.00  0.00     0.159 HD
HETATM    5  H   UNK N   1      25.442  12.272  12.106  0.00  0.00     0.159 HD
ENDROOT
BRANCH   2   6
HETATM    6  C   UNK N   1      22.445  11.963  10.620  0.00  0.00     0.212 C 
BRANCH   6   7
HETATM    7  C   UNK N   1      21.017  12.284  10.971  0.00  0.00     0.148 C 
HETATM    8  O   UNK N   1      20.347  13.052  10.299  0.00  0.00    -0.650 OA
BRANCH   7   9
HETATM    9  O   UNK N   1      20.472  11.706  12.056  0.00  0.00    -0.776 OA
HETATM   10  H   UNK N   1      20.777  10.868  12.343  0.00  0.00     0.167 HD
ENDBRANCH   7   9
ENDBRANCH   6   7
ENDBRANCH   2   6
TORSDOF 3
ENDMDL
MODEL 4
REMARK VINA RESULT:      -3.7     15.555     16.361
REMARK  3 active torsions:
REMARK  status: ('A' for Active; 'I' for Inactive)
REMARK       I    between atoms: N_1  and  C_2 
REMARK    1  A    between atoms: C_2  and  C_4 
REMARK    2  A    between atoms: C_4  and  C_5 
REMARK    3  A    between atoms: C_5  and  O_6 
ROOT
HETATM    1  N   UNK N   1      20.527  20.536   1.020  0.00  0.00    -0.370 N 
HETATM    2  C   UNK N   1      20.999  20.535   2.280  0.00  0.00     0.225 C 
HETATM    3  O   UNK N   1      21.889  21.311   2.589  0.00  0.00    -0.273 OA
HETATM    4  H   UNK N   1      19.809  19.913   0.762  0.00  0.00     0.159 HD
HETATM    5  H   UNK N   1      20.899  21.159   0.354  0.00  0.00     0.159 HD
ENDROOT
BRANCH   2   6
HETATM    6  C   UNK N   1      20.410  19.571   3.274  0.00  0.00     0.212 C 
BRANCH   6   7
HETATM    7  C   UNK N   1      19.507  18.488   2.748  0.00  0.00     0.148 C 
HETATM    8  O   UNK N   1      19.872  17.325   2.678  0.00  0.00    -0.650 OA
BRANCH   7   9
HETATM    9  O   UNK N   1      18.267  18.818   2.347  0.00  0.00    -0.776 OA
HETATM   10  H   UNK N   1      18.001  18.653   1.464  0.00  0.00     0.167 HD
ENDBRANCH   7   9
ENDBRANCH   6   7
ENDBRANCH   2   6
TORSDOF 3
ENDMDL
MODEL 5
REMARK VINA RESULT:      -3.7      3.029      3.984
REMARK  3 active torsions:
REMARK  status: ('A' for Active; 'I' for Inactive)
REMARK       I    between atoms: N_1  and  C_2 
REMARK    1  A    between atoms: C_2  and  C_4 
REMARK    2  A    between atoms: C_4  and  C_5 
REMARK    3  A    between atoms: C_5  and  O_6 
ROOT
HETATM    1  N   UNK N   1      36.767  14.211  12.873  0.00  0.00    -0.370 N 
HETATM    2  C   UNK N   1      35.468  14.214  12.522  0.00  0.00     0.225 C 
HETATM    3  O   UNK N   1      34.663  13.586  13.190  0.00  0.00    -0.273 OA
HETATM    4  H   UNK N   1      37.424  14.715  12.339  0.00  0.00     0.159 HD
HETATM    5  H   UNK N   1      37.062  13.704  13.665  0.00  0.00     0.159 HD
ENDROOT
BRANCH   2   6
HETATM    6  C   UNK N   1      35.048  14.998  11.308  0.00  0.00     0.212 C 
BRANCH   6   7
HETATM    7  C   UNK N   1      35.932  16.133  10.867  0.00  0.00     0.148 C 
HETATM    8  O   UNK N   1      35.488  17.251  10.659  0.00  0.00    -0.650 OA
BRANCH   7   9
HETATM    9  O   UNK N   1      37.246  15.902  10.700  0.00  0.00    -0.776 OA
HETATM   10  H   UNK N   1      37.587  15.036  10.808  0.00  0.00     0.167 HD
ENDBRANCH   7   9
ENDBRANCH   6   7
ENDBRANCH   2   6
TORSDOF 3
ENDMDL
MODEL 6
REMARK VINA RESULT:      -3.6     15.006     15.353
REMARK  3 active torsions:
REMARK  status: ('A' for Active; 'I' for Inactive)
REMARK       I    between atoms: N_1  and  C_2 
REMARK    1  A    between atoms: C_2  and  C_4 
REMARK    2  A    between atoms: C_4  and  C_5 
REMARK    3  A    between atoms: C_5  and  O_6 
ROOT
HETATM    1  N   UNK N   1      21.086  17.760   3.905  0.00  0.00    -0.370 N 
HETATM    2  C   UNK N   1      20.775  19.029   3.583  0.00  0.00     0.225 C 
HETATM    3  O   UNK N   1      20.728  19.877   4.459  0.00  0.00    -0.273 OA
HETATM    4  H   UNK N   1      21.126  17.069   3.204  0.00  0.00     0.159 HD
HETATM    5  H   UNK N   1      21.273  17.521   4.842  0.00  0.00     0.159 HD
ENDROOT
BRANCH   2   6
HETATM    6  C   UNK N   1      20.494  19.363   2.143  0.00  0.00     0.212 C 
BRANCH   6   7
HETATM    7  C   UNK N   1      21.102  20.622   1.585  0.00  0.00     0.148 C 
HETATM    8  O   UNK N   1      21.293  20.769   0.388  0.00  0.00    -0.650 OA
BRANCH   7   9
HETATM    9  O   UNK N   1      21.442  21.607   2.435  0.00  0.00    -0.776 OA
HETATM   10  H   UNK N   1      21.411  22.501   2.154  0.00  0.00     0.167 HD
ENDBRANCH   7   9
ENDBRANCH   6   7
ENDBRANCH   2   6
TORSDOF 3
ENDMDL
MODEL 7
REMARK VINA RESULT:      -3.5     11.640     11.929
REMARK  3 active torsions:
REMARK  status: ('A' for Active; 'I' for Inactive)
REMARK       I    between atoms: N_1  and  C_2 
REMARK    1  A    between atoms: C_2  and  C_4 
REMARK    2  A    between atoms: C_4  and  C_5 
REMARK    3  A    between atoms: C_5  and  O_6 
ROOT
HETATM    1  N   UNK N   1      22.091  11.691  12.064  0.00  0.00    -0.370 N 
HETATM    2  C   UNK N   1      23.385  11.881  11.749  0.00  0.00     0.225 C 
HETATM    3  O   UNK N   1      24.206  12.023  12.641  0.00  0.00    -0.273 OA
HETATM    4  H   UNK N   1      21.421  11.576  11.350  0.00  0.00     0.159 HD
HETATM    5  H   UNK N   1      21.811  11.667  13.008  0.00  0.00     0.159 HD
ENDROOT
BRANCH   2   6
HETATM    6  C   UNK N   1      23.781  11.914  10.297  0.00  0.00     0.212 C 
BRANCH   6   7
HETATM    7  C   UNK N   1      24.828  12.911   9.880  0.00  0.00     0.148 C 
HETATM    8  O   UNK N   1      24.958  13.258   8.716  0.00  0.00    -0.650 OA
BRANCH   7   9
HETATM    9  O   UNK N   1      25.639  13.429  10.819  0.00  0.00    -0.776 OA
HETATM   10  H   UNK N   1      25.314  13.587  11.683  0.00  0.00     0.167 HD
ENDBRANCH   7   9
ENDBRANCH   6   7
ENDBRANCH   2   6
TORSDOF 3
ENDMDL
MODEL 8
REMARK VINA RESULT:      -3.5      2.141      2.989
REMARK  3 active torsions:
REMARK  status: ('A' for Active; 'I' for Inactive)
REMARK       I    between atoms: N_1  and  C_2 
REMARK    1  A    between atoms: C_2  and  C_4 
REMARK    2  A    between atoms: C_4  and  C_5 
REMARK    3  A    between atoms: C_5  and  O_6 
ROOT
HETATM    1  N   UNK N   1      33.423  15.341   7.029  0.00  0.00    -0.370 N 
HETATM    2  C   UNK N   1      34.297  16.289   6.643  0.00  0.00     0.225 C 
HETATM    3  O   UNK N   1      35.283  15.970   5.999  0.00  0.00    -0.273 OA
HETATM    4  H   UNK N   1      32.624  15.590   7.549  0.00  0.00     0.159 HD
HETATM    5  H   UNK N   1      33.580  14.399   6.791  0.00  0.00     0.159 HD
ENDROOT
BRANCH   2   6
HETATM    6  C   UNK N   1      34.029  17.720   7.022  0.00  0.00     0.212 C 
BRANCH   6   7
HETATM    7  C   UNK N   1      34.516  18.191   8.366  0.00  0.00     0.148 C 
HETATM    8  O   UNK N   1      35.227  19.177   8.482  0.00  0.00    -0.650 OA
BRANCH   7   9
HETATM    9  O   UNK N   1      34.153  17.504   9.462  0.00  0.00    -0.776 OA
HETATM   10  H   UNK N   1      34.492  17.746  10.301  0.00  0.00     0.167 HD
ENDBRANCH   7   9
ENDBRANCH   6   7
ENDBRANCH   2   6
TORSDOF 3
ENDMDL
MODEL 9
REMARK VINA RESULT:      -3.5     13.540     14.002
REMARK  3 active torsions:
REMARK  status: ('A' for Active; 'I' for Inactive)
REMARK       I    between atoms: N_1  and  C_2 
REMARK    1  A    between atoms: C_2  and  C_4 
REMARK    2  A    between atoms: C_4  and  C_5 
REMARK    3  A    between atoms: C_5  and  O_6 
ROOT
HETATM    1  N   UNK N   1      21.011  13.942   9.856  0.00  0.00    -0.370 N 
HETATM    2  C   UNK N   1      21.278  12.841  10.583  0.00  0.00     0.225 C 
HETATM    3  O   UNK N   1      20.407  12.363  11.291  0.00  0.00    -0.273 OA
HETATM    4  H   UNK N   1      21.709  14.334   9.281  0.00  0.00     0.159 HD
HETATM    5  H   UNK N   1      20.118  14.355   9.897  0.00  0.00     0.159 HD
ENDROOT
BRANCH   2   6
HETATM    6  C   UNK N   1      22.651  12.232  10.499  0.00  0.00     0.212 C 
BRANCH   6   7
HETATM    7  C   UNK N   1      23.349  11.897  11.790  0.00  0.00     0.148 C 
HETATM    8  O   UNK N   1      24.559  12.003  11.913  0.00  0.00    -0.650 OA
BRANCH   7   9
HETATM    9  O   UNK N   1      22.612  11.471  12.831  0.00  0.00    -0.776 OA
HETATM   10  H   UNK N   1      22.741  10.609  13.175  0.00  0.00     0.167 HD
ENDBRANCH   7   9
ENDBRANCH   6   7
ENDBRANCH   2   6
TORSDOF 3
ENDMDL
