MODEL 1
REMARK VINA RESULT:      -6.3      0.000      0.000
REMARK  9 active torsions:
REMARK  status: ('A' for Active; 'I' for Inactive)
REMARK    1  A    between atoms: C_5  and  C_2 
REMARK    2  A    between atoms: O_24  and  C_2 
REMARK    3  A    between atoms: C_6  and  O_18 
REMARK    4  A    between atoms: C_7  and  O_19 
REMARK    5  A    between atoms: C_9  and  N_17 
REMARK    6  A    between atoms: O_20  and  C_10 
REMARK    7  A    between atoms: P_26  and  O_21 
REMARK    8  A    between atoms: P_26  and  O_22 
REMARK    9  A    between atoms: P_26  and  O_24 
ROOT
HETATM    1  C   UNK N   1      35.307  12.343  12.101  0.00  0.00     0.180 C 
HETATM    2  C   UNK N   1      36.705  12.303  11.487  0.00  0.00     0.182 C 
HETATM    3  C   UNK N   1      36.582  13.299  10.327  0.00  0.00     0.198 C 
HETATM    4  C   UNK N   1      35.174  13.874  10.543  0.00  0.00     0.261 C 
HETATM    5  O   UNK N   1      34.870  13.670  11.908  0.00  0.00    -0.353 OA
ENDROOT
BRANCH   4   6
HETATM    6  N   UNK N   1      35.000  15.275  10.134  0.00  0.00    -0.308 N 
HETATM    7  C   UNK N   1      35.290  16.390  10.858  0.00  0.00     0.187 A 
HETATM    8  N   UNK N   1      35.122  17.522  10.117  0.00  0.00    -0.336 N 
HETATM    9  C   UNK N   1      34.747  17.069   8.909  0.00  0.00     0.138 A 
ATOM     10  HN  UNK N   1      35.251  18.490  10.413  1.00  0.00     0.168 HD
HETATM   11  C   UNK N   1      34.679  15.724   8.912  0.00  0.00     0.098 A 
HETATM   12  N   UNK N   1      34.499  17.807   7.801  0.00  0.00    -0.306 N 
HETATM   13  C   UNK N   1      34.349  15.036   7.755  0.00  0.00     0.125 A 
HETATM   14  N   UNK N   1      34.093  15.772   6.634  0.00  0.00    -0.330 N 
HETATM   15  C   UNK N   1      34.167  17.144   6.650  0.00  0.00     0.222 A 
ATOM     16  HN  UNK N   1      33.842  15.295   5.767  1.00  0.00     0.168 HD
ATOM     17  HN  UNK N   1      34.558  18.824   7.823  1.00  0.00     0.171 HD
BRANCH  15  18
HETATM   18  O   UNK N   1      33.919  17.838   5.527  0.00  0.00    -0.332 OA
HETATM   19  H   UNK N   1      33.168  17.632   5.005  0.00  0.00     0.220 HD
ENDBRANCH  15  18
ENDBRANCH   4   6
BRANCH   3  20
HETATM   20  O   UNK N   1      37.565  14.291  10.436  0.00  0.00    -0.388 OA
HETATM   21  H   UNK N   1      38.222  14.814  10.924  0.00  0.00     0.210 HD
ENDBRANCH   3  20
BRANCH   2  22
HETATM   22  O   UNK N   1      37.626  12.791  12.425  0.00  0.00    -0.390 OA
HETATM   23  H   UNK N   1      38.277  12.911  13.135  0.00  0.00     0.210 HD
ENDBRANCH   2  22
BRANCH   1  24
HETATM   24  C   UNK N   1      35.319  11.902  13.567  0.00  0.00     0.215 C 
BRANCH  24  25
HETATM   25  O   UNK N   1      34.774  12.867  14.427  0.00  0.00    -0.294 OA
BRANCH  25  26
HETATM   26  P   UNK N   1      35.998  13.191  15.628  0.00  0.00     0.390 P 
HETATM   27  O   UNK N   1      36.552  11.852  15.062  0.00  0.00    -0.632 OA
BRANCH  26  28
HETATM   28  O   UNK N   1      37.630  13.606  15.209  0.00  0.00    -0.307 OA
HETATM   29  H   UNK N   1      38.054  13.447  14.352  0.00  0.00     0.222 HD
ENDBRANCH  26  28
BRANCH  26  30
HETATM   30  O   UNK N   1      36.063  14.370  14.356  0.00  0.00    -0.307 OA
HETATM   31  H   UNK N   1      35.507  14.289  13.567  0.00  0.00     0.222 HD
ENDBRANCH  26  30
ENDBRANCH  25  26
ENDBRANCH  24  25
ENDBRANCH   1  24
TORSDOF 9
ENDMDL
MODEL 2
REMARK VINA RESULT:      -6.1     14.522     17.310
REMARK  9 active torsions:
REMARK  status: ('A' for Active; 'I' for Inactive)
REMARK    1  A    between atoms: C_5  and  C_2 
REMARK    2  A    between atoms: O_24  and  C_2 
REMARK    3  A    between atoms: C_6  and  O_18 
REMARK    4  A    between atoms: C_7  and  O_19 
REMARK    5  A    between atoms: C_9  and  N_17 
REMARK    6  A    between atoms: O_20  and  C_10 
REMARK    7  A    between atoms: P_26  and  O_21 
REMARK    8  A    between atoms: P_26  and  O_22 
REMARK    9  A    between atoms: P_26  and  O_24 
ROOT
HETATM    1  C   UNK N   1      21.413  17.625   4.351  0.00  0.00     0.180 C 
HETATM    2  C   UNK N   1      20.689  16.439   3.718  0.00  0.00     0.182 C 
HETATM    3  C   UNK N   1      20.675  15.416   4.861  0.00  0.00     0.198 C 
HETATM    4  C   UNK N   1      21.261  16.227   6.027  0.00  0.00     0.261 C 
HETATM    5  O   UNK N   1      21.042  17.587   5.711  0.00  0.00    -0.353 OA
ENDROOT
BRANCH   4   6
HETATM    6  N   UNK N   1      20.748  15.871   7.357  0.00  0.00    -0.308 N 
HETATM    7  C   UNK N   1      19.698  16.433   8.016  0.00  0.00     0.187 A 
HETATM    8  N   UNK N   1      19.425  15.769   9.174  0.00  0.00    -0.336 N 
HETATM    9  C   UNK N   1      20.319  14.767   9.196  0.00  0.00     0.138 A 
ATOM     10  HN  UNK N   1      18.707  15.984   9.866  1.00  0.00     0.168 HD
HETATM   11  C   UNK N   1      21.110  14.819   8.107  0.00  0.00     0.098 A 
HETATM   12  N   UNK N   1      20.433  13.792  10.128  0.00  0.00    -0.306 N 
HETATM   13  C   UNK N   1      22.083  13.855   7.898  0.00  0.00     0.125 A 
HETATM   14  N   UNK N   1      22.207  12.871   8.836  0.00  0.00    -0.330 N 
HETATM   15  C   UNK N   1      21.392  12.833   9.942  0.00  0.00     0.222 A 
ATOM     16  HN  UNK N   1      22.918  12.149   8.714  1.00  0.00     0.168 HD
ATOM     17  HN  UNK N   1      19.821  13.772  10.944  1.00  0.00     0.171 HD
BRANCH  15  18
HETATM   18  O   UNK N   1      21.533  11.845  10.840  0.00  0.00    -0.332 OA
HETATM   19  H   UNK N   1      22.259  11.256  10.779  0.00  0.00     0.220 HD
ENDBRANCH  15  18
ENDBRANCH   4   6
BRANCH   3  20
HETATM   20  O   UNK N   1      19.361  15.007   5.128  0.00  0.00    -0.388 OA
HETATM   21  H   UNK N   1      18.411  15.162   5.252  0.00  0.00     0.210 HD
ENDBRANCH   3  20
BRANCH   2  22
HETATM   22  O   UNK N   1      19.372  16.819   3.417  0.00  0.00    -0.390 OA
HETATM   23  H   UNK N   1      18.454  16.881   3.108  0.00  0.00     0.210 HD
ENDBRANCH   2  22
BRANCH   1  24
HETATM   24  C   UNK N   1      21.063  18.942   3.650  0.00  0.00     0.215 C 
BRANCH  24  25
HETATM   25  O   UNK N   1      21.141  18.848   2.253  0.00  0.00    -0.294 OA
BRANCH  25  26
HETATM   26  P   UNK N   1      20.626  20.396   1.634  0.00  0.00     0.390 P 
HETATM   27  O   UNK N   1      22.148  20.680   1.783  0.00  0.00    -0.632 OA
BRANCH  26  28
HETATM   28  O   UNK N   1      21.062  20.959   0.051  0.00  0.00    -0.307 OA
HETATM   29  H   UNK N   1      21.835  21.502  -0.166  0.00  0.00     0.222 HD
ENDBRANCH  26  28
BRANCH  26  30
HETATM   30  O   UNK N   1      20.435  19.161   0.428  0.00  0.00    -0.307 OA
HETATM   31  H   UNK N   1      19.563  18.948   0.062  0.00  0.00     0.222 HD
ENDBRANCH  26  30
ENDBRANCH  25  26
ENDBRANCH  24  25
ENDBRANCH   1  24
TORSDOF 9
ENDMDL
MODEL 3
REMARK VINA RESULT:      -6.1     13.470     15.103
REMARK  9 active torsions:
REMARK  status: ('A' for Active; 'I' for Inactive)
REMARK    1  A    between atoms: C_5  and  C_2 
REMARK    2  A    between atoms: O_24  and  C_2 
REMARK    3  A    between atoms: C_6  and  O_18 
REMARK    4  A    between atoms: C_7  and  O_19 
REMARK    5  A    between atoms: C_9  and  N_17 
REMARK    6  A    between atoms: O_20  and  C_10 
REMARK    7  A    between atoms: P_26  and  O_21 
REMARK    8  A    between atoms: P_26  and  O_22 
REMARK    9  A    between atoms: P_26  and  O_24 
ROOT
HETATM    1  C   UNK N   1      22.105  14.651   7.987  0.00  0.00     0.180 C 
HETATM    2  C   UNK N   1      20.892  15.287   8.664  0.00  0.00     0.182 C 
HETATM    3  C   UNK N   1      20.380  16.248   7.585  0.00  0.00     0.198 C 
HETATM    4  C   UNK N   1      21.288  15.909   6.393  0.00  0.00     0.261 C 
HETATM    5  O   UNK N   1      21.762  14.597   6.620  0.00  0.00    -0.353 OA
ENDROOT
BRANCH   4   6
HETATM    6  N   UNK N   1      20.667  16.059   5.070  0.00  0.00    -0.308 N 
HETATM    7  C   UNK N   1      19.894  15.153   4.411  0.00  0.00     0.187 A 
HETATM    8  N   UNK N   1      19.382  15.677   3.262  0.00  0.00    -0.336 N 
HETATM    9  C   UNK N   1      19.840  16.939   3.246  0.00  0.00     0.138 A 
ATOM     10  HN  UNK N   1      18.789  15.215   2.572  1.00  0.00     0.168 HD
HETATM   11  C   UNK N   1      20.605  17.176   4.330  0.00  0.00     0.098 A 
HETATM   12  N   UNK N   1      19.574  17.894   2.324  0.00  0.00    -0.306 N 
HETATM   13  C   UNK N   1      21.152  18.431   4.543  0.00  0.00     0.125 A 
HETATM   14  N   UNK N   1      20.892  19.399   3.615  0.00  0.00    -0.330 N 
HETATM   15  C   UNK N   1      20.110  19.139   2.515  0.00  0.00     0.222 A 
ATOM     16  HN  UNK N   1      21.285  20.332   3.741  1.00  0.00     0.168 HD
ATOM     17  HN  UNK N   1      18.991  17.692   1.512  1.00  0.00     0.171 HD
BRANCH  15  18
HETATM   18  O   UNK N   1      19.865  20.116   1.626  0.00  0.00    -0.332 OA
HETATM   19  H   UNK N   1      18.990  20.430   1.505  0.00  0.00     0.220 HD
ENDBRANCH  15  18
ENDBRANCH   4   6
BRANCH   3  20
HETATM   20  O   UNK N   1      19.034  15.981   7.299  0.00  0.00    -0.388 OA
HETATM   21  H   UNK N   1      18.312  15.671   6.730  0.00  0.00     0.210 HD
ENDBRANCH   3  20
BRANCH   2  22
HETATM   22  O   UNK N   1      19.931  14.292   8.898  0.00  0.00    -0.390 OA
HETATM   23  H   UNK N   1      19.171  13.763   9.189  0.00  0.00     0.210 HD
ENDBRANCH   2  22
BRANCH   1  24
HETATM   24  C   UNK N   1      22.444  13.288   8.595  0.00  0.00     0.215 C 
BRANCH  24  25
HETATM   25  O   UNK N   1      22.798  13.373   9.950  0.00  0.00    -0.294 OA
BRANCH  25  26
HETATM   26  P   UNK N   1      24.073  12.207  10.192  0.00  0.00     0.390 P 
HETATM   27  O   UNK N   1      24.936  13.447   9.825  0.00  0.00    -0.632 OA
BRANCH  26  28
HETATM   28  O   UNK N   1      25.183  12.301  11.523  0.00  0.00    -0.307 OA
HETATM   29  H   UNK N   1      26.122  12.061  11.497  0.00  0.00     0.222 HD
ENDBRANCH  26  28
BRANCH  26  30
HETATM   30  O   UNK N   1      23.266  12.549  11.691  0.00  0.00    -0.307 OA
HETATM   31  H   UNK N   1      23.717  12.438  12.541  0.00  0.00     0.222 HD
ENDBRANCH  26  30
ENDBRANCH  25  26
ENDBRANCH  24  25
ENDBRANCH   1  24
TORSDOF 9
ENDMDL
MODEL 4
REMARK VINA RESULT:      -6.0      4.494      5.850
REMARK  9 active torsions:
REMARK  status: ('A' for Active; 'I' for Inactive)
REMARK    1  A    between atoms: C_5  and  C_2 
REMARK    2  A    between atoms: O_24  and  C_2 
REMARK    3  A    between atoms: C_6  and  O_18 
REMARK    4  A    between atoms: C_7  and  O_19 
REMARK    5  A    between atoms: C_9  and  N_17 
REMARK    6  A    between atoms: O_20  and  C_10 
REMARK    7  A    between atoms: P_26  and  O_21 
REMARK    8  A    between atoms: P_26  and  O_22 
REMARK    9  A    between atoms: P_26  and  O_24 
ROOT
HETATM    1  C   UNK N   1      33.108  15.040   8.587  0.00  0.00     0.180 C 
HETATM    2  C   UNK N   1      33.753  16.151   7.762  0.00  0.00     0.182 C 
HETATM    3  C   UNK N   1      32.536  16.962   7.297  0.00  0.00     0.198 C 
HETATM    4  C   UNK N   1      31.386  16.279   8.053  0.00  0.00     0.261 C 
HETATM    5  O   UNK N   1      31.972  15.639   9.168  0.00  0.00    -0.353 OA
ENDROOT
BRANCH   4   6
HETATM    6  N   UNK N   1      30.275  17.162   8.433  0.00  0.00    -0.308 N 
HETATM    7  C   UNK N   1      30.059  17.745   9.643  0.00  0.00     0.187 A 
HETATM    8  N   UNK N   1      29.000  18.602   9.601  0.00  0.00    -0.336 N 
HETATM    9  C   UNK N   1      28.589  18.551   8.323  0.00  0.00     0.138 A 
ATOM     10  HN  UNK N   1      28.610  19.155  10.365  1.00  0.00     0.168 HD
HETATM   11  C   UNK N   1      29.353  17.695   7.618  0.00  0.00     0.098 A 
HETATM   12  N   UNK N   1      27.584  19.261   7.759  0.00  0.00    -0.306 N 
HETATM   13  C   UNK N   1      29.134  17.513   6.261  0.00  0.00     0.125 A 
HETATM   14  N   UNK N   1      28.120  18.222   5.685  0.00  0.00    -0.330 N 
HETATM   15  C   UNK N   1      27.350  19.091   6.421  0.00  0.00     0.222 A 
ATOM     16  HN  UNK N   1      27.930  18.107   4.689  1.00  0.00     0.168 HD
ATOM     17  HN  UNK N   1      27.020  19.905   8.313  1.00  0.00     0.171 HD
BRANCH  15  18
HETATM   18  O   UNK N   1      26.367  19.782   5.821  0.00  0.00    -0.332 OA
HETATM   19  H   UNK N   1      26.375  19.897   4.891  0.00  0.00     0.220 HD
ENDBRANCH  15  18
ENDBRANCH   4   6
BRANCH   3  20
HETATM   20  O   UNK N   1      32.676  18.304   7.678  0.00  0.00    -0.388 OA
HETATM   21  H   UNK N   1      32.385  19.115   8.123  0.00  0.00     0.210 HD
ENDBRANCH   3  20
BRANCH   2  22
HETATM   22  O   UNK N   1      34.546  16.942   8.607  0.00  0.00    -0.390 OA
HETATM   23  H   UNK N   1      34.983  17.380   9.355  0.00  0.00     0.210 HD
ENDBRANCH   2  22
BRANCH   1  24
HETATM   24  C   UNK N   1      34.088  14.451   9.607  0.00  0.00     0.215 C 
BRANCH  24  25
HETATM   25  O   UNK N   1      34.012  15.083  10.857  0.00  0.00    -0.294 OA
BRANCH  25  26
HETATM   26  P   UNK N   1      35.646  15.147  11.466  0.00  0.00     0.390 P 
HETATM   27  O   UNK N   1      35.930  14.566  10.052  0.00  0.00    -0.632 OA
BRANCH  26  28
HETATM   28  O   UNK N   1      36.834  16.246  10.838  0.00  0.00    -0.307 OA
HETATM   29  H   UNK N   1      37.552  16.655  11.344  0.00  0.00     0.222 HD
ENDBRANCH  26  28
BRANCH  26  30
HETATM   30  O   UNK N   1      35.008  16.748  11.261  0.00  0.00    -0.307 OA
HETATM   31  H   UNK N   1      34.463  17.163  11.947  0.00  0.00     0.222 HD
ENDBRANCH  26  30
ENDBRANCH  25  26
ENDBRANCH  24  25
ENDBRANCH   1  24
TORSDOF 9
ENDMDL
MODEL 5
REMARK VINA RESULT:      -5.9      3.491      4.742
REMARK  9 active torsions:
REMARK  status: ('A' for Active; 'I' for Inactive)
REMARK    1  A    between atoms: C_5  and  C_2 
REMARK    2  A    between atoms: O_24  and  C_2 
REMARK    3  A    between atoms: C_6  and  O_18 
REMARK    4  A    between atoms: C_7  and  O_19 
REMARK    5  A    between atoms: C_9  and  N_17 
REMARK    6  A    between atoms: O_20  and  C_10 
REMARK    7  A    between atoms: P_26  and  O_21 
REMARK    8  A    between atoms: P_26  and  O_22 
REMARK    9  A    between atoms: P_26  and  O_24 
ROOT
HETATM    1  C   UNK N   1      34.457  15.081   9.692  0.00  0.00     0.180 C 
HETATM    2  C   UNK N   1      35.174  16.420   9.537  0.00  0.00     0.182 C 
HETATM    3  C   UNK N   1      34.484  17.021   8.306  0.00  0.00     0.198 C 
HETATM    4  C   UNK N   1      33.369  16.000   8.031  0.00  0.00     0.261 C 
HETATM    5  O   UNK N   1      33.140  15.328   9.252  0.00  0.00    -0.353 OA
ENDROOT
BRANCH   4   6
HETATM    6  N   UNK N   1      32.136  16.558   7.458  0.00  0.00    -0.308 N 
HETATM    7  C   UNK N   1      31.796  16.634   6.142  0.00  0.00     0.187 A 
HETATM    8  N   UNK N   1      30.524  17.096   5.983  0.00  0.00    -0.336 N 
HETATM    9  C   UNK N   1      30.082  17.275   7.239  0.00  0.00     0.138 A 
ATOM     10  HN  UNK N   1      30.023  17.266   5.111  1.00  0.00     0.168 HD
HETATM   11  C   UNK N   1      31.041  16.949   8.126  0.00  0.00     0.098 A 
HETATM   12  N   UNK N   1      28.849  17.684   7.621  0.00  0.00    -0.306 N 
HETATM   13  C   UNK N   1      30.791  17.017   9.488  0.00  0.00     0.125 A 
HETATM   14  N   UNK N   1      29.551  17.433   9.882  0.00  0.00    -0.330 N 
HETATM   15  C   UNK N   1      28.584  17.763   8.962  0.00  0.00     0.222 A 
ATOM     16  HN  UNK N   1      29.338  17.499  10.877  1.00  0.00     0.168 HD
ATOM     17  HN  UNK N   1      28.138  17.924   6.930  1.00  0.00     0.171 HD
BRANCH  15  18
HETATM   18  O   UNK N   1      27.372  18.158   9.382  0.00  0.00    -0.332 OA
HETATM   19  H   UNK N   1      27.177  18.177  10.299  0.00  0.00     0.220 HD
ENDBRANCH  15  18
ENDBRANCH   4   6
BRANCH   3  20
HETATM   20  O   UNK N   1      33.959  18.284   8.615  0.00  0.00    -0.388 OA
HETATM   21  H   UNK N   1      33.306  18.879   9.015  0.00  0.00     0.210 HD
ENDBRANCH   3  20
BRANCH   2  22
HETATM   22  O   UNK N   1      34.899  17.214  10.661  0.00  0.00    -0.390 OA
HETATM   23  H   UNK N   1      34.502  17.772  11.349  0.00  0.00     0.210 HD
ENDBRANCH   2  22
BRANCH   1  24
HETATM   24  C   UNK N   1      34.542  14.555  11.128  0.00  0.00     0.215 C 
BRANCH  24  25
HETATM   25  O   UNK N   1      35.800  14.772  11.709  0.00  0.00    -0.294 OA
BRANCH  25  26
HETATM   26  P   UNK N   1      35.994  13.532  12.921  0.00  0.00     0.390 P 
HETATM   27  O   UNK N   1      36.385  14.773  13.771  0.00  0.00    -0.632 OA
BRANCH  26  28
HETATM   28  O   UNK N   1      34.941  13.395  14.293  0.00  0.00    -0.307 OA
HETATM   29  H   UNK N   1      34.661  14.123  14.869  0.00  0.00     0.222 HD
ENDBRANCH  26  28
BRANCH  26  30
HETATM   30  O   UNK N   1      34.324  13.698  12.478  0.00  0.00    -0.307 OA
HETATM   31  H   UNK N   1      33.707  14.207  13.026  0.00  0.00     0.222 HD
ENDBRANCH  26  30
ENDBRANCH  25  26
ENDBRANCH  24  25
ENDBRANCH   1  24
TORSDOF 9
ENDMDL
MODEL 6
REMARK VINA RESULT:      -5.9     14.442     15.626
REMARK  9 active torsions:
REMARK  status: ('A' for Active; 'I' for Inactive)
REMARK    1  A    between atoms: C_5  and  C_2 
REMARK    2  A    between atoms: O_24  and  C_2 
REMARK    3  A    between atoms: C_6  and  O_18 
REMARK    4  A    between atoms: C_7  and  O_19 
REMARK    5  A    between atoms: C_9  and  N_17 
REMARK    6  A    between atoms: O_20  and  C_10 
REMARK    7  A    between atoms: P_26  and  O_21 
REMARK    8  A    between atoms: P_26  and  O_22 
REMARK    9  A    between atoms: P_26  and  O_24 
ROOT
HETATM    1  C   UNK N   1      20.168  15.689   7.033  0.00  0.00     0.180 C 
HETATM    2  C   UNK N   1      20.629  14.664   5.999  0.00  0.00     0.182 C 
HETATM    3  C   UNK N   1      20.815  15.526   4.743  0.00  0.00     0.198 C 
HETATM    4  C   UNK N   1      20.578  16.943   5.287  0.00  0.00     0.261 C 
HETATM    5  O   UNK N   1      20.833  16.880   6.675  0.00  0.00    -0.353 OA
ENDROOT
BRANCH   4   6
HETATM    6  N   UNK N   1      21.347  18.004   4.623  0.00  0.00    -0.308 N 
HETATM    7  C   UNK N   1      22.611  18.416   4.915  0.00  0.00     0.187 A 
HETATM    8  N   UNK N   1      23.055  19.336   4.013  0.00  0.00    -0.336 N 
HETATM    9  C   UNK N   1      22.039  19.458   3.143  0.00  0.00     0.138 A 
ATOM     10  HN  UNK N   1      23.953  19.821   4.002  1.00  0.00     0.168 HD
HETATM   11  C   UNK N   1      21.016  18.658   3.499  0.00  0.00     0.098 A 
HETATM   12  N   UNK N   1      22.005  20.227   2.029  0.00  0.00    -0.306 N 
HETATM   13  C   UNK N   1      19.873  18.590   2.719  0.00  0.00     0.125 A 
HETATM   14  N   UNK N   1      19.828  19.366   1.596  0.00  0.00    -0.330 N 
HETATM   15  C   UNK N   1      20.882  20.178   1.248  0.00  0.00     0.222 A 
ATOM     16  HN  UNK N   1      18.998  19.343   1.004  1.00  0.00     0.168 HD
ATOM     17  HN  UNK N   1      22.793  20.824   1.778  1.00  0.00     0.171 HD
BRANCH  15  18
HETATM   18  O   UNK N   1      20.810  20.920   0.132  0.00  0.00    -0.332 OA
HETATM   19  H   UNK N   1      21.576  21.353  -0.192  0.00  0.00     0.220 HD
ENDBRANCH  15  18
ENDBRANCH   4   6
BRANCH   3  20
HETATM   20  O   UNK N   1      22.116  15.377   4.245  0.00  0.00    -0.388 OA
HETATM   21  H   UNK N   1      22.925  14.872   4.063  0.00  0.00     0.210 HD
ENDBRANCH   3  20
BRANCH   2  22
HETATM   22  O   UNK N   1      21.870  14.145   6.397  0.00  0.00    -0.390 OA
HETATM   23  H   UNK N   1      22.808  13.973   6.576  0.00  0.00     0.210 HD
ENDBRANCH   2  22
BRANCH   1  24
HETATM   24  C   UNK N   1      20.459  15.223   8.462  0.00  0.00     0.215 C 
BRANCH  24  25
HETATM   25  O   UNK N   1      20.325  13.834   8.615  0.00  0.00    -0.294 OA
BRANCH  25  26
HETATM   26  P   UNK N   1      21.316  13.401   9.984  0.00  0.00     0.390 P 
HETATM   27  O   UNK N   1      19.921  13.019  10.556  0.00  0.00    -0.632 OA
BRANCH  26  28
HETATM   28  O   UNK N   1      21.550  11.755  10.482  0.00  0.00    -0.307 OA
HETATM   29  H   UNK N   1      20.851  11.137  10.746  0.00  0.00     0.222 HD
ENDBRANCH  26  28
BRANCH  26  30
HETATM   30  O   UNK N   1      21.641  12.353   8.638  0.00  0.00    -0.307 OA
HETATM   31  H   UNK N   1      21.567  12.671   7.726  0.00  0.00     0.222 HD
ENDBRANCH  26  30
ENDBRANCH  25  26
ENDBRANCH  24  25
ENDBRANCH   1  24
TORSDOF 9
ENDMDL
MODEL 7
REMARK VINA RESULT:      -5.7      4.632      8.185
REMARK  9 active torsions:
REMARK  status: ('A' for Active; 'I' for Inactive)
REMARK    1  A    between atoms: C_5  and  C_2 
REMARK    2  A    between atoms: O_24  and  C_2 
REMARK    3  A    between atoms: C_6  and  O_18 
REMARK    4  A    between atoms: C_7  and  O_19 
REMARK    5  A    between atoms: C_9  and  N_17 
REMARK    6  A    between atoms: O_20  and  C_10 
REMARK    7  A    between atoms: P_26  and  O_21 
REMARK    8  A    between atoms: P_26  and  O_22 
REMARK    9  A    between atoms: P_26  and  O_24 
ROOT
HETATM    1  C   UNK N   1      35.047  14.186  12.410  0.00  0.00     0.180 C 
HETATM    2  C   UNK N   1      36.487  14.494  12.816  0.00  0.00     0.182 C 
HETATM    3  C   UNK N   1      36.516  14.043  14.282  0.00  0.00     0.198 C 
HETATM    4  C   UNK N   1      35.129  13.405  14.452  0.00  0.00     0.261 C 
HETATM    5  O   UNK N   1      34.702  13.040  13.155  0.00  0.00    -0.353 OA
ENDROOT
BRANCH   4   6
HETATM    6  N   UNK N   1      35.067  12.283  15.398  0.00  0.00    -0.308 N 
HETATM    7  C   UNK N   1      35.109  10.954  15.109  0.00  0.00     0.187 A 
HETATM    8  N   UNK N   1      35.157  10.199  16.243  0.00  0.00    -0.336 N 
HETATM    9  C   UNK N   1      35.172  11.102  17.237  0.00  0.00     0.138 A 
ATOM     10  HN  UNK N   1      35.176   9.181  16.319  1.00  0.00     0.168 HD
HETATM   11  C   UNK N   1      35.125  12.352  16.736  0.00  0.00     0.098 A 
HETATM   12  N   UNK N   1      35.260  10.855  18.565  0.00  0.00    -0.306 N 
HETATM   13  C   UNK N   1      35.172  13.449  17.582  0.00  0.00     0.125 A 
HETATM   14  N   UNK N   1      35.256  13.209  18.924  0.00  0.00    -0.330 N 
HETATM   15  C   UNK N   1      35.302  11.926  19.417  0.00  0.00     0.222 A 
ATOM     16  HN  UNK N   1      35.287  13.995  19.573  1.00  0.00     0.168 HD
ATOM     17  HN  UNK N   1      35.296   9.900  18.920  1.00  0.00     0.171 HD
BRANCH  15  18
HETATM   18  O   UNK N   1      35.396  11.724  20.740  0.00  0.00    -0.332 OA
HETATM   19  H   UNK N   1      35.789  12.377  21.287  0.00  0.00     0.220 HD
ENDBRANCH  15  18
ENDBRANCH   4   6
BRANCH   3  20
HETATM   20  O   UNK N   1      37.541  13.107  14.480  0.00  0.00    -0.388 OA
HETATM   21  H   UNK N   1      38.290  12.565  14.187  0.00  0.00     0.210 HD
ENDBRANCH   3  20
BRANCH   2  22
HETATM   22  O   UNK N   1      37.353  13.687  12.063  0.00  0.00    -0.390 OA
HETATM   23  H   UNK N   1      37.781  12.982  11.551  0.00  0.00     0.210 HD
ENDBRANCH   2  22
BRANCH   1  24
HETATM   24  C   UNK N   1      34.913  14.004  10.895  0.00  0.00     0.215 C 
BRANCH  24  25
HETATM   25  O   UNK N   1      35.617  14.976  10.169  0.00  0.00    -0.294 OA
BRANCH  25  26
HETATM   26  P   UNK N   1      34.447  16.196   9.734  0.00  0.00     0.390 P 
HETATM   27  O   UNK N   1      35.557  17.113  10.322  0.00  0.00    -0.632 OA
BRANCH  26  28
HETATM   28  O   UNK N   1      34.718  17.332   8.450  0.00  0.00    -0.307 OA
HETATM   29  H   UNK N   1      35.361  18.058   8.460  0.00  0.00     0.222 HD
ENDBRANCH  26  28
BRANCH  26  30
HETATM   30  O   UNK N   1      35.091  15.432   8.314  0.00  0.00    -0.307 OA
HETATM   31  H   UNK N   1      35.150  14.467   8.245  0.00  0.00     0.222 HD
ENDBRANCH  26  30
ENDBRANCH  25  26
ENDBRANCH  24  25
ENDBRANCH   1  24
TORSDOF 9
ENDMDL
MODEL 8
REMARK VINA RESULT:      -5.5      9.694     12.362
REMARK  9 active torsions:
REMARK  status: ('A' for Active; 'I' for Inactive)
REMARK    1  A    between atoms: C_5  and  C_2 
REMARK    2  A    between atoms: O_24  and  C_2 
REMARK    3  A    between atoms: C_6  and  O_18 
REMARK    4  A    between atoms: C_7  and  O_19 
REMARK    5  A    between atoms: C_9  and  N_17 
REMARK    6  A    between atoms: O_20  and  C_10 
REMARK    7  A    between atoms: P_26  and  O_21 
REMARK    8  A    between atoms: P_26  and  O_22 
REMARK    9  A    between atoms: P_26  and  O_24 
ROOT
HETATM    1  C   UNK N   1      28.058  18.305   5.715  0.00  0.00     0.180 C 
HETATM    2  C   UNK N   1      27.800  19.758   6.108  0.00  0.00     0.182 C 
HETATM    3  C   UNK N   1      26.527  20.090   5.319  0.00  0.00     0.198 C 
HETATM    4  C   UNK N   1      26.161  18.728   4.710  0.00  0.00     0.261 C 
HETATM    5  O   UNK N   1      26.774  17.753   5.528  0.00  0.00    -0.353 OA
ENDROOT
BRANCH   4   6
HETATM    6  N   UNK N   1      24.723  18.487   4.532  0.00  0.00    -0.308 N 
HETATM    7  C   UNK N   1      23.958  17.549   5.155  0.00  0.00     0.187 A 
HETATM    8  N   UNK N   1      22.639  17.695   4.844  0.00  0.00    -0.336 N 
HETATM    9  C   UNK N   1      22.611  18.766   4.035  0.00  0.00     0.138 A 
ATOM     10  HN  UNK N   1      21.855  17.121   5.155  1.00  0.00     0.168 HD
HETATM   11  C   UNK N   1      23.855  19.249   3.850  0.00  0.00     0.098 A 
HETATM   12  N   UNK N   1      21.518  19.347   3.486  0.00  0.00    -0.306 N 
HETATM   13  C   UNK N   1      24.061  20.382   3.079  0.00  0.00     0.125 A 
HETATM   14  N   UNK N   1      22.965  20.972   2.518  0.00  0.00    -0.330 N 
HETATM   15  C   UNK N   1      21.703  20.465   2.717  0.00  0.00     0.222 A 
ATOM     16  HN  UNK N   1      23.084  21.805   1.941  1.00  0.00     0.168 HD
ATOM     17  HN  UNK N   1      20.586  18.965   3.641  1.00  0.00     0.171 HD
BRANCH  15  18
HETATM   18  O   UNK N   1      20.644  21.075   2.160  0.00  0.00    -0.332 OA
HETATM   19  H   UNK N   1      20.766  21.856   1.656  0.00  0.00     0.220 HD
ENDBRANCH  15  18
ENDBRANCH   4   6
BRANCH   3  20
HETATM   20  O   UNK N   1      25.527  20.550   6.187  0.00  0.00    -0.388 OA
HETATM   21  H   UNK N   1      25.209  21.006   6.982  0.00  0.00     0.210 HD
ENDBRANCH   3  20
BRANCH   2  22
HETATM   22  O   UNK N   1      27.525  19.814   7.483  0.00  0.00    -0.390 OA
HETATM   23  H   UNK N   1      27.397  19.636   8.429  0.00  0.00     0.210 HD
ENDBRANCH   2  22
BRANCH   1  24
HETATM   24  C   UNK N   1      28.899  17.575   6.766  0.00  0.00     0.215 C 
BRANCH  24  25
HETATM   25  O   UNK N   1      28.125  17.063   7.818  0.00  0.00    -0.294 OA
BRANCH  25  26
HETATM   26  P   UNK N   1      29.081  17.262   9.264  0.00  0.00     0.390 P 
HETATM   27  O   UNK N   1      29.899  18.165   8.298  0.00  0.00    -0.632 OA
BRANCH  26  28
HETATM   28  O   UNK N   1      29.161  18.764  10.130  0.00  0.00    -0.307 OA
HETATM   29  H   UNK N   1      29.676  18.928  10.935  0.00  0.00     0.222 HD
ENDBRANCH  26  28
BRANCH  26  30
HETATM   30  O   UNK N   1      27.514  17.983   9.464  0.00  0.00    -0.307 OA
HETATM   31  H   UNK N   1      26.832  17.560  10.007  0.00  0.00     0.222 HD
ENDBRANCH  26  30
ENDBRANCH  25  26
ENDBRANCH  24  25
ENDBRANCH   1  24
TORSDOF 9
ENDMDL
MODEL 9
REMARK VINA RESULT:      -5.5     10.377     13.904
REMARK  9 active torsions:
REMARK  status: ('A' for Active; 'I' for Inactive)
REMARK    1  A    between atoms: C_5  and  C_2 
REMARK    2  A    between atoms: O_24  and  C_2 
REMARK    3  A    between atoms: C_6  and  O_18 
REMARK    4  A    between atoms: C_7  and  O_19 
REMARK    5  A    between atoms: C_9  and  N_17 
REMARK    6  A    between atoms: O_20  and  C_10 
REMARK    7  A    between atoms: P_26  and  O_21 
REMARK    8  A    between atoms: P_26  and  O_22 
REMARK    9  A    between atoms: P_26  and  O_24 
ROOT
HETATM    1  C   UNK N   1      22.911  16.925   3.827  0.00  0.00     0.180 C 
HETATM    2  C   UNK N   1      23.204  16.185   5.131  0.00  0.00     0.182 C 
HETATM    3  C   UNK N   1      24.715  15.940   5.036  0.00  0.00     0.198 C 
HETATM    4  C   UNK N   1      25.088  16.711   3.761  0.00  0.00     0.261 C 
HETATM    5  O   UNK N   1      24.076  17.679   3.575  0.00  0.00    -0.353 OA
ENDROOT
BRANCH   4   6
HETATM    6  N   UNK N   1      26.434  17.299   3.755  0.00  0.00    -0.308 N 
HETATM    7  C   UNK N   1      26.792  18.549   4.156  0.00  0.00     0.187 A 
HETATM    8  N   UNK N   1      28.145  18.711   4.132  0.00  0.00    -0.336 N 
HETATM    9  C   UNK N   1      28.610  17.517   3.731  0.00  0.00     0.138 A 
ATOM     10  HN  UNK N   1      28.681  19.548   4.365  1.00  0.00     0.168 HD
HETATM   11  C   UNK N   1      27.590  16.665   3.510  0.00  0.00     0.098 A 
HETATM   12  N   UNK N   1      29.906  17.150   3.589  0.00  0.00    -0.306 N 
HETATM   13  C   UNK N   1      27.839  15.357   3.127  0.00  0.00     0.125 A 
HETATM   14  N   UNK N   1      29.142  14.979   2.977  0.00  0.00    -0.330 N 
HETATM   15  C   UNK N   1      30.171  15.862   3.206  0.00  0.00     0.222 A 
ATOM     16  HN  UNK N   1      29.358  14.024   2.690  1.00  0.00     0.168 HD
ATOM     17  HN  UNK N   1      30.661  17.812   3.764  1.00  0.00     0.171 HD
BRANCH  15  18
HETATM   18  O   UNK N   1      31.442  15.457   3.060  0.00  0.00    -0.332 OA
HETATM   19  H   UNK N   1      32.130  16.089   2.986  0.00  0.00     0.220 HD
ENDBRANCH  15  18
ENDBRANCH   4   6
BRANCH   3  20
HETATM   20  O   UNK N   1      25.361  16.467   6.163  0.00  0.00    -0.388 OA
HETATM   21  H   UNK N   1      25.838  17.161   6.646  0.00  0.00     0.210 HD
ENDBRANCH   3  20
BRANCH   2  22
HETATM   22  O   UNK N   1      22.936  17.043   6.209  0.00  0.00    -0.390 OA
HETATM   23  H   UNK N   1      22.751  17.794   6.794  0.00  0.00     0.210 HD
ENDBRANCH   2  22
BRANCH   1  24
HETATM   24  C   UNK N   1      21.637  17.768   3.928  0.00  0.00     0.215 C 
BRANCH  24  25
HETATM   25  O   UNK N   1      21.902  19.119   4.196  0.00  0.00    -0.294 OA
BRANCH  25  26
HETATM   26  P   UNK N   1      21.334  20.009   2.806  0.00  0.00     0.390 P 
HETATM   27  O   UNK N   1      20.382  20.599   3.886  0.00  0.00    -0.632 OA
BRANCH  26  28
HETATM   28  O   UNK N   1      21.577  21.718   2.630  0.00  0.00    -0.307 OA
HETATM   29  H   UNK N   1      21.108  22.297   2.009  0.00  0.00     0.222 HD
ENDBRANCH  26  28
BRANCH  26  30
HETATM   30  O   UNK N   1      22.954  20.482   3.214  0.00  0.00    -0.307 OA
HETATM   31  H   UNK N   1      23.684  20.364   2.587  0.00  0.00     0.222 HD
ENDBRANCH  26  30
ENDBRANCH  25  26
ENDBRANCH  24  25
ENDBRANCH   1  24
TORSDOF 9
ENDMDL
