MODEL 1
REMARK VINA RESULT:      -2.3      0.000      0.000
REMARK  0 active torsions:
REMARK  status: ('A' for Active; 'I' for Inactive)
ROOT
HETATM    1  N   UNK N   1      18.576  19.492  10.742  0.00  0.00    -0.338 N 
HETATM    2  C   UNK N   1      17.684  19.165  11.750  0.00  0.00     0.174 C 
HETATM    3  N   UNK N   1      16.938  18.893  12.591  0.00  0.00    -0.172 NA
HETATM    4  H   UNK N   1      19.388  20.009  10.951  0.00  0.00     0.168 HD
HETATM    5  H   UNK N   1      18.399  19.207   9.816  0.00  0.00     0.168 HD
ENDROOT
TORSDOF 0
ENDMDL
MODEL 2
REMARK VINA RESULT:      -2.3      1.612      2.710
REMARK  0 active torsions:
REMARK  status: ('A' for Active; 'I' for Inactive)
ROOT
HETATM    1  N   UNK N   1      17.892  19.443  11.110  0.00  0.00    -0.338 N 
HETATM    2  C   UNK N   1      19.078  19.334  10.404  0.00  0.00     0.174 C 
HETATM    3  N   UNK N   1      20.069  19.242   9.814  0.00  0.00    -0.172 NA
HETATM    4  H   UNK N   1      17.041  19.180  10.689  0.00  0.00     0.168 HD
HETATM    5  H   UNK N   1      17.898  19.783  12.035  0.00  0.00     0.168 HD
ENDROOT
TORSDOF 0
ENDMDL
MODEL 3
REMARK VINA RESULT:      -2.3      9.226      9.268
REMARK  0 active torsions:
REMARK  status: ('A' for Active; 'I' for Inactive)
ROOT
HETATM    1  N   UNK N   1      22.676  11.569  11.691  0.00  0.00    -0.338 N 
HETATM    2  C   UNK N   1      23.204  11.886  12.932  0.00  0.00     0.174 C 
HETATM    3  N   UNK N   1      23.645  12.150  13.968  0.00  0.00    -0.172 NA
HETATM    4  H   UNK N   1      21.716  11.366  11.601  0.00  0.00     0.168 HD
HETATM    5  H   UNK N   1      23.259  11.548  10.898  0.00  0.00     0.168 HD
ENDROOT
TORSDOF 0
ENDMDL
MODEL 4
REMARK VINA RESULT:      -2.3     10.259     11.119
REMARK  0 active torsions:
REMARK  status: ('A' for Active; 'I' for Inactive)
ROOT
HETATM    1  N   UNK N   1      20.820  21.085   2.642  0.00  0.00    -0.338 N 
HETATM    2  C   UNK N   1      20.950  20.838   1.285  0.00  0.00     0.174 C 
HETATM    3  N   UNK N   1      21.059  20.632   0.152  0.00  0.00    -0.172 NA
HETATM    4  H   UNK N   1      21.279  21.855   3.049  0.00  0.00     0.168 HD
HETATM    5  H   UNK N   1      20.268  20.490   3.200  0.00  0.00     0.168 HD
ENDROOT
TORSDOF 0
ENDMDL
MODEL 5
REMARK VINA RESULT:      -2.2      9.933     10.594
REMARK  0 active torsions:
REMARK  status: ('A' for Active; 'I' for Inactive)
ROOT
HETATM    1  N   UNK N   1      20.430  20.916   0.502  0.00  0.00    -0.338 N 
HETATM    2  C   UNK N   1      20.837  20.873   1.825  0.00  0.00     0.174 C 
HETATM    3  N   UNK N   1      21.176  20.837   2.931  0.00  0.00    -0.172 NA
HETATM    4  H   UNK N   1      21.100  20.975  -0.218  0.00  0.00     0.168 HD
HETATM    5  H   UNK N   1      19.471  20.887   0.280  0.00  0.00     0.168 HD
ENDROOT
TORSDOF 0
ENDMDL
MODEL 6
REMARK VINA RESULT:      -2.1     16.996     17.212
REMARK  0 active torsions:
REMARK  status: ('A' for Active; 'I' for Inactive)
ROOT
HETATM    1  N   UNK N   1      34.395  17.283   9.714  0.00  0.00    -0.338 N 
HETATM    2  C   UNK N   1      34.476  17.801   8.432  0.00  0.00     0.174 C 
HETATM    3  N   UNK N   1      34.544  18.233   7.361  0.00  0.00    -0.172 NA
HETATM    4  H   UNK N   1      34.869  16.449   9.940  0.00  0.00     0.168 HD
HETATM    5  H   UNK N   1      33.863  17.748  10.401  0.00  0.00     0.168 HD
ENDROOT
TORSDOF 0
ENDMDL
MODEL 7
REMARK VINA RESULT:      -2.0     17.319     17.895
REMARK  0 active torsions:
REMARK  status: ('A' for Active; 'I' for Inactive)
ROOT
HETATM    1  N   UNK N   1      34.202  17.135   9.788  0.00  0.00    -0.338 N 
HETATM    2  C   UNK N   1      35.394  16.687  10.333  0.00  0.00     0.174 C 
HETATM    3  N   UNK N   1      36.390  16.312  10.787  0.00  0.00    -0.172 NA
HETATM    4  H   UNK N   1      34.204  17.626   8.934  0.00  0.00     0.168 HD
HETATM    5  H   UNK N   1      33.352  16.964  10.254  0.00  0.00     0.168 HD
ENDROOT
TORSDOF 0
ENDMDL
MODEL 8
REMARK VINA RESULT:      -1.9     27.249     27.943
REMARK  0 active torsions:
REMARK  status: ('A' for Active; 'I' for Inactive)
ROOT
HETATM    1  N   UNK N   1      45.711  22.279   4.189  0.00  0.00    -0.338 N 
HETATM    2  C   UNK N   1      44.398  21.851   4.082  0.00  0.00     0.174 C 
HETATM    3  N   UNK N   1      43.302  21.493   3.994  0.00  0.00    -0.172 NA
HETATM    4  H   UNK N   1      46.157  22.699   3.417  0.00  0.00     0.168 HD
HETATM    5  H   UNK N   1      46.200  22.163   5.036  0.00  0.00     0.168 HD
ENDROOT
TORSDOF 0
ENDMDL
MODEL 9
REMARK VINA RESULT:      -1.9      8.901      9.129
REMARK  0 active torsions:
REMARK  status: ('A' for Active; 'I' for Inactive)
ROOT
HETATM    1  N   UNK N   1      18.953  18.742   2.422  0.00  0.00    -0.338 N 
HETATM    2  C   UNK N   1      19.854  19.622   2.999  0.00  0.00     0.174 C 
HETATM    3  N   UNK N   1      20.606  20.357   3.481  0.00  0.00    -0.172 NA
HETATM    4  H   UNK N   1      18.554  18.020   2.961  0.00  0.00     0.168 HD
HETATM    5  H   UNK N   1      18.710  18.838   1.472  0.00  0.00     0.168 HD
ENDROOT
TORSDOF 0
ENDMDL
