MODEL 1
REMARK VINA RESULT:      -5.8      0.000      0.000
REMARK  9 active torsions:
REMARK  status: ('A' for Active; 'I' for Inactive)
REMARK    1  A    between atoms: C_4  and  C_3 
REMARK    2  A    between atoms: O_13  and  C_3 
REMARK    3  A    between atoms: O_14  and  C_5 
REMARK    4  A    between atoms: C_6  and  O_15 
REMARK    5  A    between atoms: C_7  and  O_21 
REMARK    6  A    between atoms: C_8  and  N_12 
REMARK    7  A    between atoms: P_22  and  O_17 
REMARK    8  A    between atoms: P_22  and  O_18 
REMARK    9  A    between atoms: P_22  and  O_21 
ROOT
HETATM    1  C   UNK N   1      20.742  16.134   4.550  0.00  0.00     0.180 C 
HETATM    2  C   UNK N   1      21.643  17.755   5.889  0.00  0.00     0.199 C 
HETATM    3  C   UNK N   1      20.495  16.769   5.923  0.00  0.00     0.197 C 
HETATM    4  C   UNK N   1      21.485  18.273   4.457  0.00  0.00     0.264 C 
HETATM    5  O   UNK N   1      21.212  17.134   3.664  0.00  0.00    -0.353 OA
ENDROOT
BRANCH   4   6
HETATM    6  N   UNK N   1      22.611  19.050   3.879  0.00  0.00    -0.280 N 
HETATM    7  C   UNK N   1      23.856  18.521   4.074  0.00  0.00     0.103 A 
HETATM    8  C   UNK N   1      24.996  19.145   3.579  0.00  0.00     0.073 A 
HETATM    9  C   UNK N   1      24.855  20.324   2.865  0.00  0.00     0.144 A 
HETATM   10  N   UNK N   1      23.624  20.848   2.663  0.00  0.00    -0.289 N 
HETATM   11  C   UNK N   1      22.500  20.236   3.154  0.00  0.00     0.330 A 
ATOM     12  HN  UNK N   1      23.529  21.715   2.133  1.00  0.00     0.172 HD
HETATM   13  O   UNK N   1      21.417  20.744   2.930  0.00  0.00    -0.246 OA
BRANCH   9  14
HETATM   14  O   UNK N   1      25.939  20.946   2.371  0.00  0.00    -0.346 OA
HETATM   15  H   UNK N   1      26.135  21.827   2.624  0.00  0.00     0.219 HD
ENDBRANCH   9  14
ENDBRANCH   4   6
BRANCH   2  16
HETATM   16  O   UNK N   1      21.508  18.783   6.827  0.00  0.00    -0.388 OA
HETATM   17  H   UNK N   1      20.851  19.335   7.279  0.00  0.00     0.210 HD
ENDBRANCH   2  16
BRANCH   3  18
HETATM   18  O   UNK N   1      20.493  15.738   6.901  0.00  0.00    -0.286 OA
BRANCH  18  19
HETATM   19  P   UNK N   1      19.490  16.067   8.301  0.00  0.00     0.391 P 
HETATM   20  O   UNK N   1      18.067  16.445   7.808  0.00  0.00    -0.632 OA
BRANCH  19  21
HETATM   21  O   UNK N   1      19.355  14.735   9.405  0.00  0.00    -0.307 OA
HETATM   22  H   UNK N   1      19.395  14.090  10.128  0.00  0.00     0.222 HD
ENDBRANCH  19  21
BRANCH  19  23
HETATM   23  O   UNK N   1      20.083  17.473   9.130  0.00  0.00    -0.307 OA
HETATM   24  H   UNK N   1      19.569  18.279   9.298  0.00  0.00     0.222 HD
ENDBRANCH  19  23
ENDBRANCH  18  19
ENDBRANCH   3  18
BRANCH   1  25
HETATM   25  C   UNK N   1      19.505  15.442   3.987  0.00  0.00     0.198 C 
BRANCH  25  26
HETATM   26  O   UNK N   1      18.365  15.809   4.705  0.00  0.00    -0.398 OA
HETATM   27  H   UNK N   1      17.763  15.781   5.465  0.00  0.00     0.209 HD
ENDBRANCH  25  26
ENDBRANCH   1  25
TORSDOF 9
ENDMDL
MODEL 2
REMARK VINA RESULT:      -5.8      8.921     10.797
REMARK  9 active torsions:
REMARK  status: ('A' for Active; 'I' for Inactive)
REMARK    1  A    between atoms: C_4  and  C_3 
REMARK    2  A    between atoms: O_13  and  C_3 
REMARK    3  A    between atoms: O_14  and  C_5 
REMARK    4  A    between atoms: C_6  and  O_15 
REMARK    5  A    between atoms: C_7  and  O_21 
REMARK    6  A    between atoms: C_8  and  N_12 
REMARK    7  A    between atoms: P_22  and  O_17 
REMARK    8  A    between atoms: P_22  and  O_18 
REMARK    9  A    between atoms: P_22  and  O_21 
ROOT
HETATM    1  C   UNK N   1      31.890  15.724   6.695  0.00  0.00     0.180 C 
HETATM    2  C   UNK N   1      31.370  17.408   8.153  0.00  0.00     0.199 C 
HETATM    3  C   UNK N   1      32.201  16.143   8.137  0.00  0.00     0.197 C 
HETATM    4  C   UNK N   1      30.104  16.885   7.468  0.00  0.00     0.264 C 
HETATM    5  O   UNK N   1      30.553  16.079   6.396  0.00  0.00    -0.353 OA
ENDROOT
BRANCH   4   6
HETATM    6  N   UNK N   1      29.118  17.886   6.988  0.00  0.00    -0.280 N 
HETATM    7  C   UNK N   1      29.067  18.063   5.633  0.00  0.00     0.103 A 
HETATM    8  C   UNK N   1      28.183  18.965   5.051  0.00  0.00     0.073 A 
HETATM    9  C   UNK N   1      27.333  19.691   5.870  0.00  0.00     0.144 A 
HETATM   10  N   UNK N   1      27.375  19.514   7.212  0.00  0.00    -0.289 N 
HETATM   11  C   UNK N   1      28.249  18.627   7.786  0.00  0.00     0.330 A 
ATOM     12  HN  UNK N   1      26.744  20.050   7.807  1.00  0.00     0.172 HD
HETATM   13  O   UNK N   1      28.233  18.499   8.997  0.00  0.00    -0.246 OA
BRANCH   9  14
HETATM   14  O   UNK N   1      26.466  20.565   5.335  0.00  0.00    -0.346 OA
HETATM   15  H   UNK N   1      26.514  20.780   4.423  0.00  0.00     0.219 HD
ENDBRANCH   9  14
ENDBRANCH   4   6
BRANCH   2  16
HETATM   16  O   UNK N   1      31.103  17.871   9.445  0.00  0.00    -0.388 OA
HETATM   17  H   UNK N   1      30.953  18.678   9.961  0.00  0.00     0.210 HD
ENDBRANCH   2  16
BRANCH   3  18
HETATM   18  O   UNK N   1      33.611  16.235   8.284  0.00  0.00    -0.286 OA
BRANCH  18  19
HETATM   19  P   UNK N   1      34.207  15.770   9.867  0.00  0.00     0.391 P 
HETATM   20  O   UNK N   1      35.246  14.631   9.685  0.00  0.00    -0.632 OA
BRANCH  19  21
HETATM   21  O   UNK N   1      34.957  17.064  10.748  0.00  0.00    -0.307 OA
HETATM   22  H   UNK N   1      35.261  17.736  11.379  0.00  0.00     0.222 HD
ENDBRANCH  19  21
BRANCH  19  23
HETATM   23  O   UNK N   1      32.917  15.080  10.800  0.00  0.00    -0.307 OA
HETATM   24  H   UNK N   1      32.200  15.583  11.218  0.00  0.00     0.222 HD
ENDBRANCH  19  23
ENDBRANCH  18  19
ENDBRANCH   3  18
BRANCH   1  25
HETATM   25  C   UNK N   1      32.131  14.238   6.446  0.00  0.00     0.198 C 
BRANCH  25  26
HETATM   26  O   UNK N   1      32.296  13.556   7.653  0.00  0.00    -0.398 OA
HETATM   27  H   UNK N   1      32.339  12.764   8.212  0.00  0.00     0.209 HD
ENDBRANCH  25  26
ENDBRANCH   1  25
TORSDOF 9
ENDMDL
MODEL 3
REMARK VINA RESULT:      -5.7     13.458     15.023
REMARK  9 active torsions:
REMARK  status: ('A' for Active; 'I' for Inactive)
REMARK    1  A    between atoms: C_4  and  C_3 
REMARK    2  A    between atoms: O_13  and  C_3 
REMARK    3  A    between atoms: O_14  and  C_5 
REMARK    4  A    between atoms: C_6  and  O_15 
REMARK    5  A    between atoms: C_7  and  O_21 
REMARK    6  A    between atoms: C_8  and  N_12 
REMARK    7  A    between atoms: P_22  and  O_17 
REMARK    8  A    between atoms: P_22  and  O_18 
REMARK    9  A    between atoms: P_22  and  O_21 
ROOT
HETATM    1  C   UNK N   1      36.628  14.449   9.931  0.00  0.00     0.180 C 
HETATM    2  C   UNK N   1      34.537  15.197  10.481  0.00  0.00     0.199 C 
HETATM    3  C   UNK N   1      35.641  14.368  11.102  0.00  0.00     0.197 C 
HETATM    4  C   UNK N   1      34.536  14.596   9.072  0.00  0.00     0.264 C 
HETATM    5  O   UNK N   1      35.897  14.444   8.718  0.00  0.00    -0.353 OA
ENDROOT
BRANCH   4   6
HETATM    6  N   UNK N   1      33.803  15.334   8.011  0.00  0.00    -0.280 N 
HETATM    7  C   UNK N   1      34.357  16.524   7.628  0.00  0.00     0.103 A 
HETATM    8  C   UNK N   1      33.776  17.311   6.640  0.00  0.00     0.073 A 
HETATM    9  C   UNK N   1      32.614  16.866   6.029  0.00  0.00     0.144 A 
HETATM   10  N   UNK N   1      32.066  15.685   6.400  0.00  0.00    -0.289 N 
HETATM   11  C   UNK N   1      32.637  14.911   7.377  0.00  0.00     0.330 A 
ATOM     12  HN  UNK N   1      31.213  15.363   5.943  1.00  0.00     0.172 HD
HETATM   13  O   UNK N   1      32.108  13.851   7.660  0.00  0.00    -0.246 OA
BRANCH   9  14
HETATM   14  O   UNK N   1      32.034  17.603   5.068  0.00  0.00    -0.346 OA
HETATM   15  H   UNK N   1      32.508  17.819   4.288  0.00  0.00     0.219 HD
ENDBRANCH   9  14
ENDBRANCH   4   6
BRANCH   2  16
HETATM   16  O   UNK N   1      33.303  15.026  11.115  0.00  0.00    -0.388 OA
HETATM   17  H   UNK N   1      32.355  15.209  11.023  0.00  0.00     0.210 HD
ENDBRANCH   2  16
BRANCH   3  18
HETATM   18  O   UNK N   1      36.293  14.842  12.272  0.00  0.00    -0.286 OA
BRANCH  18  19
HETATM   19  P   UNK N   1      36.228  13.741  13.636  0.00  0.00     0.391 P 
HETATM   20  O   UNK N   1      36.707  14.500  14.903  0.00  0.00    -0.632 OA
BRANCH  19  21
HETATM   21  O   UNK N   1      34.649  13.091  13.946  0.00  0.00    -0.307 OA
HETATM   22  H   UNK N   1      33.733  12.772  13.941  0.00  0.00     0.222 HD
ENDBRANCH  19  21
BRANCH  19  23
HETATM   23  O   UNK N   1      37.370  12.454  13.405  0.00  0.00    -0.307 OA
HETATM   24  H   UNK N   1      38.212  12.365  13.879  0.00  0.00     0.222 HD
ENDBRANCH  19  23
ENDBRANCH  18  19
ENDBRANCH   3  18
BRANCH   1  25
HETATM   25  C   UNK N   1      37.663  13.329   9.951  0.00  0.00     0.198 C 
BRANCH  25  26
HETATM   26  O   UNK N   1      38.635  13.574  10.923  0.00  0.00    -0.398 OA
HETATM   27  H   UNK N   1      39.512  13.477  11.328  0.00  0.00     0.209 HD
ENDBRANCH  25  26
ENDBRANCH   1  25
TORSDOF 9
ENDMDL
MODEL 4
REMARK VINA RESULT:      -5.6     10.401     12.211
REMARK  9 active torsions:
REMARK  status: ('A' for Active; 'I' for Inactive)
REMARK    1  A    between atoms: C_4  and  C_3 
REMARK    2  A    between atoms: O_13  and  C_3 
REMARK    3  A    between atoms: O_14  and  C_5 
REMARK    4  A    between atoms: C_6  and  O_15 
REMARK    5  A    between atoms: C_7  and  O_21 
REMARK    6  A    between atoms: C_8  and  N_12 
REMARK    7  A    between atoms: P_22  and  O_17 
REMARK    8  A    between atoms: P_22  and  O_18 
REMARK    9  A    between atoms: P_22  and  O_21 
ROOT
HETATM    1  C   UNK N   1      33.154  14.186   7.848  0.00  0.00     0.180 C 
HETATM    2  C   UNK N   1      32.951  16.444   8.155  0.00  0.00     0.199 C 
HETATM    3  C   UNK N   1      33.592  15.260   8.849  0.00  0.00     0.197 C 
HETATM    4  C   UNK N   1      31.591  15.827   7.815  0.00  0.00     0.264 C 
HETATM    5  O   UNK N   1      31.867  14.517   7.358  0.00  0.00    -0.353 OA
ENDROOT
BRANCH   4   6
HETATM    6  N   UNK N   1      30.734  16.548   6.839  0.00  0.00    -0.280 N 
HETATM    7  C   UNK N   1      31.177  16.540   5.545  0.00  0.00     0.103 A 
HETATM    8  C   UNK N   1      30.466  17.172   4.530  0.00  0.00     0.073 A 
HETATM    9  C   UNK N   1      29.279  17.812   4.846  0.00  0.00     0.144 A 
HETATM   10  N   UNK N   1      28.833  17.816   6.124  0.00  0.00    -0.289 N 
HETATM   11  C   UNK N   1      29.535  17.197   7.125  0.00  0.00     0.330 A 
ATOM     12  HN  UNK N   1      27.956  18.288   6.347  1.00  0.00     0.172 HD
HETATM   13  O   UNK N   1      29.079  17.221   8.254  0.00  0.00    -0.246 OA
BRANCH   9  14
HETATM   14  O   UNK N   1      28.569  18.426   3.884  0.00  0.00    -0.346 OA
HETATM   15  H   UNK N   1      27.654  18.589   4.005  0.00  0.00     0.219 HD
ENDBRANCH   9  14
ENDBRANCH   4   6
BRANCH   2  16
HETATM   16  O   UNK N   1      32.817  17.559   8.987  0.00  0.00    -0.388 OA
HETATM   17  H   UNK N   1      32.295  18.366   9.121  0.00  0.00     0.210 HD
ENDBRANCH   2  16
BRANCH   3  18
HETATM   18  O   UNK N   1      35.006  15.210   8.972  0.00  0.00    -0.286 OA
BRANCH  18  19
HETATM   19  P   UNK N   1      35.616  15.701  10.542  0.00  0.00     0.391 P 
HETATM   20  O   UNK N   1      35.012  14.761  11.619  0.00  0.00    -0.632 OA
BRANCH  19  21
HETATM   21  O   UNK N   1      37.346  15.653  10.676  0.00  0.00    -0.307 OA
HETATM   22  H   UNK N   1      38.302  15.496  10.617  0.00  0.00     0.222 HD
ENDBRANCH  19  21
BRANCH  19  23
HETATM   23  O   UNK N   1      35.030  17.289  10.928  0.00  0.00    -0.307 OA
HETATM   24  H   UNK N   1      34.099  17.560  10.906  0.00  0.00     0.222 HD
ENDBRANCH  19  23
ENDBRANCH  18  19
ENDBRANCH   3  18
BRANCH   1  25
HETATM   25  C   UNK N   1      33.168  12.781   8.442  0.00  0.00     0.198 C 
BRANCH  25  26
HETATM   26  O   UNK N   1      33.489  12.825   9.801  0.00  0.00    -0.398 OA
HETATM   27  H   UNK N   1      33.892  12.487  10.616  0.00  0.00     0.209 HD
ENDBRANCH  25  26
ENDBRANCH   1  25
TORSDOF 9
ENDMDL
MODEL 5
REMARK VINA RESULT:      -5.6     12.916     14.518
REMARK  9 active torsions:
REMARK  status: ('A' for Active; 'I' for Inactive)
REMARK    1  A    between atoms: C_4  and  C_3 
REMARK    2  A    between atoms: O_13  and  C_3 
REMARK    3  A    between atoms: O_14  and  C_5 
REMARK    4  A    between atoms: C_6  and  O_15 
REMARK    5  A    between atoms: C_7  and  O_21 
REMARK    6  A    between atoms: C_8  and  N_12 
REMARK    7  A    between atoms: P_22  and  O_17 
REMARK    8  A    between atoms: P_22  and  O_18 
REMARK    9  A    between atoms: P_22  and  O_21 
ROOT
HETATM    1  C   UNK N   1      26.035  22.765  -7.656  0.00  0.00     0.180 C 
HETATM    2  C   UNK N   1      27.675  23.440  -6.212  0.00  0.00     0.199 C 
HETATM    3  C   UNK N   1      27.329  22.222  -7.042  0.00  0.00     0.197 C 
HETATM    4  C   UNK N   1      26.293  23.747  -5.631  0.00  0.00     0.264 C 
HETATM    5  O   UNK N   1      25.380  23.575  -6.697  0.00  0.00    -0.353 OA
ENDROOT
BRANCH   4   6
HETATM    6  N   UNK N   1      26.097  25.072  -4.988  0.00  0.00    -0.280 N 
HETATM    7  C   UNK N   1      25.491  26.021  -5.763  0.00  0.00     0.103 A 
HETATM    8  C   UNK N   1      25.242  27.302  -5.281  0.00  0.00     0.073 A 
HETATM    9  C   UNK N   1      25.610  27.609  -3.981  0.00  0.00     0.144 A 
HETATM   10  N   UNK N   1      26.203  26.670  -3.207  0.00  0.00    -0.289 N 
HETATM   11  C   UNK N   1      26.453  25.409  -3.683  0.00  0.00     0.330 A 
ATOM     12  HN  UNK N   1      26.468  26.904  -2.250  1.00  0.00     0.172 HD
HETATM   13  O   UNK N   1      26.975  24.601  -2.938  0.00  0.00    -0.246 OA
BRANCH   9  14
HETATM   14  O   UNK N   1      25.376  28.837  -3.487  0.00  0.00    -0.346 OA
HETATM   15  H   UNK N   1      24.588  29.292  -3.711  0.00  0.00     0.219 HD
ENDBRANCH   9  14
ENDBRANCH   4   6
BRANCH   2  16
HETATM   16  O   UNK N   1      28.609  23.170  -5.208  0.00  0.00    -0.388 OA
HETATM   17  H   UNK N   1      29.158  22.463  -4.832  0.00  0.00     0.210 HD
ENDBRANCH   2  16
BRANCH   3  18
HETATM   18  O   UNK N   1      28.197  21.829  -8.096  0.00  0.00    -0.286 OA
BRANCH  18  19
HETATM   19  P   UNK N   1      29.381  20.614  -7.647  0.00  0.00     0.391 P 
HETATM   20  O   UNK N   1      30.531  20.642  -8.689  0.00  0.00    -0.632 OA
BRANCH  19  21
HETATM   21  O   UNK N   1      30.063  20.841  -6.067  0.00  0.00    -0.307 OA
HETATM   22  H   UNK N   1      30.539  20.813  -5.223  0.00  0.00     0.222 HD
ENDBRANCH  19  21
BRANCH  19  23
HETATM   23  O   UNK N   1      28.676  19.033  -7.773  0.00  0.00    -0.307 OA
HETATM   24  H   UNK N   1      29.010  18.318  -8.338  0.00  0.00     0.222 HD
ENDBRANCH  19  23
ENDBRANCH  18  19
ENDBRANCH   3  18
BRANCH   1  25
HETATM   25  C   UNK N   1      25.111  21.662  -8.163  0.00  0.00     0.198 C 
BRANCH  25  26
HETATM   26  O   UNK N   1      23.773  22.037  -8.024  0.00  0.00    -0.398 OA
HETATM   27  H   UNK N   1      23.003  22.605  -8.184  0.00  0.00     0.209 HD
ENDBRANCH  25  26
ENDBRANCH   1  25
TORSDOF 9
ENDMDL
MODEL 6
REMARK VINA RESULT:      -5.6      9.864     11.885
REMARK  9 active torsions:
REMARK  status: ('A' for Active; 'I' for Inactive)
REMARK    1  A    between atoms: C_4  and  C_3 
REMARK    2  A    between atoms: O_13  and  C_3 
REMARK    3  A    between atoms: O_14  and  C_5 
REMARK    4  A    between atoms: C_6  and  O_15 
REMARK    5  A    between atoms: C_7  and  O_21 
REMARK    6  A    between atoms: C_8  and  N_12 
REMARK    7  A    between atoms: P_22  and  O_17 
REMARK    8  A    between atoms: P_22  and  O_18 
REMARK    9  A    between atoms: P_22  and  O_21 
ROOT
HETATM    1  C   UNK N   1      31.771  16.388   6.103  0.00  0.00     0.180 C 
HETATM    2  C   UNK N   1      31.262  17.036   8.237  0.00  0.00     0.199 C 
HETATM    3  C   UNK N   1      30.721  17.229   6.836  0.00  0.00     0.197 C 
HETATM    4  C   UNK N   1      32.754  17.240   7.958  0.00  0.00     0.264 C 
HETATM    5  O   UNK N   1      33.019  16.548   6.754  0.00  0.00    -0.353 OA
ENDROOT
BRANCH   4   6
HETATM    6  N   UNK N   1      33.713  16.830   9.015  0.00  0.00    -0.280 N 
HETATM    7  C   UNK N   1      33.448  15.633   9.621  0.00  0.00     0.103 A 
HETATM    8  C   UNK N   1      34.271  15.129  10.623  0.00  0.00     0.073 A 
HETATM    9  C   UNK N   1      35.387  15.857  11.001  0.00  0.00     0.144 A 
HETATM   10  N   UNK N   1      35.658  17.038  10.397  0.00  0.00    -0.289 N 
HETATM   11  C   UNK N   1      34.845  17.538   9.413  0.00  0.00     0.330 A 
ATOM     12  HN  UNK N   1      36.484  17.567  10.680  1.00  0.00     0.172 HD
HETATM   13  O   UNK N   1      35.145  18.599   8.896  0.00  0.00    -0.246 OA
BRANCH   9  14
HETATM   14  O   UNK N   1      36.202  15.391  11.961  0.00  0.00    -0.346 OA
HETATM   15  H   UNK N   1      36.537  15.969  12.618  0.00  0.00     0.219 HD
ENDBRANCH   9  14
ENDBRANCH   4   6
BRANCH   2  16
HETATM   16  O   UNK N   1      30.774  17.979   9.146  0.00  0.00    -0.388 OA
HETATM   17  H   UNK N   1      30.357  18.853   9.205  0.00  0.00     0.210 HD
ENDBRANCH   2  16
BRANCH   3  18
HETATM   18  O   UNK N   1      29.433  16.723   6.513  0.00  0.00    -0.286 OA
BRANCH  18  19
HETATM   19  P   UNK N   1      28.178  17.944   6.409  0.00  0.00     0.391 P 
HETATM   20  O   UNK N   1      28.447  18.818   5.155  0.00  0.00    -0.632 OA
BRANCH  19  21
HETATM   21  O   UNK N   1      26.571  17.298   6.296  0.00  0.00    -0.307 OA
HETATM   22  H   UNK N   1      25.667  16.968   6.417  0.00  0.00     0.222 HD
ENDBRANCH  19  21
BRANCH  19  23
HETATM   23  O   UNK N   1      28.296  19.023   7.763  0.00  0.00    -0.307 OA
HETATM   24  H   UNK N   1      28.161  18.770   8.690  0.00  0.00     0.222 HD
ENDBRANCH  19  23
ENDBRANCH  18  19
ENDBRANCH   3  18
BRANCH   1  25
HETATM   25  C   UNK N   1      31.878  16.734   4.621  0.00  0.00     0.198 C 
BRANCH  25  26
HETATM   26  O   UNK N   1      31.157  17.895   4.333  0.00  0.00    -0.398 OA
HETATM   27  H   UNK N   1      30.420  18.516   4.441  0.00  0.00     0.209 HD
ENDBRANCH  25  26
ENDBRANCH   1  25
TORSDOF 9
ENDMDL
MODEL 7
REMARK VINA RESULT:      -5.6     12.522     14.456
REMARK  9 active torsions:
REMARK  status: ('A' for Active; 'I' for Inactive)
REMARK    1  A    between atoms: C_4  and  C_3 
REMARK    2  A    between atoms: O_13  and  C_3 
REMARK    3  A    between atoms: O_14  and  C_5 
REMARK    4  A    between atoms: C_6  and  O_15 
REMARK    5  A    between atoms: C_7  and  O_21 
REMARK    6  A    between atoms: C_8  and  N_12 
REMARK    7  A    between atoms: P_22  and  O_17 
REMARK    8  A    between atoms: P_22  and  O_18 
REMARK    9  A    between atoms: P_22  and  O_21 
ROOT
HETATM    1  C   UNK N   1      30.388  22.796  -5.727  0.00  0.00     0.180 C 
HETATM    2  C   UNK N   1      30.550  23.663  -3.617  0.00  0.00     0.199 C 
HETATM    3  C   UNK N   1      31.038  22.451  -4.383  0.00  0.00     0.197 C 
HETATM    4  C   UNK N   1      29.096  23.691  -4.096  0.00  0.00     0.264 C 
HETATM    5  O   UNK N   1      29.143  23.424  -5.484  0.00  0.00    -0.353 OA
ENDROOT
BRANCH   4   6
HETATM    6  N   UNK N   1      28.308  24.923  -3.830  0.00  0.00    -0.280 N 
HETATM    7  C   UNK N   1      28.938  26.101  -4.123  0.00  0.00     0.103 A 
HETATM    8  C   UNK N   1      28.311  27.327  -3.928  0.00  0.00     0.073 A 
HETATM    9  C   UNK N   1      27.016  27.344  -3.434  0.00  0.00     0.144 A 
HETATM   10  N   UNK N   1      26.387  26.179  -3.150  0.00  0.00    -0.289 N 
HETATM   11  C   UNK N   1      27.005  24.971  -3.339  0.00  0.00     0.330 A 
ATOM     12  HN  UNK N   1      25.432  26.201  -2.790  1.00  0.00     0.172 HD
HETATM   13  O   UNK N   1      26.386  23.955  -3.079  0.00  0.00    -0.246 OA
BRANCH   9  14
HETATM   14  O   UNK N   1      26.384  28.514  -3.241  0.00  0.00    -0.346 OA
HETATM   15  H   UNK N   1      25.721  28.589  -2.584  0.00  0.00     0.219 HD
ENDBRANCH   9  14
ENDBRANCH   4   6
BRANCH   2  16
HETATM   16  O   UNK N   1      30.633  23.503  -2.230  0.00  0.00    -0.388 OA
HETATM   17  H   UNK N   1      31.198  23.148  -1.526  0.00  0.00     0.210 HD
ENDBRANCH   2  16
BRANCH   3  18
HETATM   18  O   UNK N   1      32.433  22.276  -4.590  0.00  0.00    -0.286 OA
BRANCH  18  19
HETATM   19  P   UNK N   1      33.162  21.026  -3.599  0.00  0.00     0.391 P 
HETATM   20  O   UNK N   1      34.701  21.078  -3.795  0.00  0.00    -0.632 OA
BRANCH  19  21
HETATM   21  O   UNK N   1      32.818  21.175  -1.904  0.00  0.00    -0.307 OA
HETATM   22  H   UNK N   1      32.450  21.217  -1.007  0.00  0.00     0.222 HD
ENDBRANCH  19  21
BRANCH  19  23
HETATM   23  O   UNK N   1      32.673  19.462  -4.173  0.00  0.00    -0.307 OA
HETATM   24  H   UNK N   1      31.901  18.968  -3.853  0.00  0.00     0.222 HD
ENDBRANCH  19  23
ENDBRANCH  18  19
ENDBRANCH   3  18
BRANCH   1  25
HETATM   25  C   UNK N   1      30.219  21.579  -6.632  0.00  0.00     0.198 C 
BRANCH  25  26
HETATM   26  O   UNK N   1      30.422  20.399  -5.913  0.00  0.00    -0.398 OA
HETATM   27  H   UNK N   1      30.267  19.464  -5.704  0.00  0.00     0.209 HD
ENDBRANCH  25  26
ENDBRANCH   1  25
TORSDOF 9
ENDMDL
MODEL 8
REMARK VINA RESULT:      -5.5     14.627     16.522
REMARK  9 active torsions:
REMARK  status: ('A' for Active; 'I' for Inactive)
REMARK    1  A    between atoms: C_4  and  C_3 
REMARK    2  A    between atoms: O_13  and  C_3 
REMARK    3  A    between atoms: O_14  and  C_5 
REMARK    4  A    between atoms: C_6  and  O_15 
REMARK    5  A    between atoms: C_7  and  O_21 
REMARK    6  A    between atoms: C_8  and  N_12 
REMARK    7  A    between atoms: P_22  and  O_17 
REMARK    8  A    between atoms: P_22  and  O_18 
REMARK    9  A    between atoms: P_22  and  O_21 
ROOT
HETATM    1  C   UNK N   1      33.834  14.932  10.449  0.00  0.00     0.180 C 
HETATM    2  C   UNK N   1      36.009  15.362  11.010  0.00  0.00     0.199 C 
HETATM    3  C   UNK N   1      34.986  15.836   9.999  0.00  0.00     0.197 C 
HETATM    4  C   UNK N   1      35.771  13.853  10.917  0.00  0.00     0.264 C 
HETATM    5  O   UNK N   1      34.367  13.688  10.865  0.00  0.00    -0.353 OA
ENDROOT
BRANCH   4   6
HETATM    6  N   UNK N   1      36.355  12.998  11.982  0.00  0.00    -0.280 N 
HETATM    7  C   UNK N   1      37.287  12.089  11.565  0.00  0.00     0.103 A 
HETATM    8  C   UNK N   1      37.916  11.231  12.461  0.00  0.00     0.073 A 
HETATM    9  C   UNK N   1      37.592  11.314  13.806  0.00  0.00     0.144 A 
HETATM   10  N   UNK N   1      36.676  12.218  14.224  0.00  0.00    -0.289 N 
HETATM   11  C   UNK N   1      36.052  13.061  13.341  0.00  0.00     0.330 A 
ATOM     12  HN  UNK N   1      36.445  12.275  15.216  1.00  0.00     0.172 HD
HETATM   13  O   UNK N   1      35.246  13.864  13.776  0.00  0.00    -0.246 OA
BRANCH   9  14
HETATM   14  O   UNK N   1      38.189  10.502  14.694  0.00  0.00    -0.346 OA
HETATM   15  H   UNK N   1      37.955  10.541  15.601  0.00  0.00     0.219 HD
ENDBRANCH   9  14
ENDBRANCH   4   6
BRANCH   2  16
HETATM   16  O   UNK N   1      37.320  15.700  10.661  0.00  0.00    -0.388 OA
HETATM   17  H   UNK N   1      38.237  15.668  10.977  0.00  0.00     0.210 HD
ENDBRANCH   2  16
BRANCH   3  18
HETATM   18  O   UNK N   1      34.541  17.185  10.041  0.00  0.00    -0.286 OA
BRANCH  18  19
HETATM   19  P   UNK N   1      34.358  17.938   8.467  0.00  0.00     0.391 P 
HETATM   20  O   UNK N   1      34.907  16.964   7.390  0.00  0.00    -0.632 OA
BRANCH  19  21
HETATM   21  O   UNK N   1      32.719  18.339   8.062  0.00  0.00    -0.307 OA
HETATM   22  H   UNK N   1      31.810  18.672   7.987  0.00  0.00     0.222 HD
ENDBRANCH  19  21
BRANCH  19  23
HETATM   23  O   UNK N   1      35.361  19.351   8.372  0.00  0.00    -0.307 OA
HETATM   24  H   UNK N   1      36.299  19.353   8.121  0.00  0.00     0.222 HD
ENDBRANCH  19  23
ENDBRANCH  18  19
ENDBRANCH   3  18
BRANCH   1  25
HETATM   25  C   UNK N   1      32.776  14.739   9.367  0.00  0.00     0.198 C 
BRANCH  25  26
HETATM   26  O   UNK N   1      31.792  15.725   9.459  0.00  0.00    -0.398 OA
HETATM   27  H   UNK N   1      31.472  16.638   9.534  0.00  0.00     0.209 HD
ENDBRANCH  25  26
ENDBRANCH   1  25
TORSDOF 9
ENDMDL
MODEL 9
REMARK VINA RESULT:      -5.5     17.311     18.874
REMARK  9 active torsions:
REMARK  status: ('A' for Active; 'I' for Inactive)
REMARK    1  A    between atoms: C_4  and  C_3 
REMARK    2  A    between atoms: O_13  and  C_3 
REMARK    3  A    between atoms: O_14  and  C_5 
REMARK    4  A    between atoms: C_6  and  O_15 
REMARK    5  A    between atoms: C_7  and  O_21 
REMARK    6  A    between atoms: C_8  and  N_12 
REMARK    7  A    between atoms: P_22  and  O_17 
REMARK    8  A    between atoms: P_22  and  O_18 
REMARK    9  A    between atoms: P_22  and  O_21 
ROOT
HETATM    1  C   UNK N   1      34.565  11.867  13.082  0.00  0.00     0.180 C 
HETATM    2  C   UNK N   1      35.987  13.330  14.116  0.00  0.00     0.199 C 
HETATM    3  C   UNK N   1      35.771  12.747  12.736  0.00  0.00     0.197 C 
HETATM    4  C   UNK N   1      35.830  12.057  14.953  0.00  0.00     0.264 C 
HETATM    5  O   UNK N   1      34.729  11.365  14.396  0.00  0.00    -0.353 OA
ENDROOT
BRANCH   4   6
HETATM    6  N   UNK N   1      35.655  12.215  16.419  0.00  0.00    -0.280 N 
HETATM    7  C   UNK N   1      35.309  13.469  16.842  0.00  0.00     0.103 A 
HETATM    8  C   UNK N   1      35.109  13.752  18.188  0.00  0.00     0.073 A 
HETATM    9  C   UNK N   1      35.257  12.732  19.115  0.00  0.00     0.144 A 
HETATM   10  N   UNK N   1      35.592  11.488  18.700  0.00  0.00    -0.289 N 
HETATM   11  C   UNK N   1      35.793  11.209  17.373  0.00  0.00     0.330 A 
ATOM     12  HN  UNK N   1      35.695  10.741  19.389  1.00  0.00     0.172 HD
HETATM   13  O   UNK N   1      36.080  10.069  17.057  0.00  0.00    -0.246 OA
BRANCH   9  14
HETATM   14  O   UNK N   1      35.064  12.976  20.421  0.00  0.00    -0.346 OA
HETATM   15  H   UNK N   1      34.211  12.879  20.798  0.00  0.00     0.219 HD
ENDBRANCH   9  14
ENDBRANCH   4   6
BRANCH   2  16
HETATM   16  O   UNK N   1      37.253  13.900  14.277  0.00  0.00    -0.388 OA
HETATM   17  H   UNK N   1      37.735  14.741  14.225  0.00  0.00     0.210 HD
ENDBRANCH   2  16
BRANCH   3  18
HETATM   18  O   UNK N   1      35.406  13.608  11.666  0.00  0.00    -0.286 OA
BRANCH  18  19
HETATM   19  P   UNK N   1      36.761  14.229  10.741  0.00  0.00     0.391 P 
HETATM   20  O   UNK N   1      36.558  13.841   9.252  0.00  0.00    -0.632 OA
BRANCH  19  21
HETATM   21  O   UNK N   1      36.955  15.951  10.840  0.00  0.00    -0.307 OA
HETATM   22  H   UNK N   1      37.019  16.911  10.713  0.00  0.00     0.222 HD
ENDBRANCH  19  21
BRANCH  19  23
HETATM   23  O   UNK N   1      38.223  13.434  11.235  0.00  0.00    -0.307 OA
HETATM   24  H   UNK N   1      38.397  13.092  12.126  0.00  0.00     0.222 HD
ENDBRANCH  19  23
ENDBRANCH  18  19
ENDBRANCH   3  18
BRANCH   1  25
HETATM   25  C   UNK N   1      34.354  10.732  12.085  0.00  0.00     0.198 C 
BRANCH  25  26
HETATM   26  O   UNK N   1      33.852  11.223  10.878  0.00  0.00    -0.398 OA
HETATM   27  H   UNK N   1      33.605  11.923  10.253  0.00  0.00     0.209 HD
ENDBRANCH  25  26
ENDBRANCH   1  25
TORSDOF 9
ENDMDL
