REMARK  0 active torsions:
REMARK  status: ('A' for Active; 'I' for Inactive)
ROOT
HETATM    1  N   UNK N   1       0.966   0.000   0.000  0.00  0.00    -0.338 N 
HETATM    2  C   UNK N   1       2.351   0.000   0.000  0.00  0.00     0.174 C 
HETATM    3  N   UNK N   1       3.508   0.000   0.000  0.00  0.00    -0.172 NA
HETATM    4  H   UNK N   1       0.473   0.853   0.000  0.00  0.00     0.168 HD
HETATM    5  H   UNK N   1       0.473  -0.853   0.000  0.00  0.00     0.168 HD
ENDROOT
TORSDOF 0
