MODEL 1
REMARK VINA RESULT:      -7.6      0.000      0.000
REMARK  19 active torsions:
REMARK  status: ('A' for Active; 'I' for Inactive)
REMARK    1  A    between atoms: C_1  and  O_4 
REMARK    2  A    between atoms: C_1  and  C_5 
REMARK    3  A    between atoms: O_4  and  P_8 
REMARK    4  A    between atoms: C_6  and  C_33 
REMARK    5  A    between atoms: C_7  and  O_12 
REMARK    6  A    between atoms: P_8  and  O_13 
REMARK    7  A    between atoms: P_8  and  O_14 
REMARK    8  A    between atoms: C_11  and  N_37 
REMARK    9  A    between atoms: O_13  and  C_16 
REMARK   10  A    between atoms: C_17  and  C_16 
REMARK   11  A    between atoms: C_19  and  O_22 
REMARK   12  A    between atoms: C_20  and  N_23 
REMARK   13  A    between atoms: C_21  and  O_24 
REMARK   14  A    between atoms: C_31  and  N_32 
REMARK   15  A    between atoms: C_33  and  C_34 
REMARK   16  A    between atoms: C_33  and  O_39 
REMARK   17  A    between atoms: C_34  and  C_35 
REMARK   18  A    between atoms: C_34  and  O_38 
REMARK   19  A    between atoms: C_35  and  O_36 
REMARK       I    between atoms: N_37  and  C_40 
ROOT
HETATM    1  C   UNK N   1      21.447  17.533   6.554  0.00  0.00     0.206 C 
HETATM    2  O   UNK N   1      20.877  17.037   7.671  0.00  0.00    -0.772 OA
HETATM    3  O   UNK N   1      21.608  18.740   6.453  0.00  0.00    -0.646 OA
HETATM    4  H   UNK N   1      20.603  16.675   8.491  0.00  0.00     0.167 HD
ENDROOT
BRANCH   1   5
HETATM    5  C   UNK N   1      21.882  16.623   5.425  0.00  0.00     0.264 C 
HETATM    6  O   UNK N   1      21.679  17.350   4.217  0.00  0.00    -0.336 OA
HETATM    7  C   UNK N   1      20.420  17.136   3.606  0.00  0.00     0.182 C 
HETATM    8  C   UNK N   1      20.454  15.696   3.083  0.00  0.00     0.145 C 
HETATM    9  C   UNK N   1      20.305  14.808   4.319  0.00  0.00     0.149 C 
HETATM   10  C   UNK N   1      21.093  15.273   5.548  0.00  0.00     0.115 C 
BRANCH   7  11
HETATM   11  C   UNK N   1      20.223  18.263   2.558  0.00  0.00     0.180 C 
BRANCH  11  12
HETATM   12  C   UNK N   1      21.017  19.535   2.933  0.00  0.00     0.173 C 
BRANCH  12  13
HETATM   13  C   UNK N   1      21.006  20.551   1.786  0.00  0.00     0.198 C 
BRANCH  13  14
HETATM   14  O   UNK N   1      20.715  19.929   0.574  0.00  0.00    -0.398 OA
HETATM   15  H   UNK N   1      21.343  19.978  -0.165  0.00  0.00     0.209 HD
ENDBRANCH  13  14
ENDBRANCH  12  13
BRANCH  12  16
HETATM   16  O   UNK N   1      20.512  20.119   4.097  0.00  0.00    -0.391 OA
HETATM   17  H   UNK N   1      19.555  20.189   4.239  0.00  0.00     0.210 HD
ENDBRANCH  12  16
ENDBRANCH  11  12
BRANCH  11  18
HETATM   18  O   UNK N   1      18.884  18.627   2.401  0.00  0.00    -0.390 OA
HETATM   19  H   UNK N   1      18.397  19.045   3.129  0.00  0.00     0.210 HD
ENDBRANCH  11  18
ENDBRANCH   7  11
BRANCH   8  20
HETATM   20  N   UNK N   1      19.375  15.396   2.170  0.00  0.00    -0.352 N 
HETATM   21  C   UNK N   1      19.554  14.601   1.086  0.00  0.00     0.214 C 
HETATM   22  O   UNK N   1      20.642  14.093   0.856  0.00  0.00    -0.274 OA
HETATM   23  C   UNK N   1      18.414  14.345   0.166  0.00  0.00     0.117 C 
HETATM   24  H   UNK N   1      18.484  15.779   2.340  0.00  0.00     0.163 HD
ENDBRANCH   8  20
BRANCH   9  25
HETATM   25  O   UNK N   1      20.587  13.473   4.029  0.00  0.00    -0.393 OA
HETATM   26  H   UNK N   1      21.321  13.019   4.470  0.00  0.00     0.210 HD
ENDBRANCH   9  25
BRANCH   5  27
HETATM   27  O   UNK N   1      23.285  16.429   5.601  0.00  0.00    -0.248 OA
BRANCH  27  28
HETATM   28  P   UNK N   1      24.250  16.704   4.148  0.00  0.00     0.396 P 
HETATM   29  O   UNK N   1      23.681  15.732   3.072  0.00  0.00    -0.631 OA
BRANCH  28  30
HETATM   30  O   UNK N   1      25.938  16.307   4.411  0.00  0.00    -0.294 OA
BRANCH  30  31
HETATM   31  C   UNK N   1      26.703  17.398   3.970  0.00  0.00     0.215 C 
BRANCH  31  32
HETATM   32  C   UNK N   1      27.333  18.048   5.185  0.00  0.00     0.180 C 
HETATM   33  O   UNK N   1      27.595  17.146   6.220  0.00  0.00    -0.353 OA
HETATM   34  C   UNK N   1      27.967  17.991   7.288  0.00  0.00     0.263 C 
HETATM   35  C   UNK N   1      27.657  19.431   6.887  0.00  0.00     0.198 C 
HETATM   36  C   UNK N   1      26.646  19.224   5.802  0.00  0.00     0.182 C 
BRANCH  34  37
HETATM   37  N   UNK N   1      29.383  17.788   7.617  0.00  0.00    -0.280 N 
HETATM   38  C   UNK N   1      29.924  18.154   8.842  0.00  0.00     0.330 A 
HETATM   39  N   UNK N   1      31.266  17.997   9.070  0.00  0.00    -0.295 N 
HETATM   40  O   UNK N   1      29.226  18.630   9.718  0.00  0.00    -0.246 OA
HETATM   41  C   UNK N   1      32.079  17.484   8.114  0.00  0.00     0.103 A 
ATOM     42  HN  UNK N   1      31.658  18.270   9.971  1.00  0.00     0.172 HD
HETATM   43  C   UNK N   1      31.554  17.103   6.884  0.00  0.00     0.065 A 
HETATM   44  C   UNK N   1      30.189  17.270   6.654  0.00  0.00     0.102 A 
BRANCH  41  45
HETATM   45  N   UNK N   1      33.457  17.345   8.366  0.00  0.00    -0.385 N 
HETATM   46  H   UNK N   1      33.810  17.200   9.274  0.00  0.00     0.157 HD
HETATM   47  H   UNK N   1      34.087  17.395   7.612  0.00  0.00     0.157 HD
ENDBRANCH  41  45
ENDBRANCH  34  37
BRANCH  35  48
HETATM   48  O   UNK N   1      27.125  20.159   7.950  0.00  0.00    -0.388 OA
HETATM   49  H   UNK N   1      27.368  21.081   8.131  0.00  0.00     0.210 HD
ENDBRANCH  35  48
BRANCH  36  50
HETATM   50  O   UNK N   1      26.623  20.316   4.935  0.00  0.00    -0.390 OA
HETATM   51  H   UNK N   1      27.255  20.943   4.548  0.00  0.00     0.210 HD
ENDBRANCH  36  50
ENDBRANCH  31  32
ENDBRANCH  30  31
ENDBRANCH  28  30
BRANCH  28  52
HETATM   52  O   UNK N   1      24.108  18.311   3.515  0.00  0.00    -0.307 OA
HETATM   53  H   UNK N   1      23.314  18.843   3.676  0.00  0.00     0.222 HD
ENDBRANCH  28  52
ENDBRANCH  27  28
ENDBRANCH   5  27
ENDBRANCH   1   5
TORSDOF 19
ENDMDL
MODEL 2
REMARK VINA RESULT:      -7.6      2.517     10.014
REMARK  19 active torsions:
REMARK  status: ('A' for Active; 'I' for Inactive)
REMARK    1  A    between atoms: C_1  and  O_4 
REMARK    2  A    between atoms: C_1  and  C_5 
REMARK    3  A    between atoms: O_4  and  P_8 
REMARK    4  A    between atoms: C_6  and  C_33 
REMARK    5  A    between atoms: C_7  and  O_12 
REMARK    6  A    between atoms: P_8  and  O_13 
REMARK    7  A    between atoms: P_8  and  O_14 
REMARK    8  A    between atoms: C_11  and  N_37 
REMARK    9  A    between atoms: O_13  and  C_16 
REMARK   10  A    between atoms: C_17  and  C_16 
REMARK   11  A    between atoms: C_19  and  O_22 
REMARK   12  A    between atoms: C_20  and  N_23 
REMARK   13  A    between atoms: C_21  and  O_24 
REMARK   14  A    between atoms: C_31  and  N_32 
REMARK   15  A    between atoms: C_33  and  C_34 
REMARK   16  A    between atoms: C_33  and  O_39 
REMARK   17  A    between atoms: C_34  and  C_35 
REMARK   18  A    between atoms: C_34  and  O_38 
REMARK   19  A    between atoms: C_35  and  O_36 
REMARK       I    between atoms: N_37  and  C_40 
ROOT
HETATM    1  C   UNK N   1      27.807  17.174   8.285  0.00  0.00     0.206 C 
HETATM    2  O   UNK N   1      26.914  16.424   7.608  0.00  0.00    -0.772 OA
HETATM    3  O   UNK N   1      27.691  17.289   9.497  0.00  0.00    -0.646 OA
HETATM    4  H   UNK N   1      26.380  15.805   7.150  0.00  0.00     0.167 HD
ENDROOT
BRANCH   1   5
HETATM    5  C   UNK N   1      28.939  17.880   7.571  0.00  0.00     0.264 C 
HETATM    6  O   UNK N   1      29.205  17.129   6.389  0.00  0.00    -0.336 OA
HETATM    7  C   UNK N   1      30.210  16.143   6.534  0.00  0.00     0.182 C 
HETATM    8  C   UNK N   1      31.525  16.912   6.699  0.00  0.00     0.145 C 
HETATM    9  C   UNK N   1      31.496  17.472   8.121  0.00  0.00     0.149 C 
HETATM   10  C   UNK N   1      30.139  18.024   8.571  0.00  0.00     0.115 C 
BRANCH   7  11
HETATM   11  C   UNK N   1      30.096  15.193   5.312  0.00  0.00     0.180 C 
BRANCH  11  12
HETATM   12  C   UNK N   1      28.666  15.187   4.727  0.00  0.00     0.173 C 
BRANCH  12  13
HETATM   13  C   UNK N   1      28.612  14.404   3.410  0.00  0.00     0.198 C 
BRANCH  13  14
HETATM   14  O   UNK N   1      29.847  14.429   2.765  0.00  0.00    -0.398 OA
HETATM   15  H   UNK N   1      30.547  15.028   3.070  0.00  0.00     0.209 HD
ENDBRANCH  13  14
ENDBRANCH  12  13
BRANCH  12  16
HETATM   16  O   UNK N   1      27.750  14.656   5.638  0.00  0.00    -0.391 OA
HETATM   17  H   UNK N   1      28.047  14.067   6.350  0.00  0.00     0.210 HD
ENDBRANCH  12  16
ENDBRANCH  11  12
BRANCH  11  18
HETATM   18  O   UNK N   1      30.437  13.873   5.619  0.00  0.00    -0.390 OA
HETATM   19  H   UNK N   1      31.055  13.380   5.057  0.00  0.00     0.210 HD
ENDBRANCH  11  18
ENDBRANCH   7  11
BRANCH   8  20
HETATM   20  N   UNK N   1      32.695  16.076   6.559  0.00  0.00    -0.352 N 
HETATM   21  C   UNK N   1      33.864  16.557   6.066  0.00  0.00     0.214 C 
HETATM   22  O   UNK N   1      33.969  17.730   5.739  0.00  0.00    -0.274 OA
HETATM   23  C   UNK N   1      35.031  15.646   5.921  0.00  0.00     0.117 C 
HETATM   24  H   UNK N   1      32.644  15.131   6.829  0.00  0.00     0.163 HD
ENDBRANCH   8  20
BRANCH   9  25
HETATM   25  O   UNK N   1      32.503  18.417   8.321  0.00  0.00    -0.393 OA
HETATM   26  H   UNK N   1      33.405  18.249   8.008  0.00  0.00     0.210 HD
ENDBRANCH   9  25
BRANCH   5  27
HETATM   27  O   UNK N   1      28.421  19.153   7.186  0.00  0.00    -0.248 OA
BRANCH  27  28
HETATM   28  P   UNK N   1      27.761  19.209   5.548  0.00  0.00     0.396 P 
HETATM   29  O   UNK N   1      27.194  20.649   5.369  0.00  0.00    -0.631 OA
BRANCH  28  30
HETATM   30  O   UNK N   1      26.444  18.069   5.346  0.00  0.00    -0.294 OA
BRANCH  30  31
HETATM   31  C   UNK N   1      25.623  18.549   4.313  0.00  0.00     0.215 C 
BRANCH  31  32
HETATM   32  C   UNK N   1      24.330  17.760   4.340  0.00  0.00     0.180 C 
HETATM   33  O   UNK N   1      23.190  18.564   4.235  0.00  0.00    -0.353 OA
HETATM   34  C   UNK N   1      22.140  17.657   4.491  0.00  0.00     0.263 C 
HETATM   35  C   UNK N   1      22.750  16.352   5.000  0.00  0.00     0.198 C 
HETATM   36  C   UNK N   1      24.090  16.819   5.476  0.00  0.00     0.182 C 
BRANCH  34  37
HETATM   37  N   UNK N   1      21.333  17.469   3.279  0.00  0.00    -0.280 N 
HETATM   38  C   UNK N   1      20.450  18.434   2.814  0.00  0.00     0.330 A 
HETATM   39  N   UNK N   1      19.678  18.177   1.713  0.00  0.00    -0.295 N 
HETATM   40  O   UNK N   1      20.336  19.505   3.382  0.00  0.00    -0.246 OA
HETATM   41  C   UNK N   1      19.765  16.991   1.062  0.00  0.00     0.103 A 
ATOM     42  HN  UNK N   1      19.029  18.888   1.377  1.00  0.00     0.172 HD
HETATM   43  C   UNK N   1      20.651  16.016   1.507  0.00  0.00     0.065 A 
HETATM   44  C   UNK N   1      21.430  16.278   2.633  0.00  0.00     0.102 A 
BRANCH  41  45
HETATM   45  N   UNK N   1      18.951  16.745  -0.060  0.00  0.00    -0.385 N 
HETATM   46  H   UNK N   1      19.081  15.959  -0.638  0.00  0.00     0.157 HD
HETATM   47  H   UNK N   1      18.228  17.379  -0.273  0.00  0.00     0.157 HD
ENDBRANCH  41  45
ENDBRANCH  34  37
BRANCH  35  48
HETATM   48  O   UNK N   1      22.000  15.802   6.038  0.00  0.00    -0.388 OA
HETATM   49  H   UNK N   1      21.814  14.853   6.108  0.00  0.00     0.210 HD
ENDBRANCH  35  48
BRANCH  36  50
HETATM   50  O   UNK N   1      25.008  15.769   5.473  0.00  0.00    -0.390 OA
HETATM   51  H   UNK N   1      25.337  15.098   6.092  0.00  0.00     0.210 HD
ENDBRANCH  36  50
ENDBRANCH  31  32
ENDBRANCH  30  31
ENDBRANCH  28  30
BRANCH  28  52
HETATM   52  O   UNK N   1      28.951  18.968   4.312  0.00  0.00    -0.307 OA
HETATM   53  H   UNK N   1      29.299  18.083   4.119  0.00  0.00     0.222 HD
ENDBRANCH  28  52
ENDBRANCH  27  28
ENDBRANCH   5  27
ENDBRANCH   1   5
TORSDOF 19
ENDMDL
MODEL 3
REMARK VINA RESULT:      -7.3      6.700     12.588
REMARK  19 active torsions:
REMARK  status: ('A' for Active; 'I' for Inactive)
REMARK    1  A    between atoms: C_1  and  O_4 
REMARK    2  A    between atoms: C_1  and  C_5 
REMARK    3  A    between atoms: O_4  and  P_8 
REMARK    4  A    between atoms: C_6  and  C_33 
REMARK    5  A    between atoms: C_7  and  O_12 
REMARK    6  A    between atoms: P_8  and  O_13 
REMARK    7  A    between atoms: P_8  and  O_14 
REMARK    8  A    between atoms: C_11  and  N_37 
REMARK    9  A    between atoms: O_13  and  C_16 
REMARK   10  A    between atoms: C_17  and  C_16 
REMARK   11  A    between atoms: C_19  and  O_22 
REMARK   12  A    between atoms: C_20  and  N_23 
REMARK   13  A    between atoms: C_21  and  O_24 
REMARK   14  A    between atoms: C_31  and  N_32 
REMARK   15  A    between atoms: C_33  and  C_34 
REMARK   16  A    between atoms: C_33  and  O_39 
REMARK   17  A    between atoms: C_34  and  C_35 
REMARK   18  A    between atoms: C_34  and  O_38 
REMARK   19  A    between atoms: C_35  and  O_36 
REMARK       I    between atoms: N_37  and  C_40 
ROOT
HETATM    1  C   UNK N   1      32.567  16.269   8.720  0.00  0.00     0.206 C 
HETATM    2  O   UNK N   1      32.189  17.563   8.736  0.00  0.00    -0.772 OA
HETATM    3  O   UNK N   1      31.714  15.398   8.804  0.00  0.00    -0.646 OA
HETATM    4  H   UNK N   1      31.927  18.455   8.616  0.00  0.00     0.167 HD
ENDROOT
BRANCH   1   5
HETATM    5  C   UNK N   1      34.025  15.880   8.609  0.00  0.00     0.264 C 
HETATM    6  O   UNK N   1      34.062  14.457   8.546  0.00  0.00    -0.336 OA
HETATM    7  C   UNK N   1      34.219  13.817   9.799  0.00  0.00     0.182 C 
HETATM    8  C   UNK N   1      35.650  14.130  10.248  0.00  0.00     0.145 C 
HETATM    9  C   UNK N   1      35.626  15.592  10.697  0.00  0.00     0.149 C 
HETATM   10  C   UNK N   1      34.802  16.529   9.807  0.00  0.00     0.115 C 
BRANCH   7  11
HETATM   11  C   UNK N   1      33.853  12.322   9.597  0.00  0.00     0.180 C 
BRANCH  11  12
HETATM   12  C   UNK N   1      34.654  11.692   8.435  0.00  0.00     0.173 C 
BRANCH  12  13
HETATM   13  C   UNK N   1      34.827  10.184   8.638  0.00  0.00     0.198 C 
BRANCH  13  14
HETATM   14  O   UNK N   1      34.240   9.772   9.833  0.00  0.00    -0.398 OA
HETATM   15  H   UNK N   1      34.111   8.828  10.015  0.00  0.00     0.209 HD
ENDBRANCH  13  14
ENDBRANCH  12  13
BRANCH  12  16
HETATM   16  O   UNK N   1      34.039  11.943   7.205  0.00  0.00    -0.391 OA
HETATM   17  H   UNK N   1      33.075  11.883   7.114  0.00  0.00     0.210 HD
ENDBRANCH  12  16
ENDBRANCH  11  12
BRANCH  11  18
HETATM   18  O   UNK N   1      32.495  12.128   9.334  0.00  0.00    -0.390 OA
HETATM   19  H   UNK N   1      32.139  11.233   9.217  0.00  0.00     0.210 HD
ENDBRANCH  11  18
ENDBRANCH   7  11
BRANCH   8  20
HETATM   20  N   UNK N   1      36.089  13.317  11.359  0.00  0.00    -0.352 N 
HETATM   21  C   UNK N   1      37.361  12.855  11.448  0.00  0.00     0.214 C 
HETATM   22  O   UNK N   1      38.189  13.132  10.592  0.00  0.00    -0.274 OA
HETATM   23  C   UNK N   1      37.753  12.001  12.601  0.00  0.00     0.117 C 
HETATM   24  H   UNK N   1      35.447  13.091  12.070  0.00  0.00     0.163 HD
ENDBRANCH   8  20
BRANCH   9  25
HETATM   25  O   UNK N   1      36.915  16.094  10.879  0.00  0.00    -0.393 OA
HETATM   26  H   UNK N   1      37.146  16.577  11.687  0.00  0.00     0.210 HD
ENDBRANCH   9  25
BRANCH   5  27
HETATM   27  O   UNK N   1      34.470  16.396   7.354  0.00  0.00    -0.248 OA
BRANCH  27  28
HETATM   28  P   UNK N   1      34.087  15.374   5.966  0.00  0.00     0.396 P 
HETATM   29  O   UNK N   1      35.321  14.444   5.770  0.00  0.00    -0.631 OA
BRANCH  28  30
HETATM   30  O   UNK N   1      33.875  16.324   4.507  0.00  0.00    -0.294 OA
BRANCH  30  31
HETATM   31  C   UNK N   1      33.346  17.569   4.885  0.00  0.00     0.215 C 
BRANCH  31  32
HETATM   32  C   UNK N   1      31.844  17.515   4.695  0.00  0.00     0.180 C 
HETATM   33  O   UNK N   1      31.151  17.197   5.866  0.00  0.00    -0.353 OA
HETATM   34  C   UNK N   1      29.831  17.000   5.408  0.00  0.00     0.263 C 
HETATM   35  C   UNK N   1      29.856  16.969   3.881  0.00  0.00     0.198 C 
HETATM   36  C   UNK N   1      31.292  16.639   3.617  0.00  0.00     0.182 C 
BRANCH  34  37
HETATM   37  N   UNK N   1      28.954  18.051   5.937  0.00  0.00    -0.280 N 
HETATM   38  C   UNK N   1      28.648  18.158   7.287  0.00  0.00     0.330 A 
HETATM   39  N   UNK N   1      27.774  19.122   7.715  0.00  0.00    -0.295 N 
HETATM   40  O   UNK N   1      29.133  17.393   8.102  0.00  0.00    -0.246 OA
HETATM   41  C   UNK N   1      27.202  19.982   6.837  0.00  0.00     0.103 A 
ATOM     42  HN  UNK N   1      27.551  19.194   8.707  1.00  0.00     0.172 HD
HETATM   43  C   UNK N   1      27.503  19.897   5.482  0.00  0.00     0.065 A 
HETATM   44  C   UNK N   1      28.388  18.910   5.050  0.00  0.00     0.102 A 
BRANCH  41  45
HETATM   45  N   UNK N   1      26.296  20.956   7.298  0.00  0.00    -0.385 N 
HETATM   46  H   UNK N   1      26.004  21.707   6.733  0.00  0.00     0.157 HD
HETATM   47  H   UNK N   1      25.943  20.883   8.215  0.00  0.00     0.157 HD
ENDBRANCH  41  45
ENDBRANCH  34  37
BRANCH  35  48
HETATM   48  O   UNK N   1      29.003  15.991   3.371  0.00  0.00    -0.388 OA
HETATM   49  H   UNK N   1      29.118  15.599   2.491  0.00  0.00     0.210 HD
ENDBRANCH  35  48
BRANCH  36  50
HETATM   50  O   UNK N   1      31.675  17.082   2.351  0.00  0.00    -0.390 OA
HETATM   51  H   UNK N   1      32.490  17.348   1.897  0.00  0.00     0.210 HD
ENDBRANCH  36  50
ENDBRANCH  31  32
ENDBRANCH  30  31
ENDBRANCH  28  30
BRANCH  28  52
HETATM   52  O   UNK N   1      32.710  14.352   6.216  0.00  0.00    -0.307 OA
HETATM   53  H   UNK N   1      32.781  13.535   6.734  0.00  0.00     0.222 HD
ENDBRANCH  28  52
ENDBRANCH  27  28
ENDBRANCH   5  27
ENDBRANCH   1   5
TORSDOF 19
ENDMDL
MODEL 4
REMARK VINA RESULT:      -7.3      8.554     14.380
REMARK  19 active torsions:
REMARK  status: ('A' for Active; 'I' for Inactive)
REMARK    1  A    between atoms: C_1  and  O_4 
REMARK    2  A    between atoms: C_1  and  C_5 
REMARK    3  A    between atoms: O_4  and  P_8 
REMARK    4  A    between atoms: C_6  and  C_33 
REMARK    5  A    between atoms: C_7  and  O_12 
REMARK    6  A    between atoms: P_8  and  O_13 
REMARK    7  A    between atoms: P_8  and  O_14 
REMARK    8  A    between atoms: C_11  and  N_37 
REMARK    9  A    between atoms: O_13  and  C_16 
REMARK   10  A    between atoms: C_17  and  C_16 
REMARK   11  A    between atoms: C_19  and  O_22 
REMARK   12  A    between atoms: C_20  and  N_23 
REMARK   13  A    between atoms: C_21  and  O_24 
REMARK   14  A    between atoms: C_31  and  N_32 
REMARK   15  A    between atoms: C_33  and  C_34 
REMARK   16  A    between atoms: C_33  and  O_39 
REMARK   17  A    between atoms: C_34  and  C_35 
REMARK   18  A    between atoms: C_34  and  O_38 
REMARK   19  A    between atoms: C_35  and  O_36 
REMARK       I    between atoms: N_37  and  C_40 
ROOT
HETATM    1  C   UNK N   1      37.965  11.595   9.413  0.00  0.00     0.206 C 
HETATM    2  O   UNK N   1      39.108  10.891   9.531  0.00  0.00    -0.772 OA
HETATM    3  O   UNK N   1      37.930  12.553   8.654  0.00  0.00    -0.646 OA
HETATM    4  H   UNK N   1      39.853  10.322   9.523  0.00  0.00     0.167 HD
ENDROOT
BRANCH   1   5
HETATM    5  C   UNK N   1      36.731  11.225  10.208  0.00  0.00     0.264 C 
HETATM    6  O   UNK N   1      36.072  12.448  10.527  0.00  0.00    -0.336 OA
HETATM    7  C   UNK N   1      36.437  13.002  11.777  0.00  0.00     0.182 C 
HETATM    8  C   UNK N   1      35.847  12.063  12.835  0.00  0.00     0.145 C 
HETATM    9  C   UNK N   1      36.741  10.822  12.823  0.00  0.00     0.149 C 
HETATM   10  C   UNK N   1      37.175  10.351  11.431  0.00  0.00     0.115 C 
BRANCH   7  11
HETATM   11  C   UNK N   1      35.943  14.474  11.785  0.00  0.00     0.180 C 
BRANCH  11  12
HETATM   12  C   UNK N   1      36.320  15.208  10.479  0.00  0.00     0.173 C 
BRANCH  12  13
HETATM   13  C   UNK N   1      35.886  16.677  10.527  0.00  0.00     0.198 C 
BRANCH  13  14
HETATM   14  O   UNK N   1      34.725  16.829  11.282  0.00  0.00    -0.398 OA
HETATM   15  H   UNK N   1      34.238  17.668  11.269  0.00  0.00     0.209 HD
ENDBRANCH  13  14
ENDBRANCH  12  13
BRANCH  12  16
HETATM   16  O   UNK N   1      37.692  15.121  10.230  0.00  0.00    -0.391 OA
HETATM   17  H   UNK N   1      38.061  15.431   9.388  0.00  0.00     0.210 HD
ENDBRANCH  12  16
ENDBRANCH  11  12
BRANCH  11  18
HETATM   18  O   UNK N   1      36.458  15.211  12.853  0.00  0.00    -0.390 OA
HETATM   19  H   UNK N   1      36.354  14.897  13.766  0.00  0.00     0.210 HD
ENDBRANCH  11  18
ENDBRANCH   7  11
BRANCH   8  20
HETATM   20  N   UNK N   1      35.860  12.625  14.166  0.00  0.00    -0.352 N 
HETATM   21  C   UNK N   1      34.825  12.454  15.025  0.00  0.00     0.214 C 
HETATM   22  O   UNK N   1      33.846  11.795  14.702  0.00  0.00    -0.274 OA
HETATM   23  C   UNK N   1      34.880  13.075  16.376  0.00  0.00     0.117 C 
HETATM   24  H   UNK N   1      36.642  13.147  14.458  0.00  0.00     0.163 HD
ENDBRANCH   8  20
BRANCH   9  25
HETATM   25  O   UNK N   1      36.169   9.772  13.543  0.00  0.00    -0.393 OA
HETATM   26  H   UNK N   1      36.337   9.678  14.493  0.00  0.00     0.210 HD
ENDBRANCH   9  25
BRANCH   5  27
HETATM   27  O   UNK N   1      35.898  10.489   9.311  0.00  0.00    -0.248 OA
BRANCH  27  28
HETATM   28  P   UNK N   1      34.341  11.249   8.968  0.00  0.00     0.396 P 
HETATM   29  O   UNK N   1      33.573  10.247   8.056  0.00  0.00    -0.631 OA
BRANCH  28  30
HETATM   30  O   UNK N   1      34.540  12.753   8.088  0.00  0.00    -0.294 OA
BRANCH  30  31
HETATM   31  C   UNK N   1      33.449  12.879   7.213  0.00  0.00     0.215 C 
BRANCH  31  32
HETATM   32  C   UNK N   1      32.844  14.253   7.417  0.00  0.00     0.180 C 
HETATM   33  O   UNK N   1      33.172  15.156   6.401  0.00  0.00    -0.353 OA
HETATM   34  C   UNK N   1      32.690  16.384   6.903  0.00  0.00     0.263 C 
HETATM   35  C   UNK N   1      32.300  16.181   8.366  0.00  0.00     0.198 C 
HETATM   36  C   UNK N   1      33.088  14.956   8.713  0.00  0.00     0.182 C 
BRANCH  34  37
HETATM   37  N   UNK N   1      31.570  16.857   6.081  0.00  0.00    -0.280 N 
HETATM   38  C   UNK N   1      31.754  17.444   4.836  0.00  0.00     0.330 A 
HETATM   39  N   UNK N   1      30.674  17.922   4.141  0.00  0.00    -0.295 N 
HETATM   40  O   UNK N   1      32.866  17.558   4.355  0.00  0.00    -0.246 OA
HETATM   41  C   UNK N   1      29.421  17.827   4.649  0.00  0.00     0.103 A 
ATOM     42  HN  UNK N   1      30.816  18.355   3.229  1.00  0.00     0.172 HD
HETATM   43  C   UNK N   1      29.216  17.234   5.890  0.00  0.00     0.065 A 
HETATM   44  C   UNK N   1      30.317  16.754   6.597  0.00  0.00     0.102 A 
BRANCH  41  45
HETATM   45  N   UNK N   1      28.329  18.339   3.923  0.00  0.00    -0.385 N 
HETATM   46  H   UNK N   1      28.450  18.885   3.113  0.00  0.00     0.157 HD
HETATM   47  H   UNK N   1      27.416  18.144   4.234  0.00  0.00     0.157 HD
ENDBRANCH  41  45
ENDBRANCH  34  37
BRANCH  35  48
HETATM   48  O   UNK N   1      32.672  17.269   9.154  0.00  0.00    -0.388 OA
HETATM   49  H   UNK N   1      32.521  17.302  10.112  0.00  0.00     0.210 HD
ENDBRANCH  35  48
BRANCH  36  50
HETATM   50  O   UNK N   1      32.500  14.278   9.781  0.00  0.00    -0.390 OA
HETATM   51  H   UNK N   1      31.723  14.374  10.355  0.00  0.00     0.210 HD
ENDBRANCH  36  50
ENDBRANCH  31  32
ENDBRANCH  30  31
ENDBRANCH  28  30
BRANCH  28  52
HETATM   52  O   UNK N   1      33.369  11.508  10.379  0.00  0.00    -0.307 OA
HETATM   53  H   UNK N   1      33.580  12.217  11.007  0.00  0.00     0.222 HD
ENDBRANCH  28  52
ENDBRANCH  27  28
ENDBRANCH   5  27
ENDBRANCH   1   5
TORSDOF 19
ENDMDL
MODEL 5
REMARK VINA RESULT:      -7.2      9.480     14.127
REMARK  19 active torsions:
REMARK  status: ('A' for Active; 'I' for Inactive)
REMARK    1  A    between atoms: C_1  and  O_4 
REMARK    2  A    between atoms: C_1  and  C_5 
REMARK    3  A    between atoms: O_4  and  P_8 
REMARK    4  A    between atoms: C_6  and  C_33 
REMARK    5  A    between atoms: C_7  and  O_12 
REMARK    6  A    between atoms: P_8  and  O_13 
REMARK    7  A    between atoms: P_8  and  O_14 
REMARK    8  A    between atoms: C_11  and  N_37 
REMARK    9  A    between atoms: O_13  and  C_16 
REMARK   10  A    between atoms: C_17  and  C_16 
REMARK   11  A    between atoms: C_19  and  O_22 
REMARK   12  A    between atoms: C_20  and  N_23 
REMARK   13  A    between atoms: C_21  and  O_24 
REMARK   14  A    between atoms: C_31  and  N_32 
REMARK   15  A    between atoms: C_33  and  C_34 
REMARK   16  A    between atoms: C_33  and  O_39 
REMARK   17  A    between atoms: C_34  and  C_35 
REMARK   18  A    between atoms: C_34  and  O_38 
REMARK   19  A    between atoms: C_35  and  O_36 
REMARK       I    between atoms: N_37  and  C_40 
ROOT
HETATM    1  C   UNK N   1      35.078  12.417   9.746  0.00  0.00     0.206 C 
HETATM    2  O   UNK N   1      33.891  12.250  10.363  0.00  0.00    -0.772 OA
HETATM    3  O   UNK N   1      35.831  11.461   9.633  0.00  0.00    -0.646 OA
HETATM    4  H   UNK N   1      33.016  12.115  10.672  0.00  0.00     0.167 HD
ENDROOT
BRANCH   1   5
HETATM    5  C   UNK N   1      35.495  13.766   9.201  0.00  0.00     0.264 C 
HETATM    6  O   UNK N   1      34.325  14.580   9.192  0.00  0.00    -0.336 OA
HETATM    7  C   UNK N   1      33.606  14.561   7.973  0.00  0.00     0.182 C 
HETATM    8  C   UNK N   1      34.488  15.299   6.959  0.00  0.00     0.145 C 
HETATM    9  C   UNK N   1      35.617  14.327   6.617  0.00  0.00     0.149 C 
HETATM   10  C   UNK N   1      36.182  13.545   7.809  0.00  0.00     0.115 C 
BRANCH   7  11
HETATM   11  C   UNK N   1      32.205  15.164   8.260  0.00  0.00     0.180 C 
BRANCH  11  12
HETATM   12  C   UNK N   1      32.260  16.703   8.378  0.00  0.00     0.173 C 
BRANCH  12  13
HETATM   13  C   UNK N   1      30.855  17.297   8.518  0.00  0.00     0.198 C 
BRANCH  13  14
HETATM   14  O   UNK N   1      30.417  17.232   9.840  0.00  0.00    -0.398 OA
HETATM   15  H   UNK N   1      30.730  17.879  10.491  0.00  0.00     0.209 HD
ENDBRANCH  13  14
ENDBRANCH  12  13
BRANCH  12  16
HETATM   16  O   UNK N   1      33.058  17.098   9.455  0.00  0.00    -0.391 OA
HETATM   17  H   UNK N   1      33.681  17.836   9.363  0.00  0.00     0.210 HD
ENDBRANCH  12  16
ENDBRANCH  11  12
BRANCH  11  18
HETATM   18  O   UNK N   1      31.632  14.666   9.433  0.00  0.00    -0.390 OA
HETATM   19  H   UNK N   1      30.691  14.432   9.462  0.00  0.00     0.210 HD
ENDBRANCH  11  18
ENDBRANCH   7  11
BRANCH   8  20
HETATM   20  N   UNK N   1      33.792  15.640   5.741  0.00  0.00    -0.352 N 
HETATM   21  C   UNK N   1      33.673  16.923   5.319  0.00  0.00     0.214 C 
HETATM   22  O   UNK N   1      34.175  17.839   5.955  0.00  0.00    -0.274 OA
HETATM   23  C   UNK N   1      32.925  17.221   4.069  0.00  0.00     0.117 C 
HETATM   24  H   UNK N   1      33.391  14.921   5.200  0.00  0.00     0.163 HD
ENDBRANCH   8  20
BRANCH   9  25
HETATM   25  O   UNK N   1      36.643  14.959   5.913  0.00  0.00    -0.393 OA
HETATM   26  H   UNK N   1      36.569  15.895   5.672  0.00  0.00     0.210 HD
ENDBRANCH   9  25
BRANCH   5  27
HETATM   27  O   UNK N   1      36.408  14.305  10.157  0.00  0.00    -0.248 OA
BRANCH  27  28
HETATM   28  P   UNK N   1      35.658  15.311  11.400  0.00  0.00     0.396 P 
HETATM   29  O   UNK N   1      35.918  16.784  10.968  0.00  0.00    -0.631 OA
BRANCH  28  30
HETATM   30  O   UNK N   1      36.401  15.057  12.968  0.00  0.00    -0.294 OA
BRANCH  30  31
HETATM   31  C   UNK N   1      36.118  13.739  13.362  0.00  0.00     0.215 C 
BRANCH  31  32
HETATM   32  C   UNK N   1      36.141  13.690  14.876  0.00  0.00     0.180 C 
HETATM   33  O   UNK N   1      34.921  13.296  15.434  0.00  0.00    -0.353 OA
HETATM   34  C   UNK N   1      35.116  13.525  16.813  0.00  0.00     0.263 C 
HETATM   35  C   UNK N   1      36.414  14.310  16.987  0.00  0.00     0.198 C 
HETATM   36  C   UNK N   1      36.583  14.906  15.624  0.00  0.00     0.182 C 
BRANCH  34  37
HETATM   37  N   UNK N   1      35.126  12.248  17.537  0.00  0.00    -0.280 N 
HETATM   38  C   UNK N   1      35.139  12.177  18.923  0.00  0.00     0.330 A 
HETATM   39  N   UNK N   1      35.211  10.957  19.543  0.00  0.00    -0.295 N 
HETATM   40  O   UNK N   1      35.105  13.187  19.603  0.00  0.00    -0.246 OA
HETATM   41  C   UNK N   1      35.265   9.811  18.821  0.00  0.00     0.103 A 
ATOM     42  HN  UNK N   1      35.222  10.911  20.562  1.00  0.00     0.172 HD
HETATM   43  C   UNK N   1      35.243   9.862  17.431  0.00  0.00     0.065 A 
HETATM   44  C   UNK N   1      35.177  11.105  16.804  0.00  0.00     0.102 A 
BRANCH  41  45
HETATM   45  N   UNK N   1      35.352   8.571  19.480  0.00  0.00    -0.385 N 
HETATM   46  H   UNK N   1      34.626   8.230  20.052  0.00  0.00     0.157 HD
HETATM   47  H   UNK N   1      36.164   8.026  19.366  0.00  0.00     0.157 HD
ENDBRANCH  41  45
ENDBRANCH  34  37
BRANCH  35  48
HETATM   48  O   UNK N   1      36.294  15.295  17.966  0.00  0.00    -0.388 OA
HETATM   49  H   UNK N   1      37.025  15.548  18.551  0.00  0.00     0.210 HD
ENDBRANCH  35  48
BRANCH  36  50
HETATM   50  O   UNK N   1      37.924  15.199  15.377  0.00  0.00    -0.390 OA
HETATM   51  H   UNK N   1      38.586  15.019  14.690  0.00  0.00     0.210 HD
ENDBRANCH  36  50
ENDBRANCH  31  32
ENDBRANCH  30  31
ENDBRANCH  28  30
BRANCH  28  52
HETATM   52  O   UNK N   1      33.941  15.106  11.515  0.00  0.00    -0.307 OA
HETATM   53  H   UNK N   1      33.440  14.677  10.803  0.00  0.00     0.222 HD
ENDBRANCH  28  52
ENDBRANCH  27  28
ENDBRANCH   5  27
ENDBRANCH   1   5
TORSDOF 19
ENDMDL
MODEL 6
REMARK VINA RESULT:      -7.2      1.752      2.582
REMARK  19 active torsions:
REMARK  status: ('A' for Active; 'I' for Inactive)
REMARK    1  A    between atoms: C_1  and  O_4 
REMARK    2  A    between atoms: C_1  and  C_5 
REMARK    3  A    between atoms: O_4  and  P_8 
REMARK    4  A    between atoms: C_6  and  C_33 
REMARK    5  A    between atoms: C_7  and  O_12 
REMARK    6  A    between atoms: P_8  and  O_13 
REMARK    7  A    between atoms: P_8  and  O_14 
REMARK    8  A    between atoms: C_11  and  N_37 
REMARK    9  A    between atoms: O_13  and  C_16 
REMARK   10  A    between atoms: C_17  and  C_16 
REMARK   11  A    between atoms: C_19  and  O_22 
REMARK   12  A    between atoms: C_20  and  N_23 
REMARK   13  A    between atoms: C_21  and  O_24 
REMARK   14  A    between atoms: C_31  and  N_32 
REMARK   15  A    between atoms: C_33  and  C_34 
REMARK   16  A    between atoms: C_33  and  O_39 
REMARK   17  A    between atoms: C_34  and  C_35 
REMARK   18  A    between atoms: C_34  and  O_38 
REMARK   19  A    between atoms: C_35  and  O_36 
REMARK       I    between atoms: N_37  and  C_40 
ROOT
HETATM    1  C   UNK N   1      20.644  17.556   7.058  0.00  0.00     0.206 C 
HETATM    2  O   UNK N   1      19.728  17.269   8.004  0.00  0.00    -0.772 OA
HETATM    3  O   UNK N   1      21.059  18.702   6.958  0.00  0.00    -0.646 OA
HETATM    4  H   UNK N   1      19.193  17.034   8.737  0.00  0.00     0.167 HD
ENDROOT
BRANCH   1   5
HETATM    5  C   UNK N   1      21.159  16.490   6.116  0.00  0.00     0.264 C 
HETATM    6  O   UNK N   1      21.340  17.119   4.850  0.00  0.00    -0.336 OA
HETATM    7  C   UNK N   1      20.224  17.028   3.984  0.00  0.00     0.182 C 
HETATM    8  C   UNK N   1      20.138  15.555   3.572  0.00  0.00     0.145 C 
HETATM    9  C   UNK N   1      19.586  14.820   4.795  0.00  0.00     0.149 C 
HETATM   10  C   UNK N   1      20.157  15.284   6.140  0.00  0.00     0.115 C 
BRANCH   7  11
HETATM   11  C   UNK N   1      20.440  18.067   2.851  0.00  0.00     0.180 C 
BRANCH  11  12
HETATM   12  C   UNK N   1      21.257  19.283   3.341  0.00  0.00     0.173 C 
BRANCH  12  13
HETATM   13  C   UNK N   1      21.490  20.285   2.205  0.00  0.00     0.198 C 
BRANCH  13  14
HETATM   14  O   UNK N   1      21.452  21.594   2.681  0.00  0.00    -0.398 OA
HETATM   15  H   UNK N   1      22.050  22.265   2.315  0.00  0.00     0.209 HD
ENDBRANCH  13  14
ENDBRANCH  12  13
BRANCH  12  16
HETATM   16  O   UNK N   1      20.625  19.914   4.415  0.00  0.00    -0.391 OA
HETATM   17  H   UNK N   1      20.819  19.648   5.328  0.00  0.00     0.210 HD
ENDBRANCH  12  16
ENDBRANCH  11  12
BRANCH  11  18
HETATM   18  O   UNK N   1      19.241  18.544   2.319  0.00  0.00    -0.390 OA
HETATM   19  H   UNK N   1      19.231  19.333   1.754  0.00  0.00     0.210 HD
ENDBRANCH  11  18
ENDBRANCH   7  11
BRANCH   8  20
HETATM   20  N   UNK N   1      19.246  15.325   2.459  0.00  0.00    -0.352 N 
HETATM   21  C   UNK N   1      19.512  14.395   1.509  0.00  0.00     0.214 C 
HETATM   22  O   UNK N   1      20.515  13.700   1.578  0.00  0.00    -0.274 OA
HETATM   23  C   UNK N   1      18.571  14.217   0.371  0.00  0.00     0.117 C 
HETATM   24  H   UNK N   1      18.423  15.860   2.387  0.00  0.00     0.163 HD
ENDBRANCH   8  20
BRANCH   9  25
HETATM   25  O   UNK N   1      19.707  13.437   4.660  0.00  0.00    -0.393 OA
HETATM   26  H   UNK N   1      19.441  12.998   3.837  0.00  0.00     0.210 HD
ENDBRANCH   9  25
BRANCH   5  27
HETATM   27  O   UNK N   1      22.442  16.116   6.617  0.00  0.00    -0.248 OA
BRANCH  27  28
HETATM   28  P   UNK N   1      23.731  16.123   5.409  0.00  0.00     0.396 P 
HETATM   29  O   UNK N   1      24.890  15.281   6.021  0.00  0.00    -0.631 OA
BRANCH  28  30
HETATM   30  O   UNK N   1      24.325  17.746   5.113  0.00  0.00    -0.294 OA
BRANCH  30  31
HETATM   31  C   UNK N   1      24.930  17.750   3.845  0.00  0.00     0.215 C 
BRANCH  31  32
HETATM   32  C   UNK N   1      26.334  17.203   3.997  0.00  0.00     0.180 C 
HETATM   33  O   UNK N   1      27.306  18.201   4.119  0.00  0.00    -0.353 OA
HETATM   34  C   UNK N   1      28.514  17.477   4.034  0.00  0.00     0.263 C 
HETATM   35  C   UNK N   1      28.186  16.050   3.599  0.00  0.00     0.198 C 
HETATM   36  C   UNK N   1      26.838  16.236   2.974  0.00  0.00     0.182 C 
BRANCH  34  37
HETATM   37  N   UNK N   1      29.221  17.527   5.319  0.00  0.00    -0.280 N 
HETATM   38  C   UNK N   1      30.566  17.208   5.444  0.00  0.00     0.330 A 
HETATM   39  N   UNK N   1      31.157  17.213   6.680  0.00  0.00    -0.295 N 
HETATM   40  O   UNK N   1      31.231  16.905   4.470  0.00  0.00    -0.246 OA
HETATM   41  C   UNK N   1      30.447  17.531   7.790  0.00  0.00     0.103 A 
ATOM     42  HN  UNK N   1      32.145  16.975   6.766  1.00  0.00     0.172 HD
HETATM   43  C   UNK N   1      29.100  17.863   7.684  0.00  0.00     0.065 A 
HETATM   44  C   UNK N   1      28.501  17.850   6.425  0.00  0.00     0.102 A 
BRANCH  41  45
HETATM   45  N   UNK N   1      31.073  17.516   9.051  0.00  0.00    -0.385 N 
HETATM   46  H   UNK N   1      31.394  18.339   9.484  0.00  0.00     0.157 HD
HETATM   47  H   UNK N   1      31.192  16.656   9.514  0.00  0.00     0.157 HD
ENDBRANCH  41  45
ENDBRANCH  34  37
BRANCH  35  48
HETATM   48  O   UNK N   1      29.114  15.565   2.679  0.00  0.00    -0.388 OA
HETATM   49  H   UNK N   1      30.071  15.684   2.784  0.00  0.00     0.210 HD
ENDBRANCH  35  48
BRANCH  36  50
HETATM   50  O   UNK N   1      26.115  15.043   2.998  0.00  0.00    -0.390 OA
HETATM   51  H   UNK N   1      26.223  14.130   2.688  0.00  0.00     0.210 HD
ENDBRANCH  36  50
ENDBRANCH  31  32
ENDBRANCH  30  31
ENDBRANCH  28  30
BRANCH  28  52
HETATM   52  O   UNK N   1      23.284  15.370   3.914  0.00  0.00    -0.307 OA
HETATM   53  H   UNK N   1      23.090  15.901   3.125  0.00  0.00     0.222 HD
ENDBRANCH  28  52
ENDBRANCH  27  28
ENDBRANCH   5  27
ENDBRANCH   1   5
TORSDOF 19
ENDMDL
MODEL 7
REMARK VINA RESULT:      -7.1      3.057      9.354
REMARK  19 active torsions:
REMARK  status: ('A' for Active; 'I' for Inactive)
REMARK    1  A    between atoms: C_1  and  O_4 
REMARK    2  A    between atoms: C_1  and  C_5 
REMARK    3  A    between atoms: O_4  and  P_8 
REMARK    4  A    between atoms: C_6  and  C_33 
REMARK    5  A    between atoms: C_7  and  O_12 
REMARK    6  A    between atoms: P_8  and  O_13 
REMARK    7  A    between atoms: P_8  and  O_14 
REMARK    8  A    between atoms: C_11  and  N_37 
REMARK    9  A    between atoms: O_13  and  C_16 
REMARK   10  A    between atoms: C_17  and  C_16 
REMARK   11  A    between atoms: C_19  and  O_22 
REMARK   12  A    between atoms: C_20  and  N_23 
REMARK   13  A    between atoms: C_21  and  O_24 
REMARK   14  A    between atoms: C_31  and  N_32 
REMARK   15  A    between atoms: C_33  and  C_34 
REMARK   16  A    between atoms: C_33  and  O_39 
REMARK   17  A    between atoms: C_34  and  C_35 
REMARK   18  A    between atoms: C_34  and  O_38 
REMARK   19  A    between atoms: C_35  and  O_36 
REMARK       I    between atoms: N_37  and  C_40 
ROOT
HETATM    1  C   UNK N   1      27.777  17.172   8.237  0.00  0.00     0.206 C 
HETATM    2  O   UNK N   1      26.844  16.511   7.523  0.00  0.00    -0.772 OA
HETATM    3  O   UNK N   1      27.677  17.214   9.455  0.00  0.00    -0.646 OA
HETATM    4  H   UNK N   1      26.277  15.949   7.033  0.00  0.00     0.167 HD
ENDROOT
BRANCH   1   5
HETATM    5  C   UNK N   1      28.936  17.869   7.558  0.00  0.00     0.264 C 
HETATM    6  O   UNK N   1      29.232  17.115   6.385  0.00  0.00    -0.336 OA
HETATM    7  C   UNK N   1      30.224  16.121   6.561  0.00  0.00     0.182 C 
HETATM    8  C   UNK N   1      31.540  16.880   6.765  0.00  0.00     0.145 C 
HETATM    9  C   UNK N   1      31.472  17.442   8.185  0.00  0.00     0.149 C 
HETATM   10  C   UNK N   1      30.106  18.005   8.593  0.00  0.00     0.115 C 
BRANCH   7  11
HETATM   11  C   UNK N   1      30.140  15.170   5.337  0.00  0.00     0.180 C 
BRANCH  11  12
HETATM   12  C   UNK N   1      28.696  15.064   4.797  0.00  0.00     0.173 C 
BRANCH  12  13
HETATM   13  C   UNK N   1      28.628  15.472   3.321  0.00  0.00     0.198 C 
BRANCH  13  14
HETATM   14  O   UNK N   1      27.642  16.435   3.117  0.00  0.00    -0.398 OA
HETATM   15  H   UNK N   1      26.722  16.169   2.963  0.00  0.00     0.209 HD
ENDBRANCH  13  14
ENDBRANCH  12  13
BRANCH  12  16
HETATM   16  O   UNK N   1      28.190  13.773   4.961  0.00  0.00    -0.391 OA
HETATM   17  H   UNK N   1      28.642  13.135   5.536  0.00  0.00     0.210 HD
ENDBRANCH  12  16
ENDBRANCH  11  12
BRANCH  11  18
HETATM   18  O   UNK N   1      30.584  13.878   5.624  0.00  0.00    -0.390 OA
HETATM   19  H   UNK N   1      31.532  13.670   5.621  0.00  0.00     0.210 HD
ENDBRANCH  11  18
ENDBRANCH   7  11
BRANCH   8  20
HETATM   20  N   UNK N   1      32.707  16.035   6.662  0.00  0.00    -0.352 N 
HETATM   21  C   UNK N   1      33.891  16.504   6.196  0.00  0.00     0.214 C 
HETATM   22  O   UNK N   1      34.014  17.674   5.865  0.00  0.00    -0.274 OA
HETATM   23  C   UNK N   1      35.055  15.584   6.088  0.00  0.00     0.117 C 
HETATM   24  H   UNK N   1      32.641  15.092   6.937  0.00  0.00     0.163 HD
ENDBRANCH   8  20
BRANCH   9  25
HETATM   25  O   UNK N   1      32.479  18.379   8.415  0.00  0.00    -0.393 OA
HETATM   26  H   UNK N   1      32.768  18.580   9.318  0.00  0.00     0.210 HD
ENDBRANCH   9  25
BRANCH   5  27
HETATM   27  O   UNK N   1      28.440  19.146   7.156  0.00  0.00    -0.248 OA
BRANCH  27  28
HETATM   28  P   UNK N   1      27.904  19.226   5.475  0.00  0.00     0.396 P 
HETATM   29  O   UNK N   1      27.471  20.703   5.238  0.00  0.00    -0.631 OA
BRANCH  28  30
HETATM   30  O   UNK N   1      26.515  18.193   5.192  0.00  0.00    -0.294 OA
BRANCH  30  31
HETATM   31  C   UNK N   1      25.397  19.024   5.020  0.00  0.00     0.215 C 
BRANCH  31  32
HETATM   32  C   UNK N   1      24.160  18.150   5.028  0.00  0.00     0.180 C 
HETATM   33  O   UNK N   1      24.429  16.816   5.346  0.00  0.00    -0.353 OA
HETATM   34  C   UNK N   1      23.199  16.175   5.088  0.00  0.00     0.263 C 
HETATM   35  C   UNK N   1      22.289  17.164   4.363  0.00  0.00     0.198 C 
HETATM   36  C   UNK N   1      23.287  18.135   3.814  0.00  0.00     0.182 C 
BRANCH  34  37
HETATM   37  N   UNK N   1      22.615  15.686   6.343  0.00  0.00    -0.280 N 
HETATM   38  C   UNK N   1      23.062  14.533   6.974  0.00  0.00     0.330 A 
HETATM   39  N   UNK N   1      22.438  14.091   8.111  0.00  0.00    -0.295 N 
HETATM   40  O   UNK N   1      23.996  13.894   6.524  0.00  0.00    -0.246 OA
HETATM   41  C   UNK N   1      21.386  14.767   8.635  0.00  0.00     0.103 A 
ATOM     42  HN  UNK N   1      22.769  13.243   8.569  1.00  0.00     0.172 HD
HETATM   43  C   UNK N   1      20.930  15.929   8.022  0.00  0.00     0.065 A 
HETATM   44  C   UNK N   1      21.563  16.372   6.862  0.00  0.00     0.102 A 
BRANCH  41  45
HETATM   45  N   UNK N   1      20.752  14.286   9.796  0.00  0.00    -0.385 N 
HETATM   46  H   UNK N   1      19.969  14.737  10.189  0.00  0.00     0.157 HD
HETATM   47  H   UNK N   1      21.100  13.473  10.228  0.00  0.00     0.157 HD
ENDBRANCH  41  45
ENDBRANCH  34  37
BRANCH  35  48
HETATM   48  O   UNK N   1      21.562  16.547   3.346  0.00  0.00    -0.388 OA
HETATM   49  H   UNK N   1      21.977  16.181   2.550  0.00  0.00     0.210 HD
ENDBRANCH  35  48
BRANCH  36  50
HETATM   50  O   UNK N   1      22.696  19.379   3.594  0.00  0.00    -0.390 OA
HETATM   51  H   UNK N   1      22.734  20.272   3.973  0.00  0.00     0.210 HD
ENDBRANCH  36  50
ENDBRANCH  31  32
ENDBRANCH  30  31
ENDBRANCH  28  30
BRANCH  28  52
HETATM   52  O   UNK N   1      29.155  18.868   4.330  0.00  0.00    -0.307 OA
HETATM   53  H   UNK N   1      29.538  17.979   4.270  0.00  0.00     0.222 HD
ENDBRANCH  28  52
ENDBRANCH  27  28
ENDBRANCH   5  27
ENDBRANCH   1   5
TORSDOF 19
ENDMDL
MODEL 8
REMARK VINA RESULT:      -7.1      7.442     14.730
REMARK  19 active torsions:
REMARK  status: ('A' for Active; 'I' for Inactive)
REMARK    1  A    between atoms: C_1  and  O_4 
REMARK    2  A    between atoms: C_1  and  C_5 
REMARK    3  A    between atoms: O_4  and  P_8 
REMARK    4  A    between atoms: C_6  and  C_33 
REMARK    5  A    between atoms: C_7  and  O_12 
REMARK    6  A    between atoms: P_8  and  O_13 
REMARK    7  A    between atoms: P_8  and  O_14 
REMARK    8  A    between atoms: C_11  and  N_37 
REMARK    9  A    between atoms: O_13  and  C_16 
REMARK   10  A    between atoms: C_17  and  C_16 
REMARK   11  A    between atoms: C_19  and  O_22 
REMARK   12  A    between atoms: C_20  and  N_23 
REMARK   13  A    between atoms: C_21  and  O_24 
REMARK   14  A    between atoms: C_31  and  N_32 
REMARK   15  A    between atoms: C_33  and  C_34 
REMARK   16  A    between atoms: C_33  and  O_39 
REMARK   17  A    between atoms: C_34  and  C_35 
REMARK   18  A    between atoms: C_34  and  O_38 
REMARK   19  A    between atoms: C_35  and  O_36 
REMARK       I    between atoms: N_37  and  C_40 
ROOT
HETATM    1  C   UNK N   1      37.598  14.463  10.176  0.00  0.00     0.206 C 
HETATM    2  O   UNK N   1      37.221  15.665  10.656  0.00  0.00    -0.772 OA
HETATM    3  O   UNK N   1      38.674  14.359   9.605  0.00  0.00    -0.646 OA
HETATM    4  H   UNK N   1      37.011  16.461  11.103  0.00  0.00     0.167 HD
ENDROOT
BRANCH   1   5
HETATM    5  C   UNK N   1      36.710  13.246  10.324  0.00  0.00     0.264 C 
HETATM    6  O   UNK N   1      35.863  13.495  11.443  0.00  0.00    -0.336 OA
HETATM    7  C   UNK N   1      36.360  13.004  12.675  0.00  0.00     0.182 C 
HETATM    8  C   UNK N   1      36.278  11.477  12.575  0.00  0.00     0.145 C 
HETATM    9  C   UNK N   1      37.421  11.066  11.646  0.00  0.00     0.149 C 
HETATM   10  C   UNK N   1      37.624  11.977  10.430  0.00  0.00     0.115 C 
BRANCH   7  11
HETATM   11  C   UNK N   1      35.536  13.683  13.801  0.00  0.00     0.180 C 
BRANCH  11  12
HETATM   12  C   UNK N   1      36.411  14.000  15.035  0.00  0.00     0.173 C 
BRANCH  12  13
HETATM   13  C   UNK N   1      35.716  13.568  16.330  0.00  0.00     0.198 C 
BRANCH  13  14
HETATM   14  O   UNK N   1      35.937  12.216  16.587  0.00  0.00    -0.398 OA
HETATM   15  H   UNK N   1      36.060  11.904  17.497  0.00  0.00     0.209 HD
ENDBRANCH  13  14
ENDBRANCH  12  13
BRANCH  12  16
HETATM   16  O   UNK N   1      37.663  13.388  14.935  0.00  0.00    -0.391 OA
HETATM   17  H   UNK N   1      37.811  12.504  15.307  0.00  0.00     0.210 HD
ENDBRANCH  12  16
ENDBRANCH  11  12
BRANCH  11  18
HETATM   18  O   UNK N   1      34.460  12.903  14.230  0.00  0.00    -0.390 OA
HETATM   19  H   UNK N   1      34.583  11.961  14.431  0.00  0.00     0.210 HD
ENDBRANCH  11  18
ENDBRANCH   7  11
BRANCH   8  20
HETATM   20  N   UNK N   1      36.460  10.813  13.845  0.00  0.00    -0.352 N 
HETATM   21  C   UNK N   1      35.800   9.669  14.156  0.00  0.00     0.214 C 
HETATM   22  O   UNK N   1      35.038   9.149  13.353  0.00  0.00    -0.274 OA
HETATM   23  C   UNK N   1      36.006   9.040  15.488  0.00  0.00     0.117 C 
HETATM   24  H   UNK N   1      37.079  11.201  14.505  0.00  0.00     0.163 HD
ENDBRANCH   8  20
BRANCH   9  25
HETATM   25  O   UNK N   1      37.306   9.734  11.249  0.00  0.00    -0.393 OA
HETATM   26  H   UNK N   1      37.972   9.333  10.670  0.00  0.00     0.210 HD
ENDBRANCH   9  25
BRANCH   5  27
HETATM   27  O   UNK N   1      35.899  13.213   9.149  0.00  0.00    -0.248 OA
BRANCH  27  28
HETATM   28  P   UNK N   1      34.461  14.235   9.222  0.00  0.00     0.396 P 
HETATM   29  O   UNK N   1      33.447  13.613   8.217  0.00  0.00    -0.631 OA
BRANCH  28  30
HETATM   30  O   UNK N   1      34.811  15.875   8.707  0.00  0.00    -0.294 OA
BRANCH  30  31
HETATM   31  C   UNK N   1      33.758  16.691   9.150  0.00  0.00     0.215 C 
BRANCH  31  32
HETATM   32  C   UNK N   1      32.887  17.018   7.954  0.00  0.00     0.180 C 
HETATM   33  O   UNK N   1      31.653  16.361   7.974  0.00  0.00    -0.353 OA
HETATM   34  C   UNK N   1      31.123  16.644   6.697  0.00  0.00     0.263 C 
HETATM   35  C   UNK N   1      32.227  17.279   5.854  0.00  0.00     0.198 C 
HETATM   36  C   UNK N   1      33.453  16.826   6.584  0.00  0.00     0.182 C 
BRANCH  34  37
HETATM   37  N   UNK N   1      29.942  17.506   6.823  0.00  0.00    -0.280 N 
HETATM   38  C   UNK N   1      29.146  17.844   5.737  0.00  0.00     0.330 A 
HETATM   39  N   UNK N   1      28.092  18.703   5.905  0.00  0.00    -0.295 N 
HETATM   40  O   UNK N   1      29.379  17.402   4.627  0.00  0.00    -0.246 OA
HETATM   41  C   UNK N   1      27.809  19.228   7.122  0.00  0.00     0.103 A 
ATOM     42  HN  UNK N   1      27.512  18.950   5.104  1.00  0.00     0.172 HD
HETATM   43  C   UNK N   1      28.589  18.894   8.224  0.00  0.00     0.065 A 
HETATM   44  C   UNK N   1      29.665  18.025   8.048  0.00  0.00     0.102 A 
BRANCH  41  45
HETATM   45  N   UNK N   1      26.729  20.119   7.268  0.00  0.00    -0.385 N 
HETATM   46  H   UNK N   1      25.830  19.912   6.923  0.00  0.00     0.157 HD
HETATM   47  H   UNK N   1      26.876  20.976   7.729  0.00  0.00     0.157 HD
ENDBRANCH  41  45
ENDBRANCH  34  37
BRANCH  35  48
HETATM   48  O   UNK N   1      32.209  16.808   4.542  0.00  0.00    -0.388 OA
HETATM   49  H   UNK N   1      32.695  16.017   4.259  0.00  0.00     0.210 HD
ENDBRANCH  35  48
BRANCH  36  50
HETATM   50  O   UNK N   1      34.518  17.694   6.345  0.00  0.00    -0.390 OA
HETATM   51  H   UNK N   1      35.089  17.945   5.602  0.00  0.00     0.210 HD
ENDBRANCH  36  50
ENDBRANCH  31  32
ENDBRANCH  30  31
ENDBRANCH  28  30
BRANCH  28  52
HETATM   52  O   UNK N   1      33.699  14.250  10.778  0.00  0.00    -0.307 OA
HETATM   53  H   UNK N   1      32.816  13.868  10.906  0.00  0.00     0.222 HD
ENDBRANCH  28  52
ENDBRANCH  27  28
ENDBRANCH   5  27
ENDBRANCH   1   5
TORSDOF 19
ENDMDL
MODEL 9
REMARK VINA RESULT:      -7.0      4.332      8.048
REMARK  19 active torsions:
REMARK  status: ('A' for Active; 'I' for Inactive)
REMARK    1  A    between atoms: C_1  and  O_4 
REMARK    2  A    between atoms: C_1  and  C_5 
REMARK    3  A    between atoms: O_4  and  P_8 
REMARK    4  A    between atoms: C_6  and  C_33 
REMARK    5  A    between atoms: C_7  and  O_12 
REMARK    6  A    between atoms: P_8  and  O_13 
REMARK    7  A    between atoms: P_8  and  O_14 
REMARK    8  A    between atoms: C_11  and  N_37 
REMARK    9  A    between atoms: O_13  and  C_16 
REMARK   10  A    between atoms: C_17  and  C_16 
REMARK   11  A    between atoms: C_19  and  O_22 
REMARK   12  A    between atoms: C_20  and  N_23 
REMARK   13  A    between atoms: C_21  and  O_24 
REMARK   14  A    between atoms: C_31  and  N_32 
REMARK   15  A    between atoms: C_33  and  C_34 
REMARK   16  A    between atoms: C_33  and  O_39 
REMARK   17  A    between atoms: C_34  and  C_35 
REMARK   18  A    between atoms: C_34  and  O_38 
REMARK   19  A    between atoms: C_35  and  O_36 
REMARK       I    between atoms: N_37  and  C_40 
ROOT
HETATM    1  C   UNK N   1      30.505  14.179   5.533  0.00  0.00     0.206 C 
HETATM    2  O   UNK N   1      31.191  14.543   6.635  0.00  0.00    -0.772 OA
HETATM    3  O   UNK N   1      30.349  12.991   5.292  0.00  0.00    -0.646 OA
HETATM    4  H   UNK N   1      31.552  14.804   7.459  0.00  0.00     0.167 HD
ENDROOT
BRANCH   1   5
HETATM    5  C   UNK N   1      29.935  15.214   4.587  0.00  0.00     0.264 C 
HETATM    6  O   UNK N   1      29.364  16.236   5.399  0.00  0.00    -0.336 OA
HETATM    7  C   UNK N   1      27.988  16.062   5.681  0.00  0.00     0.182 C 
HETATM    8  C   UNK N   1      27.260  16.298   4.353  0.00  0.00     0.145 C 
HETATM    9  C   UNK N   1      27.520  15.045   3.516  0.00  0.00     0.149 C 
HETATM   10  C   UNK N   1      28.947  14.494   3.604  0.00  0.00     0.115 C 
BRANCH   7  11
HETATM   11  C   UNK N   1      27.639  17.014   6.856  0.00  0.00     0.180 C 
BRANCH  11  12
HETATM   12  C   UNK N   1      28.902  17.686   7.439  0.00  0.00     0.173 C 
BRANCH  12  13
HETATM   13  C   UNK N   1      28.535  18.707   8.521  0.00  0.00     0.198 C 
BRANCH  13  14
HETATM   14  O   UNK N   1      27.302  19.297   8.250  0.00  0.00    -0.398 OA
HETATM   15  H   UNK N   1      27.008  19.419   7.334  0.00  0.00     0.209 HD
ENDBRANCH  13  14
ENDBRANCH  12  13
BRANCH  12  16
HETATM   16  O   UNK N   1      29.786  16.736   7.955  0.00  0.00    -0.391 OA
HETATM   17  H   UNK N   1      30.594  17.012   8.416  0.00  0.00     0.210 HD
ENDBRANCH  12  16
ENDBRANCH  11  12
BRANCH  11  18
HETATM   18  O   UNK N   1      26.981  16.364   7.902  0.00  0.00    -0.390 OA
HETATM   19  H   UNK N   1      26.016  16.262   7.890  0.00  0.00     0.210 HD
ENDBRANCH  11  18
ENDBRANCH   7  11
BRANCH   8  20
HETATM   20  N   UNK N   1      25.832  16.459   4.506  0.00  0.00    -0.352 N 
HETATM   21  C   UNK N   1      25.213  17.638   4.252  0.00  0.00     0.214 C 
HETATM   22  O   UNK N   1      25.848  18.607   3.861  0.00  0.00    -0.274 OA
HETATM   23  C   UNK N   1      23.743  17.754   4.450  0.00  0.00     0.117 C 
HETATM   24  H   UNK N   1      25.294  15.690   4.805  0.00  0.00     0.163 HD
ENDBRANCH   8  20
BRANCH   9  25
HETATM   25  O   UNK N   1      27.146  15.231   2.185  0.00  0.00    -0.393 OA
HETATM   26  H   UNK N   1      27.814  15.242   1.482  0.00  0.00     0.210 HD
ENDBRANCH   9  25
BRANCH   5  27
HETATM   27  O   UNK N   1      31.055  15.765   3.894  0.00  0.00    -0.248 OA
BRANCH  27  28
HETATM   28  P   UNK N   1      31.501  17.396   4.406  0.00  0.00     0.396 P 
HETATM   29  O   UNK N   1      32.657  17.836   3.459  0.00  0.00    -0.631 OA
BRANCH  28  30
HETATM   30  O   UNK N   1      32.103  17.411   6.053  0.00  0.00    -0.294 OA
BRANCH  30  31
HETATM   31  C   UNK N   1      33.499  17.548   5.993  0.00  0.00     0.215 C 
BRANCH  31  32
HETATM   32  C   UNK N   1      34.080  16.964   7.264  0.00  0.00     0.180 C 
HETATM   33  O   UNK N   1      33.351  15.878   7.757  0.00  0.00    -0.353 OA
HETATM   34  C   UNK N   1      33.940  15.647   9.018  0.00  0.00     0.263 C 
HETATM   35  C   UNK N   1      34.871  16.817   9.330  0.00  0.00     0.198 C 
HETATM   36  C   UNK N   1      34.328  17.876   8.422  0.00  0.00     0.182 C 
BRANCH  34  37
HETATM   37  N   UNK N   1      34.637  14.355   9.018  0.00  0.00    -0.280 N 
HETATM   38  C   UNK N   1      33.962  13.144   8.948  0.00  0.00     0.330 A 
HETATM   39  N   UNK N   1      34.662  11.968   9.014  0.00  0.00    -0.295 N 
HETATM   40  O   UNK N   1      32.749  13.107   8.845  0.00  0.00    -0.246 OA
HETATM   41  C   UNK N   1      36.011  11.968   9.143  0.00  0.00     0.103 A 
ATOM     42  HN  UNK N   1      34.161  11.081   8.965  1.00  0.00     0.172 HD
HETATM   43  C   UNK N   1      36.706  13.171   9.205  0.00  0.00     0.065 A 
HETATM   44  C   UNK N   1      35.989  14.365   9.144  0.00  0.00     0.102 A 
BRANCH  41  45
HETATM   45  N   UNK N   1      36.707  10.747   9.223  0.00  0.00    -0.385 N 
HETATM   46  H   UNK N   1      36.275   9.918   9.531  0.00  0.00     0.157 HD
HETATM   47  H   UNK N   1      37.657  10.721   8.962  0.00  0.00     0.157 HD
ENDBRANCH  41  45
ENDBRANCH  34  37
BRANCH  35  48
HETATM   48  O   UNK N   1      34.789  17.199  10.669  0.00  0.00    -0.388 OA
HETATM   49  H   UNK N   1      33.958  17.194  11.168  0.00  0.00     0.210 HD
ENDBRANCH  35  48
BRANCH  36  50
HETATM   50  O   UNK N   1      35.308  18.823   8.127  0.00  0.00    -0.390 OA
HETATM   51  H   UNK N   1      36.228  18.835   7.816  0.00  0.00     0.210 HD
ENDBRANCH  36  50
ENDBRANCH  31  32
ENDBRANCH  30  31
ENDBRANCH  28  30
BRANCH  28  52
HETATM   52  O   UNK N   1      30.224  18.553   4.228  0.00  0.00    -0.307 OA
HETATM   53  H   UNK N   1      30.139  19.084   3.421  0.00  0.00     0.222 HD
ENDBRANCH  28  52
ENDBRANCH  27  28
ENDBRANCH   5  27
ENDBRANCH   1   5
TORSDOF 19
ENDMDL
