MODEL 1
REMARK VINA RESULT:      -5.8      0.000      0.000
REMARK WARNING: 32 MAX_TORS EXCEEDED!!!
REMARK  33 active torsions:
REMARK  status: ('A' for Active; 'I' for Inactive)
REMARK    1  A    between atoms: C_8  and  C_6 
REMARK    2  A    between atoms: C_9  and  C_7 
REMARK    3  A    between atoms: C_10  and  C_8 
REMARK    4  A    between atoms: C_11  and  C_9 
REMARK    5  A    between atoms: C_12  and  C_10 
REMARK    6  A    between atoms: C_13  and  C_11 
REMARK    7  A    between atoms: C_14  and  C_12 
REMARK    8  A    between atoms: C_15  and  C_13 
REMARK    9  A    between atoms: C_16  and  C_14 
REMARK   10  A    between atoms: C_17  and  C_15 
REMARK   11  A    between atoms: C_18  and  C_16 
REMARK   12  A    between atoms: C_19  and  C_17 
REMARK   13  A    between atoms: C_20  and  C_18 
REMARK   14  A    between atoms: C_21  and  C_19 
REMARK   15  A    between atoms: C_22  and  C_20 
REMARK   16  A    between atoms: C_23  and  C_21 
REMARK   17  A    between atoms: C_24  and  C_22 
REMARK   18  A    between atoms: C_25  and  C_23 
REMARK   19  A    between atoms: C_31  and  C_24 
REMARK   20  A    between atoms: C_32  and  C_25 
REMARK   21  A    between atoms: C_27  and  C_26 
REMARK   22  A    between atoms: N_33  and  C_26 
REMARK   23  A    between atoms: O_39  and  C_27 
REMARK   24  A    between atoms: C_30  and  C_28 
REMARK   25  A    between atoms: O_38  and  C_28 
REMARK   26  A    between atoms: C_30  and  C_29 
REMARK   27  A    between atoms: O_40  and  C_29 
REMARK   28  A    between atoms: C_30  and  O_41 
REMARK   29  A    between atoms: O_38  and  C_31 
REMARK   30  A    between atoms: O_41  and  C_32 
REMARK   31  A    between atoms: P_42  and  O_37 
REMARK   32  A    between atoms: P_42  and  O_39 
REMARK   33  A    between atoms: P_42  and  O_40 
ROOT
HETATM    1  C   UNK N   1      22.454  18.432   4.660  0.00  0.00     0.180 C 
ENDROOT
BRANCH   1   2
HETATM    2  C   UNK N   1      23.906  18.540   4.197  0.00  0.00     0.213 C 
BRANCH   2   3
HETATM    3  O   UNK N   1      24.222  19.789   3.691  0.00  0.00    -0.319 OA
BRANCH   3   4
HETATM    4  C   UNK N   1      25.455  20.177   3.268  0.00  0.00     0.258 C 
HETATM    5  O   UNK N   1      25.551  20.805   2.226  0.00  0.00    -0.265 OA
BRANCH   4   6
HETATM    6  C   UNK N   1      26.701  19.898   4.053  0.00  0.00     0.111 C 
BRANCH   6   7
HETATM    7  C   UNK N   1      26.890  20.901   5.176  0.00  0.00     0.010 C 
BRANCH   7   8
HETATM    8  C   UNK N   1      27.565  20.233   6.364  0.00  0.00     0.000 C 
BRANCH   8   9
HETATM    9  C   UNK N   1      27.580  18.723   6.194  0.00  0.00     0.000 C 
BRANCH   9  10
HETATM   10  C   UNK N   1      28.288  18.081   7.371  0.00  0.00     0.000 C 
BRANCH  10  11
HETATM   11  C   UNK N   1      29.589  17.474   6.899  0.00  0.00     0.000 C 
BRANCH  11  12
HETATM   12  C   UNK N   1      29.445  17.073   5.445  0.00  0.00     0.000 C 
BRANCH  12  13
HETATM   13  C   UNK N   1      30.629  17.568   4.634  0.00  0.00     0.000 C 
BRANCH  13  14
HETATM   14  C   UNK N   1      31.914  17.265   5.379  0.00  0.00    -0.000 C 
BRANCH  14  15
HETATM   15  C   UNK N   1      32.997  16.883   4.396  0.00  0.00    -0.005 C 
HETATM   16  C   UNK N   1      32.445  16.978   2.990  0.00  0.00     0.005 C 
ENDBRANCH  14  15
ENDBRANCH  13  14
ENDBRANCH  12  13
ENDBRANCH  11  12
ENDBRANCH  10  11
ENDBRANCH   9  10
ENDBRANCH   8   9
ENDBRANCH   7   8
ENDBRANCH   6   7
ENDBRANCH   4   6
ENDBRANCH   3   4
ENDBRANCH   2   3
ENDBRANCH   1   2
BRANCH   1  17
HETATM   17  C   UNK N   1      21.581  19.337   3.799  0.00  0.00     0.215 C 
BRANCH  17  18
HETATM   18  O   UNK N   1      21.400  18.851   2.496  0.00  0.00    -0.294 OA
BRANCH  18  19
HETATM   19  P   UNK N   1      20.449  20.048   1.638  0.00  0.00     0.393 P 
HETATM   20  O   UNK N   1      21.829  20.769   1.632  0.00  0.00    -0.631 OA
BRANCH  19  21
HETATM   21  O   UNK N   1      20.682  20.445  -0.039  0.00  0.00    -0.307 OA
HETATM   22  H   UNK N   1      20.749  19.764  -0.726  0.00  0.00     0.222 HD
ENDBRANCH  19  21
BRANCH  19  23
HETATM   23  O   UNK N   1      20.615  18.601   0.687  0.00  0.00    -0.295 OA
BRANCH  23  24
HETATM   24  C   UNK N   1      19.885  17.606   1.348  0.00  0.00     0.208 C 
BRANCH  24  25
HETATM   25  C   UNK N   1      19.838  16.374   0.448  0.00  0.00     0.262 C 
BRANCH  25  26
HETATM   26  N   UNK N   1      20.084  15.117   1.158  0.00  0.00    -0.077 N 
HETATM   27  C   UNK N   1      21.451  14.647   0.978  0.00  0.00     0.271 C 
HETATM   28  C   UNK N   1      19.152  14.091   0.721  0.00  0.00     0.271 C 
HETATM   29  C   UNK N   1      19.872  15.354   2.574  0.00  0.00     0.271 C 
ENDBRANCH  25  26
ENDBRANCH  24  25
ENDBRANCH  23  24
ENDBRANCH  19  23
ENDBRANCH  18  19
ENDBRANCH  17  18
ENDBRANCH   1  17
BRANCH   1  30
HETATM   30  O   UNK N   1      22.054  17.111   4.575  0.00  0.00    -0.312 OA
BRANCH  30  31
HETATM   31  C   UNK N   1      22.368  16.157   5.486  0.00  0.00     0.259 C 
HETATM   32  O   UNK N   1      22.967  15.144   5.150  0.00  0.00    -0.265 OA
BRANCH  31  33
HETATM   33  C   UNK N   1      21.873  16.308   6.889  0.00  0.00     0.111 C 
BRANCH  33  34
HETATM   34  C   UNK N   1      20.621  15.498   7.161  0.00  0.00     0.010 C 
BRANCH  34  35
HETATM   35  C   UNK N   1      20.976  14.231   7.929  0.00  0.00     0.000 C 
BRANCH  35  36
HETATM   36  C   UNK N   1      20.586  14.341   9.393  0.00  0.00     0.000 C 
BRANCH  36  37
HETATM   37  C   UNK N   1      20.879  13.035  10.115  0.00  0.00     0.000 C 
BRANCH  37  38
HETATM   38  C   UNK N   1      22.334  12.982  10.544  0.00  0.00     0.000 C 
BRANCH  38  39
HETATM   39  C   UNK N   1      22.890  11.579  10.374  0.00  0.00     0.000 C 
BRANCH  39  40
HETATM   40  C   UNK N   1      23.991  11.570   9.333  0.00  0.00     0.000 C 
BRANCH  40  41
HETATM   41  C   UNK N   1      23.376  11.344   7.968  0.00  0.00    -0.000 C 
BRANCH  41  42
HETATM   42  C   UNK N   1      24.012  12.279   6.962  0.00  0.00    -0.005 C 
HETATM   43  C   UNK N   1      24.788  13.352   7.694  0.00  0.00     0.005 C 
ENDBRANCH  41  42
ENDBRANCH  40  41
ENDBRANCH  39  40
ENDBRANCH  38  39
ENDBRANCH  37  38
ENDBRANCH  36  37
ENDBRANCH  35  36
ENDBRANCH  34  35
ENDBRANCH  33  34
ENDBRANCH  31  33
ENDBRANCH  30  31
ENDBRANCH   1  30
TORSDOF 33
ENDMDL
MODEL 2
REMARK VINA RESULT:      -5.8      3.143      7.227
REMARK WARNING: 32 MAX_TORS EXCEEDED!!!
REMARK  33 active torsions:
REMARK  status: ('A' for Active; 'I' for Inactive)
REMARK    1  A    between atoms: C_8  and  C_6 
REMARK    2  A    between atoms: C_9  and  C_7 
REMARK    3  A    between atoms: C_10  and  C_8 
REMARK    4  A    between atoms: C_11  and  C_9 
REMARK    5  A    between atoms: C_12  and  C_10 
REMARK    6  A    between atoms: C_13  and  C_11 
REMARK    7  A    between atoms: C_14  and  C_12 
REMARK    8  A    between atoms: C_15  and  C_13 
REMARK    9  A    between atoms: C_16  and  C_14 
REMARK   10  A    between atoms: C_17  and  C_15 
REMARK   11  A    between atoms: C_18  and  C_16 
REMARK   12  A    between atoms: C_19  and  C_17 
REMARK   13  A    between atoms: C_20  and  C_18 
REMARK   14  A    between atoms: C_21  and  C_19 
REMARK   15  A    between atoms: C_22  and  C_20 
REMARK   16  A    between atoms: C_23  and  C_21 
REMARK   17  A    between atoms: C_24  and  C_22 
REMARK   18  A    between atoms: C_25  and  C_23 
REMARK   19  A    between atoms: C_31  and  C_24 
REMARK   20  A    between atoms: C_32  and  C_25 
REMARK   21  A    between atoms: C_27  and  C_26 
REMARK   22  A    between atoms: N_33  and  C_26 
REMARK   23  A    between atoms: O_39  and  C_27 
REMARK   24  A    between atoms: C_30  and  C_28 
REMARK   25  A    between atoms: O_38  and  C_28 
REMARK   26  A    between atoms: C_30  and  C_29 
REMARK   27  A    between atoms: O_40  and  C_29 
REMARK   28  A    between atoms: C_30  and  O_41 
REMARK   29  A    between atoms: O_38  and  C_31 
REMARK   30  A    between atoms: O_41  and  C_32 
REMARK   31  A    between atoms: P_42  and  O_37 
REMARK   32  A    between atoms: P_42  and  O_39 
REMARK   33  A    between atoms: P_42  and  O_40 
ROOT
HETATM    1  C   UNK N   1      21.652  16.941   6.047  0.00  0.00     0.180 C 
ENDROOT
BRANCH   1   2
HETATM    2  C   UNK N   1      21.308  18.377   5.657  0.00  0.00     0.213 C 
BRANCH   2   3
HETATM    3  O   UNK N   1      21.292  18.577   4.287  0.00  0.00    -0.319 OA
BRANCH   3   4
HETATM    4  C   UNK N   1      21.289  19.788   3.668  0.00  0.00     0.258 C 
HETATM    5  O   UNK N   1      20.351  20.545   3.858  0.00  0.00    -0.265 OA
BRANCH   4   6
HETATM    6  C   UNK N   1      22.414  20.247   2.790  0.00  0.00     0.111 C 
BRANCH   6   7
HETATM    7  C   UNK N   1      23.765  19.887   3.379  0.00  0.00     0.010 C 
BRANCH   7   8
HETATM    8  C   UNK N   1      24.876  20.548   2.579  0.00  0.00     0.000 C 
BRANCH   8   9
HETATM    9  C   UNK N   1      26.234  20.238   3.189  0.00  0.00     0.000 C 
BRANCH   9  10
HETATM   10  C   UNK N   1      26.079  19.957   4.670  0.00  0.00     0.000 C 
BRANCH  10  11
HETATM   11  C   UNK N   1      26.684  21.095   5.460  0.00  0.00     0.000 C 
BRANCH  11  12
HETATM   12  C   UNK N   1      27.077  20.585   6.832  0.00  0.00     0.000 C 
BRANCH  12  13
HETATM   13  C   UNK N   1      27.957  19.354   6.711  0.00  0.00     0.000 C 
BRANCH  13  14
HETATM   14  C   UNK N   1      28.227  18.788   8.092  0.00  0.00    -0.000 C 
BRANCH  14  15
HETATM   15  C   UNK N   1      28.507  17.306   7.992  0.00  0.00    -0.005 C 
HETATM   16  C   UNK N   1      27.411  16.650   7.180  0.00  0.00     0.005 C 
ENDBRANCH  14  15
ENDBRANCH  13  14
ENDBRANCH  12  13
ENDBRANCH  11  12
ENDBRANCH  10  11
ENDBRANCH   9  10
ENDBRANCH   8   9
ENDBRANCH   7   8
ENDBRANCH   6   7
ENDBRANCH   4   6
ENDBRANCH   3   4
ENDBRANCH   2   3
ENDBRANCH   1   2
BRANCH   1  17
HETATM   17  C   UNK N   1      20.392  16.231   6.526  0.00  0.00     0.215 C 
BRANCH  17  18
HETATM   18  O   UNK N   1      20.657  15.026   7.193  0.00  0.00    -0.294 OA
BRANCH  18  19
HETATM   19  P   UNK N   1      20.309  15.300   8.890  0.00  0.00     0.393 P 
HETATM   20  O   UNK N   1      19.017  15.902   8.266  0.00  0.00    -0.631 OA
BRANCH  19  21
HETATM   21  O   UNK N   1      19.037  14.492   9.756  0.00  0.00    -0.307 OA
HETATM   22  H   UNK N   1      19.210  13.741  10.345  0.00  0.00     0.222 HD
ENDBRANCH  19  21
BRANCH  19  23
HETATM   23  O   UNK N   1      20.315  13.597   8.532  0.00  0.00    -0.295 OA
BRANCH  23  24
HETATM   24  C   UNK N   1      21.659  13.215   8.441  0.00  0.00     0.208 C 
BRANCH  24  25
HETATM   25  C   UNK N   1      22.281  13.333   9.830  0.00  0.00     0.262 C 
BRANCH  25  26
HETATM   26  N   UNK N   1      23.429  12.447  10.037  0.00  0.00    -0.077 N 
HETATM   27  C   UNK N   1      23.474  11.920  11.394  0.00  0.00     0.271 C 
HETATM   28  C   UNK N   1      24.671  13.141   9.739  0.00  0.00     0.271 C 
HETATM   29  C   UNK N   1      23.300  11.327   9.123  0.00  0.00     0.271 C 
ENDBRANCH  25  26
ENDBRANCH  24  25
ENDBRANCH  23  24
ENDBRANCH  19  23
ENDBRANCH  18  19
ENDBRANCH  17  18
ENDBRANCH   1  17
BRANCH   1  30
HETATM   30  O   UNK N   1      22.210  16.302   4.955  0.00  0.00    -0.312 OA
BRANCH  30  31
HETATM   31  C   UNK N   1      23.410  15.672   4.969  0.00  0.00     0.259 C 
HETATM   32  O   UNK N   1      23.528  14.559   5.466  0.00  0.00    -0.265 OA
BRANCH  31  33
HETATM   33  C   UNK N   1      24.615  16.404   4.470  0.00  0.00     0.111 C 
BRANCH  33  34
HETATM   34  C   UNK N   1      25.533  15.529   3.638  0.00  0.00     0.010 C 
BRANCH  34  35
HETATM   35  C   UNK N   1      26.436  16.397   2.771  0.00  0.00     0.000 C 
BRANCH  35  36
HETATM   36  C   UNK N   1      27.670  16.850   3.533  0.00  0.00     0.000 C 
BRANCH  36  37
HETATM   37  C   UNK N   1      28.855  15.961   3.189  0.00  0.00     0.000 C 
BRANCH  37  38
HETATM   38  C   UNK N   1      29.279  15.152   4.401  0.00  0.00     0.000 C 
BRANCH  38  39
HETATM   39  C   UNK N   1      30.596  14.441   4.135  0.00  0.00     0.000 C 
BRANCH  39  40
HETATM   40  C   UNK N   1      31.738  15.181   4.800  0.00  0.00     0.000 C 
BRANCH  40  41
HETATM   41  C   UNK N   1      31.227  15.845   6.061  0.00  0.00    -0.000 C 
BRANCH  41  42
HETATM   42  C   UNK N   1      31.833  17.226   6.192  0.00  0.00    -0.005 C 
HETATM   43  C   UNK N   1      32.850  17.433   5.091  0.00  0.00     0.005 C 
ENDBRANCH  41  42
ENDBRANCH  40  41
ENDBRANCH  39  40
ENDBRANCH  38  39
ENDBRANCH  37  38
ENDBRANCH  36  37
ENDBRANCH  35  36
ENDBRANCH  34  35
ENDBRANCH  33  34
ENDBRANCH  31  33
ENDBRANCH  30  31
ENDBRANCH   1  30
TORSDOF 33
ENDMDL
MODEL 3
REMARK VINA RESULT:      -5.8      1.561      2.163
REMARK WARNING: 32 MAX_TORS EXCEEDED!!!
REMARK  33 active torsions:
REMARK  status: ('A' for Active; 'I' for Inactive)
REMARK    1  A    between atoms: C_8  and  C_6 
REMARK    2  A    between atoms: C_9  and  C_7 
REMARK    3  A    between atoms: C_10  and  C_8 
REMARK    4  A    between atoms: C_11  and  C_9 
REMARK    5  A    between atoms: C_12  and  C_10 
REMARK    6  A    between atoms: C_13  and  C_11 
REMARK    7  A    between atoms: C_14  and  C_12 
REMARK    8  A    between atoms: C_15  and  C_13 
REMARK    9  A    between atoms: C_16  and  C_14 
REMARK   10  A    between atoms: C_17  and  C_15 
REMARK   11  A    between atoms: C_18  and  C_16 
REMARK   12  A    between atoms: C_19  and  C_17 
REMARK   13  A    between atoms: C_20  and  C_18 
REMARK   14  A    between atoms: C_21  and  C_19 
REMARK   15  A    between atoms: C_22  and  C_20 
REMARK   16  A    between atoms: C_23  and  C_21 
REMARK   17  A    between atoms: C_24  and  C_22 
REMARK   18  A    between atoms: C_25  and  C_23 
REMARK   19  A    between atoms: C_31  and  C_24 
REMARK   20  A    between atoms: C_32  and  C_25 
REMARK   21  A    between atoms: C_27  and  C_26 
REMARK   22  A    between atoms: N_33  and  C_26 
REMARK   23  A    between atoms: O_39  and  C_27 
REMARK   24  A    between atoms: C_30  and  C_28 
REMARK   25  A    between atoms: O_38  and  C_28 
REMARK   26  A    between atoms: C_30  and  C_29 
REMARK   27  A    between atoms: O_40  and  C_29 
REMARK   28  A    between atoms: C_30  and  O_41 
REMARK   29  A    between atoms: O_38  and  C_31 
REMARK   30  A    between atoms: O_41  and  C_32 
REMARK   31  A    between atoms: P_42  and  O_37 
REMARK   32  A    between atoms: P_42  and  O_39 
REMARK   33  A    between atoms: P_42  and  O_40 
ROOT
HETATM    1  C   UNK N   1      22.273  18.682   5.285  0.00  0.00     0.180 C 
ENDROOT
BRANCH   1   2
HETATM    2  C   UNK N   1      23.576  18.343   4.564  0.00  0.00     0.213 C 
BRANCH   2   3
HETATM    3  O   UNK N   1      23.767  19.086   3.412  0.00  0.00    -0.319 OA
BRANCH   3   4
HETATM    4  C   UNK N   1      24.641  20.120   3.277  0.00  0.00     0.258 C 
HETATM    5  O   UNK N   1      24.502  20.892   2.344  0.00  0.00    -0.265 OA
BRANCH   4   6
HETATM    6  C   UNK N   1      25.748  20.371   4.256  0.00  0.00     0.111 C 
BRANCH   6   7
HETATM    7  C   UNK N   1      27.039  19.700   3.824  0.00  0.00     0.010 C 
BRANCH   7   8
HETATM    8  C   UNK N   1      28.108  19.890   4.887  0.00  0.00     0.000 C 
BRANCH   8   9
HETATM    9  C   UNK N   1      27.738  19.147   6.161  0.00  0.00     0.000 C 
BRANCH   9  10
HETATM   10  C   UNK N   1      27.886  17.654   5.945  0.00  0.00     0.000 C 
BRANCH  10  11
HETATM   11  C   UNK N   1      27.670  16.936   7.258  0.00  0.00     0.000 C 
BRANCH  11  12
HETATM   12  C   UNK N   1      28.062  17.860   8.393  0.00  0.00     0.000 C 
BRANCH  12  13
HETATM   13  C   UNK N   1      29.359  17.399   9.032  0.00  0.00     0.000 C 
BRANCH  13  14
HETATM   14  C   UNK N   1      30.376  18.524   8.983  0.00  0.00    -0.000 C 
BRANCH  14  15
HETATM   15  C   UNK N   1      31.698  17.997   8.476  0.00  0.00    -0.005 C 
HETATM   16  C   UNK N   1      31.452  17.137   7.254  0.00  0.00     0.005 C 
ENDBRANCH  14  15
ENDBRANCH  13  14
ENDBRANCH  12  13
ENDBRANCH  11  12
ENDBRANCH  10  11
ENDBRANCH   9  10
ENDBRANCH   8   9
ENDBRANCH   7   8
ENDBRANCH   6   7
ENDBRANCH   4   6
ENDBRANCH   3   4
ENDBRANCH   2   3
ENDBRANCH   1   2
BRANCH   1  17
HETATM   17  C   UNK N   1      21.227  19.113   4.265  0.00  0.00     0.215 C 
BRANCH  17  18
HETATM   18  O   UNK N   1      20.420  18.054   3.823  0.00  0.00    -0.294 OA
BRANCH  18  19
HETATM   19  P   UNK N   1      19.527  18.646   2.434  0.00  0.00     0.393 P 
HETATM   20  O   UNK N   1      20.240  19.963   2.856  0.00  0.00    -0.631 OA
BRANCH  19  21
HETATM   21  O   UNK N   1      20.278  19.180   0.960  0.00  0.00    -0.307 OA
HETATM   22  H   UNK N   1      20.949  18.652   0.502  0.00  0.00     0.222 HD
ENDBRANCH  19  21
BRANCH  19  23
HETATM   23  O   UNK N   1      20.760  17.523   1.937  0.00  0.00    -0.295 OA
BRANCH  23  24
HETATM   24  C   UNK N   1      20.156  16.646   1.028  0.00  0.00     0.208 C 
BRANCH  24  25
HETATM   25  C   UNK N   1      20.885  15.308   1.103  0.00  0.00     0.262 C 
BRANCH  25  26
HETATM   26  N   UNK N   1      20.021  14.187   1.475  0.00  0.00    -0.077 N 
HETATM   27  C   UNK N   1      19.486  14.334   2.822  0.00  0.00     0.271 C 
HETATM   28  C   UNK N   1      20.739  12.928   1.368  0.00  0.00     0.271 C 
HETATM   29  C   UNK N   1      18.904  14.156   0.549  0.00  0.00     0.271 C 
ENDBRANCH  25  26
ENDBRANCH  24  25
ENDBRANCH  23  24
ENDBRANCH  19  23
ENDBRANCH  18  19
ENDBRANCH  17  18
ENDBRANCH   1  17
BRANCH   1  30
HETATM   30  O   UNK N   1      21.857  17.574   6.001  0.00  0.00    -0.312 OA
BRANCH  30  31
HETATM   31  C   UNK N   1      20.938  17.609   6.997  0.00  0.00     0.259 C 
HETATM   32  O   UNK N   1      20.704  18.650   7.597  0.00  0.00    -0.265 OA
BRANCH  31  33
HETATM   33  C   UNK N   1      20.296  16.330   7.431  0.00  0.00     0.111 C 
BRANCH  33  34
HETATM   34  C   UNK N   1      20.441  16.072   8.918  0.00  0.00     0.010 C 
BRANCH  34  35
HETATM   35  C   UNK N   1      21.070  14.704   9.152  0.00  0.00     0.000 C 
BRANCH  35  36
HETATM   36  C   UNK N   1      20.149  13.799   9.952  0.00  0.00     0.000 C 
BRANCH  36  37
HETATM   37  C   UNK N   1      20.959  12.743  10.687  0.00  0.00     0.000 C 
BRANCH  37  38
HETATM   38  C   UNK N   1      22.439  12.913  10.396  0.00  0.00     0.000 C 
BRANCH  38  39
HETATM   39  C   UNK N   1      23.053  11.592   9.962  0.00  0.00     0.000 C 
BRANCH  39  40
HETATM   40  C   UNK N   1      24.253  11.837   9.071  0.00  0.00     0.000 C 
BRANCH  40  41
HETATM   41  C   UNK N   1      23.851  12.767   7.946  0.00  0.00    -0.000 C 
BRANCH  41  42
HETATM   42  C   UNK N   1      24.890  13.856   7.790  0.00  0.00    -0.005 C 
HETATM   43  C   UNK N   1      24.397  14.880   6.791  0.00  0.00     0.005 C 
ENDBRANCH  41  42
ENDBRANCH  40  41
ENDBRANCH  39  40
ENDBRANCH  38  39
ENDBRANCH  37  38
ENDBRANCH  36  37
ENDBRANCH  35  36
ENDBRANCH  34  35
ENDBRANCH  33  34
ENDBRANCH  31  33
ENDBRANCH  30  31
ENDBRANCH   1  30
TORSDOF 33
ENDMDL
MODEL 4
REMARK VINA RESULT:      -5.7      2.750      5.977
REMARK WARNING: 32 MAX_TORS EXCEEDED!!!
REMARK  33 active torsions:
REMARK  status: ('A' for Active; 'I' for Inactive)
REMARK    1  A    between atoms: C_8  and  C_6 
REMARK    2  A    between atoms: C_9  and  C_7 
REMARK    3  A    between atoms: C_10  and  C_8 
REMARK    4  A    between atoms: C_11  and  C_9 
REMARK    5  A    between atoms: C_12  and  C_10 
REMARK    6  A    between atoms: C_13  and  C_11 
REMARK    7  A    between atoms: C_14  and  C_12 
REMARK    8  A    between atoms: C_15  and  C_13 
REMARK    9  A    between atoms: C_16  and  C_14 
REMARK   10  A    between atoms: C_17  and  C_15 
REMARK   11  A    between atoms: C_18  and  C_16 
REMARK   12  A    between atoms: C_19  and  C_17 
REMARK   13  A    between atoms: C_20  and  C_18 
REMARK   14  A    between atoms: C_21  and  C_19 
REMARK   15  A    between atoms: C_22  and  C_20 
REMARK   16  A    between atoms: C_23  and  C_21 
REMARK   17  A    between atoms: C_24  and  C_22 
REMARK   18  A    between atoms: C_25  and  C_23 
REMARK   19  A    between atoms: C_31  and  C_24 
REMARK   20  A    between atoms: C_32  and  C_25 
REMARK   21  A    between atoms: C_27  and  C_26 
REMARK   22  A    between atoms: N_33  and  C_26 
REMARK   23  A    between atoms: O_39  and  C_27 
REMARK   24  A    between atoms: C_30  and  C_28 
REMARK   25  A    between atoms: O_38  and  C_28 
REMARK   26  A    between atoms: C_30  and  C_29 
REMARK   27  A    between atoms: O_40  and  C_29 
REMARK   28  A    between atoms: C_30  and  O_41 
REMARK   29  A    between atoms: O_38  and  C_31 
REMARK   30  A    between atoms: O_41  and  C_32 
REMARK   31  A    between atoms: P_42  and  O_37 
REMARK   32  A    between atoms: P_42  and  O_39 
REMARK   33  A    between atoms: P_42  and  O_40 
ROOT
HETATM    1  C   UNK N   1      20.987  17.610   3.305  0.00  0.00     0.180 C 
ENDROOT
BRANCH   1   2
HETATM    2  C   UNK N   1      21.460  19.052   3.476  0.00  0.00     0.213 C 
BRANCH   2   3
HETATM    3  O   UNK N   1      22.809  19.214   3.209  0.00  0.00    -0.319 OA
BRANCH   3   4
HETATM    4  C   UNK N   1      23.435  20.406   3.011  0.00  0.00     0.258 C 
HETATM    5  O   UNK N   1      22.758  21.403   2.819  0.00  0.00    -0.265 OA
BRANCH   4   6
HETATM    6  C   UNK N   1      24.926  20.550   3.060  0.00  0.00     0.111 C 
BRANCH   6   7
HETATM    7  C   UNK N   1      25.492  20.065   4.381  0.00  0.00     0.010 C 
BRANCH   7   8
HETATM    8  C   UNK N   1      27.011  20.039   4.321  0.00  0.00     0.000 C 
BRANCH   8   9
HETATM    9  C   UNK N   1      27.608  20.797   5.496  0.00  0.00     0.000 C 
BRANCH   9  10
HETATM   10  C   UNK N   1      27.659  19.898   6.715  0.00  0.00     0.000 C 
BRANCH  10  11
HETATM   11  C   UNK N   1      27.946  18.480   6.276  0.00  0.00     0.000 C 
BRANCH  11  12
HETATM   12  C   UNK N   1      28.367  17.668   7.484  0.00  0.00     0.000 C 
BRANCH  12  13
HETATM   13  C   UNK N   1      28.358  18.529   8.734  0.00  0.00     0.000 C 
BRANCH  13  14
HETATM   14  C   UNK N   1      29.706  18.438   9.422  0.00  0.00    -0.000 C 
BRANCH  14  15
HETATM   15  C   UNK N   1      30.557  17.388   8.745  0.00  0.00    -0.005 C 
HETATM   16  C   UNK N   1      31.932  17.962   8.480  0.00  0.00     0.005 C 
ENDBRANCH  14  15
ENDBRANCH  13  14
ENDBRANCH  12  13
ENDBRANCH  11  12
ENDBRANCH  10  11
ENDBRANCH   9  10
ENDBRANCH   8   9
ENDBRANCH   7   8
ENDBRANCH   6   7
ENDBRANCH   4   6
ENDBRANCH   3   4
ENDBRANCH   2   3
ENDBRANCH   1   2
BRANCH   1  17
HETATM   17  C   UNK N   1      20.228  17.176   4.552  0.00  0.00     0.215 C 
BRANCH  17  18
HETATM   18  O   UNK N   1      20.797  16.060   5.183  0.00  0.00    -0.294 OA
BRANCH  18  19
HETATM   19  P   UNK N   1      20.340  16.147   6.874  0.00  0.00     0.393 P 
HETATM   20  O   UNK N   1      18.971  15.731   6.262  0.00  0.00    -0.631 OA
BRANCH  19  21
HETATM   21  O   UNK N   1      19.886  14.764   7.824  0.00  0.00    -0.307 OA
HETATM   22  H   UNK N   1      20.399  14.477   8.595  0.00  0.00     0.222 HD
ENDBRANCH  19  21
BRANCH  19  23
HETATM   23  O   UNK N   1      21.450  14.834   6.606  0.00  0.00    -0.295 OA
BRANCH  23  24
HETATM   24  C   UNK N   1      21.850  14.388   7.871  0.00  0.00     0.208 C 
BRANCH  24  25
HETATM   25  C   UNK N   1      22.871  13.270   7.679  0.00  0.00     0.262 C 
BRANCH  25  26
HETATM   26  N   UNK N   1      23.474  12.804   8.929  0.00  0.00    -0.077 N 
HETATM   27  C   UNK N   1      24.824  13.320   9.111  0.00  0.00     0.271 C 
HETATM   28  C   UNK N   1      23.496  11.351   8.977  0.00  0.00     0.271 C 
HETATM   29  C   UNK N   1      22.656  13.285  10.027  0.00  0.00     0.271 C 
ENDBRANCH  25  26
ENDBRANCH  24  25
ENDBRANCH  23  24
ENDBRANCH  19  23
ENDBRANCH  18  19
ENDBRANCH  17  18
ENDBRANCH   1  17
BRANCH   1  30
HETATM   30  O   UNK N   1      20.193  17.531   2.175  0.00  0.00    -0.312 OA
BRANCH  30  31
HETATM   31  C   UNK N   1      20.382  16.643   1.168  0.00  0.00     0.259 C 
HETATM   32  O   UNK N   1      20.316  17.000  -0.001  0.00  0.00    -0.265 OA
BRANCH  31  33
HETATM   33  C   UNK N   1      20.560  15.197   1.505  0.00  0.00     0.111 C 
BRANCH  33  34
HETATM   34  C   UNK N   1      21.949  14.683   1.178  0.00  0.00     0.010 C 
BRANCH  34  35
HETATM   35  C   UNK N   1      22.857  14.827   2.393  0.00  0.00     0.000 C 
BRANCH  35  36
HETATM   36  C   UNK N   1      23.839  13.672   2.492  0.00  0.00     0.000 C 
BRANCH  36  37
HETATM   37  C   UNK N   1      25.053  13.937   1.616  0.00  0.00     0.000 C 
BRANCH  37  38
HETATM   38  C   UNK N   1      25.511  15.376   1.767  0.00  0.00     0.000 C 
BRANCH  38  39
HETATM   39  C   UNK N   1      26.782  15.447   2.597  0.00  0.00     0.000 C 
BRANCH  39  40
HETATM   40  C   UNK N   1      26.535  16.227   3.873  0.00  0.00     0.000 C 
BRANCH  40  41
HETATM   41  C   UNK N   1      26.396  15.256   5.026  0.00  0.00    -0.000 C 
BRANCH  41  42
HETATM   42  C   UNK N   1      25.283  15.712   5.944  0.00  0.00    -0.005 C 
HETATM   43  C   UNK N   1      24.352  16.633   5.186  0.00  0.00     0.005 C 
ENDBRANCH  41  42
ENDBRANCH  40  41
ENDBRANCH  39  40
ENDBRANCH  38  39
ENDBRANCH  37  38
ENDBRANCH  36  37
ENDBRANCH  35  36
ENDBRANCH  34  35
ENDBRANCH  33  34
ENDBRANCH  31  33
ENDBRANCH  30  31
ENDBRANCH   1  30
TORSDOF 33
ENDMDL
MODEL 5
REMARK VINA RESULT:      -5.6      3.184      8.104
REMARK WARNING: 32 MAX_TORS EXCEEDED!!!
REMARK  33 active torsions:
REMARK  status: ('A' for Active; 'I' for Inactive)
REMARK    1  A    between atoms: C_8  and  C_6 
REMARK    2  A    between atoms: C_9  and  C_7 
REMARK    3  A    between atoms: C_10  and  C_8 
REMARK    4  A    between atoms: C_11  and  C_9 
REMARK    5  A    between atoms: C_12  and  C_10 
REMARK    6  A    between atoms: C_13  and  C_11 
REMARK    7  A    between atoms: C_14  and  C_12 
REMARK    8  A    between atoms: C_15  and  C_13 
REMARK    9  A    between atoms: C_16  and  C_14 
REMARK   10  A    between atoms: C_17  and  C_15 
REMARK   11  A    between atoms: C_18  and  C_16 
REMARK   12  A    between atoms: C_19  and  C_17 
REMARK   13  A    between atoms: C_20  and  C_18 
REMARK   14  A    between atoms: C_21  and  C_19 
REMARK   15  A    between atoms: C_22  and  C_20 
REMARK   16  A    between atoms: C_23  and  C_21 
REMARK   17  A    between atoms: C_24  and  C_22 
REMARK   18  A    between atoms: C_25  and  C_23 
REMARK   19  A    between atoms: C_31  and  C_24 
REMARK   20  A    between atoms: C_32  and  C_25 
REMARK   21  A    between atoms: C_27  and  C_26 
REMARK   22  A    between atoms: N_33  and  C_26 
REMARK   23  A    between atoms: O_39  and  C_27 
REMARK   24  A    between atoms: C_30  and  C_28 
REMARK   25  A    between atoms: O_38  and  C_28 
REMARK   26  A    between atoms: C_30  and  C_29 
REMARK   27  A    between atoms: O_40  and  C_29 
REMARK   28  A    between atoms: C_30  and  O_41 
REMARK   29  A    between atoms: O_38  and  C_31 
REMARK   30  A    between atoms: O_41  and  C_32 
REMARK   31  A    between atoms: P_42  and  O_37 
REMARK   32  A    between atoms: P_42  and  O_39 
REMARK   33  A    between atoms: P_42  and  O_40 
ROOT
HETATM    1  C   UNK N   1      21.490  16.889   6.768  0.00  0.00     0.180 C 
ENDROOT
BRANCH   1   2
HETATM    2  C   UNK N   1      21.340  18.325   6.269  0.00  0.00     0.213 C 
BRANCH   2   3
HETATM    3  O   UNK N   1      21.730  18.483   4.950  0.00  0.00    -0.319 OA
BRANCH   3   4
HETATM    4  C   UNK N   1      20.970  19.033   3.966  0.00  0.00     0.258 C 
HETATM    5  O   UNK N   1      20.721  20.227   4.009  0.00  0.00    -0.265 OA
BRANCH   4   6
HETATM    6  C   UNK N   1      20.456  18.236   2.804  0.00  0.00     0.111 C 
BRANCH   6   7
HETATM    7  C   UNK N   1      19.488  17.157   3.252  0.00  0.00     0.010 C 
BRANCH   7   8
HETATM    8  C   UNK N   1      20.108  15.783   3.051  0.00  0.00     0.000 C 
BRANCH   8   9
HETATM    9  C   UNK N   1      20.388  15.531   1.578  0.00  0.00     0.000 C 
BRANCH   9  10
HETATM   10  C   UNK N   1      20.168  14.066   1.257  0.00  0.00     0.000 C 
BRANCH  10  11
HETATM   11  C   UNK N   1      21.503  13.406   0.996  0.00  0.00     0.000 C 
BRANCH  11  12
HETATM   12  C   UNK N   1      22.564  14.480   0.869  0.00  0.00     0.000 C 
BRANCH  12  13
HETATM   13  C   UNK N   1      23.892  13.873   0.454  0.00  0.00     0.000 C 
BRANCH  13  14
HETATM   14  C   UNK N   1      24.040  12.502   1.086  0.00  0.00    -0.000 C 
BRANCH  14  15
HETATM   15  C   UNK N   1      25.261  12.477   1.976  0.00  0.00    -0.005 C 
HETATM   16  C   UNK N   1      26.326  11.616   1.330  0.00  0.00     0.005 C 
ENDBRANCH  14  15
ENDBRANCH  13  14
ENDBRANCH  12  13
ENDBRANCH  11  12
ENDBRANCH  10  11
ENDBRANCH   9  10
ENDBRANCH   8   9
ENDBRANCH   7   8
ENDBRANCH   6   7
ENDBRANCH   4   6
ENDBRANCH   3   4
ENDBRANCH   2   3
ENDBRANCH   1   2
BRANCH   1  17
HETATM   17  C   UNK N   1      20.143  16.385   7.271  0.00  0.00     0.215 C 
BRANCH  17  18
HETATM   18  O   UNK N   1      20.126  15.003   7.510  0.00  0.00    -0.294 OA
BRANCH  18  19
HETATM   19  P   UNK N   1      20.496  14.779   9.209  0.00  0.00     0.393 P 
HETATM   20  O   UNK N   1      19.043  15.321   9.335  0.00  0.00    -0.631 OA
BRANCH  19  21
HETATM   21  O   UNK N   1      19.718  13.597  10.219  0.00  0.00    -0.307 OA
HETATM   22  H   UNK N   1      19.903  13.527  11.168  0.00  0.00     0.222 HD
ENDBRANCH  19  21
BRANCH  19  23
HETATM   23  O   UNK N   1      20.410  13.245   8.394  0.00  0.00    -0.295 OA
BRANCH  23  24
HETATM   24  C   UNK N   1      21.670  13.027   7.824  0.00  0.00     0.208 C 
BRANCH  24  25
HETATM   25  C   UNK N   1      22.726  13.271   8.899  0.00  0.00     0.262 C 
BRANCH  25  26
HETATM   26  N   UNK N   1      23.890  12.390   8.790  0.00  0.00    -0.077 N 
HETATM   27  C   UNK N   1      24.541  12.182  10.077  0.00  0.00     0.271 C 
HETATM   28  C   UNK N   1      24.849  12.923   7.838  0.00  0.00     0.271 C 
HETATM   29  C   UNK N   1      23.432  11.101   8.304  0.00  0.00     0.271 C 
ENDBRANCH  25  26
ENDBRANCH  24  25
ENDBRANCH  23  24
ENDBRANCH  19  23
ENDBRANCH  18  19
ENDBRANCH  17  18
ENDBRANCH   1  17
BRANCH   1  30
HETATM   30  O   UNK N   1      21.972  16.105   5.736  0.00  0.00    -0.312 OA
BRANCH  30  31
HETATM   31  C   UNK N   1      23.257  15.685   5.631  0.00  0.00     0.259 C 
HETATM   32  O   UNK N   1      24.007  15.716   6.598  0.00  0.00    -0.265 OA
BRANCH  31  33
HETATM   33  C   UNK N   1      23.778  15.290   4.286  0.00  0.00     0.111 C 
BRANCH  33  34
HETATM   34  C   UNK N   1      24.241  16.475   3.462  0.00  0.00     0.010 C 
BRANCH  34  35
HETATM   35  C   UNK N   1      25.555  16.145   2.766  0.00  0.00     0.000 C 
BRANCH  35  36
HETATM   36  C   UNK N   1      26.605  15.672   3.756  0.00  0.00     0.000 C 
BRANCH  36  37
HETATM   37  C   UNK N   1      27.546  16.813   4.111  0.00  0.00     0.000 C 
BRANCH  37  38
HETATM   38  C   UNK N   1      27.315  17.264   5.542  0.00  0.00     0.000 C 
BRANCH  38  39
HETATM   39  C   UNK N   1      27.358  18.780   5.637  0.00  0.00     0.000 C 
BRANCH  39  40
HETATM   40  C   UNK N   1      27.376  19.394   4.253  0.00  0.00     0.000 C 
BRANCH  40  41
HETATM   41  C   UNK N   1      26.186  20.318   4.107  0.00  0.00    -0.000 C 
BRANCH  41  42
HETATM   42  C   UNK N   1      25.423  19.973   2.847  0.00  0.00    -0.005 C 
HETATM   43  C   UNK N   1      24.082  20.673   2.863  0.00  0.00     0.005 C 
ENDBRANCH  41  42
ENDBRANCH  40  41
ENDBRANCH  39  40
ENDBRANCH  38  39
ENDBRANCH  37  38
ENDBRANCH  36  37
ENDBRANCH  35  36
ENDBRANCH  34  35
ENDBRANCH  33  34
ENDBRANCH  31  33
ENDBRANCH  30  31
ENDBRANCH   1  30
TORSDOF 33
ENDMDL
MODEL 6
REMARK VINA RESULT:      -5.6      3.039      6.565
REMARK WARNING: 32 MAX_TORS EXCEEDED!!!
REMARK  33 active torsions:
REMARK  status: ('A' for Active; 'I' for Inactive)
REMARK    1  A    between atoms: C_8  and  C_6 
REMARK    2  A    between atoms: C_9  and  C_7 
REMARK    3  A    between atoms: C_10  and  C_8 
REMARK    4  A    between atoms: C_11  and  C_9 
REMARK    5  A    between atoms: C_12  and  C_10 
REMARK    6  A    between atoms: C_13  and  C_11 
REMARK    7  A    between atoms: C_14  and  C_12 
REMARK    8  A    between atoms: C_15  and  C_13 
REMARK    9  A    between atoms: C_16  and  C_14 
REMARK   10  A    between atoms: C_17  and  C_15 
REMARK   11  A    between atoms: C_18  and  C_16 
REMARK   12  A    between atoms: C_19  and  C_17 
REMARK   13  A    between atoms: C_20  and  C_18 
REMARK   14  A    between atoms: C_21  and  C_19 
REMARK   15  A    between atoms: C_22  and  C_20 
REMARK   16  A    between atoms: C_23  and  C_21 
REMARK   17  A    between atoms: C_24  and  C_22 
REMARK   18  A    between atoms: C_25  and  C_23 
REMARK   19  A    between atoms: C_31  and  C_24 
REMARK   20  A    between atoms: C_32  and  C_25 
REMARK   21  A    between atoms: C_27  and  C_26 
REMARK   22  A    between atoms: N_33  and  C_26 
REMARK   23  A    between atoms: O_39  and  C_27 
REMARK   24  A    between atoms: C_30  and  C_28 
REMARK   25  A    between atoms: O_38  and  C_28 
REMARK   26  A    between atoms: C_30  and  C_29 
REMARK   27  A    between atoms: O_40  and  C_29 
REMARK   28  A    between atoms: C_30  and  O_41 
REMARK   29  A    between atoms: O_38  and  C_31 
REMARK   30  A    between atoms: O_41  and  C_32 
REMARK   31  A    between atoms: P_42  and  O_37 
REMARK   32  A    between atoms: P_42  and  O_39 
REMARK   33  A    between atoms: P_42  and  O_40 
ROOT
HETATM    1  C   UNK N   1      20.771  16.587   5.074  0.00  0.00     0.180 C 
ENDROOT
BRANCH   1   2
HETATM    2  C   UNK N   1      21.271  18.030   5.133  0.00  0.00     0.213 C 
BRANCH   2   3
HETATM    3  O   UNK N   1      21.695  18.506   3.905  0.00  0.00    -0.319 OA
BRANCH   3   4
HETATM    4  C   UNK N   1      21.646  19.806   3.505  0.00  0.00     0.258 C 
HETATM    5  O   UNK N   1      20.620  20.441   3.685  0.00  0.00    -0.265 OA
BRANCH   4   6
HETATM    6  C   UNK N   1      22.820  20.503   2.886  0.00  0.00     0.111 C 
BRANCH   6   7
HETATM    7  C   UNK N   1      24.132  19.871   3.311  0.00  0.00     0.010 C 
BRANCH   7   8
HETATM    8  C   UNK N   1      25.287  20.504   2.551  0.00  0.00     0.000 C 
BRANCH   8   9
HETATM    9  C   UNK N   1      26.559  20.471   3.383  0.00  0.00     0.000 C 
BRANCH   9  10
HETATM   10  C   UNK N   1      26.212  20.264   4.844  0.00  0.00     0.000 C 
BRANCH  10  11
HETATM   11  C   UNK N   1      27.069  21.174   5.694  0.00  0.00     0.000 C 
BRANCH  11  12
HETATM   12  C   UNK N   1      27.602  20.386   6.873  0.00  0.00     0.000 C 
BRANCH  12  13
HETATM   13  C   UNK N   1      27.971  18.976   6.449  0.00  0.00     0.000 C 
BRANCH  13  14
HETATM   14  C   UNK N   1      28.101  18.096   7.677  0.00  0.00    -0.000 C 
BRANCH  14  15
HETATM   15  C   UNK N   1      29.558  17.781   7.929  0.00  0.00    -0.005 C 
HETATM   16  C   UNK N   1      30.054  18.627   9.082  0.00  0.00     0.005 C 
ENDBRANCH  14  15
ENDBRANCH  13  14
ENDBRANCH  12  13
ENDBRANCH  11  12
ENDBRANCH  10  11
ENDBRANCH   9  10
ENDBRANCH   8   9
ENDBRANCH   7   8
ENDBRANCH   6   7
ENDBRANCH   4   6
ENDBRANCH   3   4
ENDBRANCH   2   3
ENDBRANCH   1   2
BRANCH   1  17
HETATM   17  C   UNK N   1      19.978  16.275   6.337  0.00  0.00     0.215 C 
BRANCH  17  18
HETATM   18  O   UNK N   1      20.369  15.076   6.951  0.00  0.00    -0.294 OA
BRANCH  18  19
HETATM   19  P   UNK N   1      20.318  15.356   8.682  0.00  0.00     0.393 P 
HETATM   20  O   UNK N   1      18.894  15.854   8.303  0.00  0.00    -0.631 OA
BRANCH  19  21
HETATM   21  O   UNK N   1      19.289  14.477   9.772  0.00  0.00    -0.307 OA
HETATM   22  H   UNK N   1      18.625  14.918  10.324  0.00  0.00     0.222 HD
ENDBRANCH  19  21
BRANCH  19  23
HETATM   23  O   UNK N   1      20.383  13.652   8.338  0.00  0.00    -0.295 OA
BRANCH  23  24
HETATM   24  C   UNK N   1      21.147  13.070   9.356  0.00  0.00     0.208 C 
BRANCH  24  25
HETATM   25  C   UNK N   1      22.622  13.269   9.017  0.00  0.00     0.262 C 
BRANCH  25  26
HETATM   26  N   UNK N   1      23.496  12.231   9.566  0.00  0.00    -0.077 N 
HETATM   27  C   UNK N   1      23.754  11.168   8.602  0.00  0.00     0.271 C 
HETATM   28  C   UNK N   1      22.923  11.665  10.775  0.00  0.00     0.271 C 
HETATM   29  C   UNK N   1      24.765  12.847   9.906  0.00  0.00     0.271 C 
ENDBRANCH  25  26
ENDBRANCH  24  25
ENDBRANCH  23  24
ENDBRANCH  19  23
ENDBRANCH  18  19
ENDBRANCH  17  18
ENDBRANCH   1  17
BRANCH   1  30
HETATM   30  O   UNK N   1      20.000  16.427   3.937  0.00  0.00    -0.312 OA
BRANCH  30  31
HETATM   31  C   UNK N   1      20.154  15.418   3.045  0.00  0.00     0.259 C 
HETATM   32  O   UNK N   1      19.409  14.447   3.063  0.00  0.00    -0.265 OA
BRANCH  31  33
HETATM   33  C   UNK N   1      21.321  15.454   2.110  0.00  0.00     0.111 C 
BRANCH  33  34
HETATM   34  C   UNK N   1      21.138  14.552   0.905  0.00  0.00     0.010 C 
BRANCH  34  35
HETATM   35  C   UNK N   1      22.170  13.432   0.931  0.00  0.00     0.000 C 
BRANCH  35  36
HETATM   36  C   UNK N   1      23.538  13.927   0.495  0.00  0.00     0.000 C 
BRANCH  36  37
HETATM   37  C   UNK N   1      24.562  13.675   1.591  0.00  0.00     0.000 C 
BRANCH  37  38
HETATM   38  C   UNK N   1      24.004  12.714   2.626  0.00  0.00     0.000 C 
BRANCH  38  39
HETATM   39  C   UNK N   1      24.367  13.172   4.029  0.00  0.00     0.000 C 
BRANCH  39  40
HETATM   40  C   UNK N   1      24.252  14.678   4.138  0.00  0.00     0.000 C 
BRANCH  40  41
HETATM   41  C   UNK N   1      25.427  15.207   4.932  0.00  0.00    -0.000 C 
BRANCH  41  42
HETATM   42  C   UNK N   1      25.660  16.662   4.591  0.00  0.00    -0.005 C 
HETATM   43  C   UNK N   1      26.341  16.759   3.244  0.00  0.00     0.005 C 
ENDBRANCH  41  42
ENDBRANCH  40  41
ENDBRANCH  39  40
ENDBRANCH  38  39
ENDBRANCH  37  38
ENDBRANCH  36  37
ENDBRANCH  35  36
ENDBRANCH  34  35
ENDBRANCH  33  34
ENDBRANCH  31  33
ENDBRANCH  30  31
ENDBRANCH   1  30
TORSDOF 33
ENDMDL
MODEL 7
REMARK VINA RESULT:      -5.6      1.930      6.739
REMARK WARNING: 32 MAX_TORS EXCEEDED!!!
REMARK  33 active torsions:
REMARK  status: ('A' for Active; 'I' for Inactive)
REMARK    1  A    between atoms: C_8  and  C_6 
REMARK    2  A    between atoms: C_9  and  C_7 
REMARK    3  A    between atoms: C_10  and  C_8 
REMARK    4  A    between atoms: C_11  and  C_9 
REMARK    5  A    between atoms: C_12  and  C_10 
REMARK    6  A    between atoms: C_13  and  C_11 
REMARK    7  A    between atoms: C_14  and  C_12 
REMARK    8  A    between atoms: C_15  and  C_13 
REMARK    9  A    between atoms: C_16  and  C_14 
REMARK   10  A    between atoms: C_17  and  C_15 
REMARK   11  A    between atoms: C_18  and  C_16 
REMARK   12  A    between atoms: C_19  and  C_17 
REMARK   13  A    between atoms: C_20  and  C_18 
REMARK   14  A    between atoms: C_21  and  C_19 
REMARK   15  A    between atoms: C_22  and  C_20 
REMARK   16  A    between atoms: C_23  and  C_21 
REMARK   17  A    between atoms: C_24  and  C_22 
REMARK   18  A    between atoms: C_25  and  C_23 
REMARK   19  A    between atoms: C_31  and  C_24 
REMARK   20  A    between atoms: C_32  and  C_25 
REMARK   21  A    between atoms: C_27  and  C_26 
REMARK   22  A    between atoms: N_33  and  C_26 
REMARK   23  A    between atoms: O_39  and  C_27 
REMARK   24  A    between atoms: C_30  and  C_28 
REMARK   25  A    between atoms: O_38  and  C_28 
REMARK   26  A    between atoms: C_30  and  C_29 
REMARK   27  A    between atoms: O_40  and  C_29 
REMARK   28  A    between atoms: C_30  and  O_41 
REMARK   29  A    between atoms: O_38  and  C_31 
REMARK   30  A    between atoms: O_41  and  C_32 
REMARK   31  A    between atoms: P_42  and  O_37 
REMARK   32  A    between atoms: P_42  and  O_39 
REMARK   33  A    between atoms: P_42  and  O_40 
ROOT
HETATM    1  C   UNK N   1      22.516  18.560   3.998  0.00  0.00     0.180 C 
ENDROOT
BRANCH   1   2
HETATM    2  C   UNK N   1      22.424  18.433   5.517  0.00  0.00     0.213 C 
BRANCH   2   3
HETATM    3  O   UNK N   1      22.629  17.140   5.967  0.00  0.00    -0.319 OA
BRANCH   3   4
HETATM    4  C   UNK N   1      21.681  16.343   6.529  0.00  0.00     0.258 C 
HETATM    5  O   UNK N   1      21.372  16.526   7.695  0.00  0.00    -0.265 OA
BRANCH   4   6
HETATM    6  C   UNK N   1      20.971  15.269   5.760  0.00  0.00     0.111 C 
BRANCH   6   7
HETATM    7  C   UNK N   1      20.494  14.154   6.671  0.00  0.00     0.010 C 
BRANCH   7   8
HETATM    8  C   UNK N   1      21.530  13.041   6.720  0.00  0.00     0.000 C 
BRANCH   8   9
HETATM    9  C   UNK N   1      21.500  12.339   8.069  0.00  0.00     0.000 C 
BRANCH   9  10
HETATM   10  C   UNK N   1      21.349  13.362   9.177  0.00  0.00     0.000 C 
BRANCH  10  11
HETATM   11  C   UNK N   1      22.243  12.979  10.334  0.00  0.00     0.000 C 
BRANCH  11  12
HETATM   12  C   UNK N   1      23.176  11.872   9.888  0.00  0.00     0.000 C 
BRANCH  12  13
HETATM   13  C   UNK N   1      24.618  12.235  10.189  0.00  0.00     0.000 C 
BRANCH  13  14
HETATM   14  C   UNK N   1      24.990  13.498   9.436  0.00  0.00    -0.000 C 
BRANCH  14  15
HETATM   15  C   UNK N   1      25.047  13.211   7.953  0.00  0.00    -0.005 C 
HETATM   16  C   UNK N   1      24.946  14.517   7.193  0.00  0.00     0.005 C 
ENDBRANCH  14  15
ENDBRANCH  13  14
ENDBRANCH  12  13
ENDBRANCH  11  12
ENDBRANCH  10  11
ENDBRANCH   9  10
ENDBRANCH   8   9
ENDBRANCH   7   8
ENDBRANCH   6   7
ENDBRANCH   4   6
ENDBRANCH   3   4
ENDBRANCH   2   3
ENDBRANCH   1   2
BRANCH   1  17
HETATM   17  C   UNK N   1      21.173  18.193   3.377  0.00  0.00     0.215 C 
BRANCH  17  18
HETATM   18  O   UNK N   1      21.232  17.042   2.577  0.00  0.00    -0.294 OA
BRANCH  18  19
HETATM   19  P   UNK N   1      19.935  17.177   1.404  0.00  0.00     0.393 P 
HETATM   20  O   UNK N   1      20.505  18.622   1.318  0.00  0.00    -0.631 OA
BRANCH  19  21
HETATM   21  O   UNK N   1      20.195  17.399  -0.300  0.00  0.00    -0.307 OA
HETATM   22  H   UNK N   1      20.645  18.182  -0.656  0.00  0.00     0.222 HD
ENDBRANCH  19  21
BRANCH  19  23
HETATM   23  O   UNK N   1      21.172  16.095   0.831  0.00  0.00    -0.295 OA
BRANCH  23  24
HETATM   24  C   UNK N   1      21.002  14.893   1.527  0.00  0.00     0.208 C 
BRANCH  24  25
HETATM   25  C   UNK N   1      21.776  13.803   0.790  0.00  0.00     0.262 C 
BRANCH  25  26
HETATM   26  N   UNK N   1      23.005  13.392   1.470  0.00  0.00    -0.077 N 
HETATM   27  C   UNK N   1      23.221  11.954   1.388  0.00  0.00     0.271 C 
HETATM   28  C   UNK N   1      22.983  13.805   2.863  0.00  0.00     0.271 C 
HETATM   29  C   UNK N   1      24.121  14.052   0.816  0.00  0.00     0.271 C 
ENDBRANCH  25  26
ENDBRANCH  24  25
ENDBRANCH  23  24
ENDBRANCH  19  23
ENDBRANCH  18  19
ENDBRANCH  17  18
ENDBRANCH   1  17
BRANCH   1  30
HETATM   30  O   UNK N   1      22.886  19.853   3.678  0.00  0.00    -0.312 OA
BRANCH  30  31
HETATM   31  C   UNK N   1      24.117  20.209   3.237  0.00  0.00     0.259 C 
HETATM   32  O   UNK N   1      24.246  20.941   2.263  0.00  0.00    -0.265 OA
BRANCH  31  33
HETATM   33  C   UNK N   1      25.320  19.604   3.887  0.00  0.00     0.111 C 
BRANCH  33  34
HETATM   34  C   UNK N   1      26.604  20.331   3.542  0.00  0.00     0.010 C 
BRANCH  34  35
HETATM   35  C   UNK N   1      27.774  19.709   4.295  0.00  0.00     0.000 C 
BRANCH  35  36
HETATM   36  C   UNK N   1      27.651  19.928   5.793  0.00  0.00     0.000 C 
BRANCH  36  37
HETATM   37  C   UNK N   1      28.187  18.721   6.546  0.00  0.00     0.000 C 
BRANCH  37  38
HETATM   38  C   UNK N   1      27.310  17.508   6.295  0.00  0.00     0.000 C 
BRANCH  38  39
HETATM   39  C   UNK N   1      28.159  16.256   6.151  0.00  0.00     0.000 C 
BRANCH  39  40
HETATM   40  C   UNK N   1      28.509  16.021   4.695  0.00  0.00     0.000 C 
BRANCH  40  41
HETATM   41  C   UNK N   1      27.874  14.725   4.239  0.00  0.00    -0.000 C 
BRANCH  41  42
HETATM   42  C   UNK N   1      26.451  14.984   3.792  0.00  0.00    -0.005 C 
HETATM   43  C   UNK N   1      26.433  16.148   2.825  0.00  0.00     0.005 C 
ENDBRANCH  41  42
ENDBRANCH  40  41
ENDBRANCH  39  40
ENDBRANCH  38  39
ENDBRANCH  37  38
ENDBRANCH  36  37
ENDBRANCH  35  36
ENDBRANCH  34  35
ENDBRANCH  33  34
ENDBRANCH  31  33
ENDBRANCH  30  31
ENDBRANCH   1  30
TORSDOF 33
ENDMDL
MODEL 8
REMARK VINA RESULT:      -5.6      2.344      4.454
REMARK WARNING: 32 MAX_TORS EXCEEDED!!!
REMARK  33 active torsions:
REMARK  status: ('A' for Active; 'I' for Inactive)
REMARK    1  A    between atoms: C_8  and  C_6 
REMARK    2  A    between atoms: C_9  and  C_7 
REMARK    3  A    between atoms: C_10  and  C_8 
REMARK    4  A    between atoms: C_11  and  C_9 
REMARK    5  A    between atoms: C_12  and  C_10 
REMARK    6  A    between atoms: C_13  and  C_11 
REMARK    7  A    between atoms: C_14  and  C_12 
REMARK    8  A    between atoms: C_15  and  C_13 
REMARK    9  A    between atoms: C_16  and  C_14 
REMARK   10  A    between atoms: C_17  and  C_15 
REMARK   11  A    between atoms: C_18  and  C_16 
REMARK   12  A    between atoms: C_19  and  C_17 
REMARK   13  A    between atoms: C_20  and  C_18 
REMARK   14  A    between atoms: C_21  and  C_19 
REMARK   15  A    between atoms: C_22  and  C_20 
REMARK   16  A    between atoms: C_23  and  C_21 
REMARK   17  A    between atoms: C_24  and  C_22 
REMARK   18  A    between atoms: C_25  and  C_23 
REMARK   19  A    between atoms: C_31  and  C_24 
REMARK   20  A    between atoms: C_32  and  C_25 
REMARK   21  A    between atoms: C_27  and  C_26 
REMARK   22  A    between atoms: N_33  and  C_26 
REMARK   23  A    between atoms: O_39  and  C_27 
REMARK   24  A    between atoms: C_30  and  C_28 
REMARK   25  A    between atoms: O_38  and  C_28 
REMARK   26  A    between atoms: C_30  and  C_29 
REMARK   27  A    between atoms: O_40  and  C_29 
REMARK   28  A    between atoms: C_30  and  O_41 
REMARK   29  A    between atoms: O_38  and  C_31 
REMARK   30  A    between atoms: O_41  and  C_32 
REMARK   31  A    between atoms: P_42  and  O_37 
REMARK   32  A    between atoms: P_42  and  O_39 
REMARK   33  A    between atoms: P_42  and  O_40 
ROOT
HETATM    1  C   UNK N   1      21.543  16.943   4.962  0.00  0.00     0.180 C 
ENDROOT
BRANCH   1   2
HETATM    2  C   UNK N   1      22.528  16.440   3.909  0.00  0.00     0.213 C 
BRANCH   2   3
HETATM    3  O   UNK N   1      21.912  15.768   2.867  0.00  0.00    -0.319 OA
BRANCH   3   4
HETATM    4  C   UNK N   1      22.540  14.961   1.971  0.00  0.00     0.258 C 
HETATM    5  O   UNK N   1      22.105  14.891   0.833  0.00  0.00    -0.265 OA
BRANCH   4   6
HETATM    6  C   UNK N   1      23.773  14.180   2.315  0.00  0.00     0.111 C 
BRANCH   6   7
HETATM    7  C   UNK N   1      24.980  14.670   1.537  0.00  0.00     0.010 C 
BRANCH   7   8
HETATM    8  C   UNK N   1      25.765  15.671   2.369  0.00  0.00     0.000 C 
BRANCH   8   9
HETATM    9  C   UNK N   1      27.119  15.100   2.761  0.00  0.00     0.000 C 
BRANCH   9  10
HETATM   10  C   UNK N   1      27.510  15.604   4.135  0.00  0.00     0.000 C 
BRANCH  10  11
HETATM   11  C   UNK N   1      28.030  14.450   4.961  0.00  0.00     0.000 C 
BRANCH  11  12
HETATM   12  C   UNK N   1      29.502  14.671   5.242  0.00  0.00     0.000 C 
BRANCH  12  13
HETATM   13  C   UNK N   1      29.707  15.948   6.038  0.00  0.00     0.000 C 
BRANCH  13  14
HETATM   14  C   UNK N   1      31.074  16.526   5.724  0.00  0.00    -0.000 C 
BRANCH  14  15
HETATM   15  C   UNK N   1      30.968  17.492   4.567  0.00  0.00    -0.005 C 
HETATM   16  C   UNK N   1      31.819  16.987   3.421  0.00  0.00     0.005 C 
ENDBRANCH  14  15
ENDBRANCH  13  14
ENDBRANCH  12  13
ENDBRANCH  11  12
ENDBRANCH  10  11
ENDBRANCH   9  10
ENDBRANCH   8   9
ENDBRANCH   7   8
ENDBRANCH   6   7
ENDBRANCH   4   6
ENDBRANCH   3   4
ENDBRANCH   2   3
ENDBRANCH   1   2
BRANCH   1  17
HETATM   17  C   UNK N   1      21.109  18.361   4.613  0.00  0.00     0.215 C 
BRANCH  17  18
HETATM   18  O   UNK N   1      22.164  19.163   4.155  0.00  0.00    -0.294 OA
BRANCH  18  19
HETATM   19  P   UNK N   1      21.565  20.035   2.756  0.00  0.00     0.393 P 
HETATM   20  O   UNK N   1      20.473  20.434   3.789  0.00  0.00    -0.631 OA
BRANCH  19  21
HETATM   21  O   UNK N   1      21.527  21.769   2.642  0.00  0.00    -0.307 OA
HETATM   22  H   UNK N   1      21.414  22.229   1.796  0.00  0.00     0.222 HD
ENDBRANCH  19  21
BRANCH  19  23
HETATM   23  O   UNK N   1      23.071  20.713   3.302  0.00  0.00    -0.295 OA
BRANCH  23  24
HETATM   24  C   UNK N   1      24.042  19.721   3.122  0.00  0.00     0.208 C 
BRANCH  24  25
HETATM   25  C   UNK N   1      25.413  20.347   3.368  0.00  0.00     0.262 C 
BRANCH  25  26
HETATM   26  N   UNK N   1      26.145  19.740   4.481  0.00  0.00    -0.077 N 
HETATM   27  C   UNK N   1      25.491  18.535   4.972  0.00  0.00     0.271 C 
HETATM   28  C   UNK N   1      26.302  20.690   5.570  0.00  0.00     0.271 C 
HETATM   29  C   UNK N   1      27.464  19.372   4.001  0.00  0.00     0.271 C 
ENDBRANCH  25  26
ENDBRANCH  24  25
ENDBRANCH  23  24
ENDBRANCH  19  23
ENDBRANCH  18  19
ENDBRANCH  17  18
ENDBRANCH   1  17
BRANCH   1  30
HETATM   30  O   UNK N   1      20.463  16.080   5.012  0.00  0.00    -0.312 OA
BRANCH  30  31
HETATM   31  C   UNK N   1      19.906  15.618   6.158  0.00  0.00     0.259 C 
HETATM   32  O   UNK N   1      18.769  15.942   6.476  0.00  0.00    -0.265 OA
BRANCH  31  33
HETATM   33  C   UNK N   1      20.743  14.797   7.087  0.00  0.00     0.111 C 
BRANCH  33  34
HETATM   34  C   UNK N   1      20.415  15.043   8.547  0.00  0.00     0.010 C 
BRANCH  34  35
HETATM   35  C   UNK N   1      21.492  14.431   9.433  0.00  0.00     0.000 C 
BRANCH  35  36
HETATM   36  C   UNK N   1      21.162  12.995   9.800  0.00  0.00     0.000 C 
BRANCH  36  37
HETATM   37  C   UNK N   1      22.177  12.459  10.797  0.00  0.00     0.000 C 
BRANCH  37  38
HETATM   38  C   UNK N   1      23.578  12.529  10.215  0.00  0.00     0.000 C 
BRANCH  38  39
HETATM   39  C   UNK N   1      23.728  11.547   9.066  0.00  0.00     0.000 C 
BRANCH  39  40
HETATM   40  C   UNK N   1      24.243  12.257   7.830  0.00  0.00     0.000 C 
BRANCH  40  41
HETATM   41  C   UNK N   1      25.010  13.491   8.254  0.00  0.00    -0.000 C 
BRANCH  41  42
HETATM   42  C   UNK N   1      24.926  14.541   7.167  0.00  0.00    -0.005 C 
HETATM   43  C   UNK N   1      24.273  13.943   5.940  0.00  0.00     0.005 C 
ENDBRANCH  41  42
ENDBRANCH  40  41
ENDBRANCH  39  40
ENDBRANCH  38  39
ENDBRANCH  37  38
ENDBRANCH  36  37
ENDBRANCH  35  36
ENDBRANCH  34  35
ENDBRANCH  33  34
ENDBRANCH  31  33
ENDBRANCH  30  31
ENDBRANCH   1  30
TORSDOF 33
ENDMDL
MODEL 9
REMARK VINA RESULT:      -5.5      9.321     12.963
REMARK WARNING: 32 MAX_TORS EXCEEDED!!!
REMARK  33 active torsions:
REMARK  status: ('A' for Active; 'I' for Inactive)
REMARK    1  A    between atoms: C_8  and  C_6 
REMARK    2  A    between atoms: C_9  and  C_7 
REMARK    3  A    between atoms: C_10  and  C_8 
REMARK    4  A    between atoms: C_11  and  C_9 
REMARK    5  A    between atoms: C_12  and  C_10 
REMARK    6  A    between atoms: C_13  and  C_11 
REMARK    7  A    between atoms: C_14  and  C_12 
REMARK    8  A    between atoms: C_15  and  C_13 
REMARK    9  A    between atoms: C_16  and  C_14 
REMARK   10  A    between atoms: C_17  and  C_15 
REMARK   11  A    between atoms: C_18  and  C_16 
REMARK   12  A    between atoms: C_19  and  C_17 
REMARK   13  A    between atoms: C_20  and  C_18 
REMARK   14  A    between atoms: C_21  and  C_19 
REMARK   15  A    between atoms: C_22  and  C_20 
REMARK   16  A    between atoms: C_23  and  C_21 
REMARK   17  A    between atoms: C_24  and  C_22 
REMARK   18  A    between atoms: C_25  and  C_23 
REMARK   19  A    between atoms: C_31  and  C_24 
REMARK   20  A    between atoms: C_32  and  C_25 
REMARK   21  A    between atoms: C_27  and  C_26 
REMARK   22  A    between atoms: N_33  and  C_26 
REMARK   23  A    between atoms: O_39  and  C_27 
REMARK   24  A    between atoms: C_30  and  C_28 
REMARK   25  A    between atoms: O_38  and  C_28 
REMARK   26  A    between atoms: C_30  and  C_29 
REMARK   27  A    between atoms: O_40  and  C_29 
REMARK   28  A    between atoms: C_30  and  O_41 
REMARK   29  A    between atoms: O_38  and  C_31 
REMARK   30  A    between atoms: O_41  and  C_32 
REMARK   31  A    between atoms: P_42  and  O_37 
REMARK   32  A    between atoms: P_42  and  O_39 
REMARK   33  A    between atoms: P_42  and  O_40 
ROOT
HETATM    1  C   UNK N   1      34.958  15.345  11.027  0.00  0.00     0.180 C 
ENDROOT
BRANCH   1   2
HETATM    2  C   UNK N   1      35.517  16.499  10.197  0.00  0.00     0.213 C 
BRANCH   2   3
HETATM    3  O   UNK N   1      34.537  17.371   9.754  0.00  0.00    -0.319 OA
BRANCH   3   4
HETATM    4  C   UNK N   1      34.598  18.109   8.613  0.00  0.00     0.258 C 
HETATM    5  O   UNK N   1      35.342  19.076   8.574  0.00  0.00    -0.265 OA
BRANCH   4   6
HETATM    6  C   UNK N   1      33.814  17.759   7.384  0.00  0.00     0.111 C 
BRANCH   6   7
HETATM    7  C   UNK N   1      32.596  16.920   7.719  0.00  0.00     0.010 C 
BRANCH   7   8
HETATM    8  C   UNK N   1      31.584  17.753   8.490  0.00  0.00     0.000 C 
BRANCH   8   9
HETATM    9  C   UNK N   1      30.200  17.128   8.407  0.00  0.00     0.000 C 
BRANCH   9  10
HETATM   10  C   UNK N   1      29.336  17.921   7.446  0.00  0.00     0.000 C 
BRANCH  10  11
HETATM   11  C   UNK N   1      28.331  18.732   8.232  0.00  0.00     0.000 C 
BRANCH  11  12
HETATM   12  C   UNK N   1      27.705  19.761   7.313  0.00  0.00     0.000 C 
BRANCH  12  13
HETATM   13  C   UNK N   1      27.694  19.260   5.880  0.00  0.00     0.000 C 
BRANCH  13  14
HETATM   14  C   UNK N   1      27.373  20.410   4.945  0.00  0.00    -0.000 C 
BRANCH  14  15
HETATM   15  C   UNK N   1      26.742  19.878   3.678  0.00  0.00    -0.005 C 
HETATM   16  C   UNK N   1      26.600  18.375   3.790  0.00  0.00     0.005 C 
ENDBRANCH  14  15
ENDBRANCH  13  14
ENDBRANCH  12  13
ENDBRANCH  11  12
ENDBRANCH  10  11
ENDBRANCH   9  10
ENDBRANCH   8   9
ENDBRANCH   7   8
ENDBRANCH   6   7
ENDBRANCH   4   6
ENDBRANCH   3   4
ENDBRANCH   2   3
ENDBRANCH   1   2
BRANCH   1  17
HETATM   17  C   UNK N   1      33.915  14.593  10.211  0.00  0.00     0.215 C 
BRANCH  17  18
HETATM   18  O   UNK N   1      34.411  14.116   8.989  0.00  0.00    -0.294 OA
BRANCH  18  19
HETATM   19  P   UNK N   1      33.654  12.558   8.710  0.00  0.00     0.393 P 
HETATM   20  O   UNK N   1      32.381  13.450   8.780  0.00  0.00    -0.631 OA
BRANCH  19  21
HETATM   21  O   UNK N   1      32.802  12.147   7.252  0.00  0.00    -0.307 OA
HETATM   22  H   UNK N   1      32.084  12.696   6.902  0.00  0.00     0.222 HD
ENDBRANCH  19  21
BRANCH  19  23
HETATM   23  O   UNK N   1      34.563  13.057   7.313  0.00  0.00    -0.295 OA
BRANCH  23  24
HETATM   24  C   UNK N   1      33.631  13.527   6.380  0.00  0.00     0.208 C 
BRANCH  24  25
HETATM   25  C   UNK N   1      34.362  14.436   5.394  0.00  0.00     0.262 C 
BRANCH  25  26
HETATM   26  N   UNK N   1      33.573  14.770   4.208  0.00  0.00    -0.077 N 
HETATM   27  C   UNK N   1      33.348  16.205   4.088  0.00  0.00     0.271 C 
HETATM   28  C   UNK N   1      32.296  14.076   4.228  0.00  0.00     0.271 C 
HETATM   29  C   UNK N   1      34.313  14.331   3.039  0.00  0.00     0.271 C 
ENDBRANCH  25  26
ENDBRANCH  24  25
ENDBRANCH  23  24
ENDBRANCH  19  23
ENDBRANCH  18  19
ENDBRANCH  17  18
ENDBRANCH   1  17
BRANCH   1  30
HETATM   30  O   UNK N   1      36.001  14.519  11.403  0.00  0.00    -0.312 OA
BRANCH  30  31
HETATM   31  C   UNK N   1      36.311  14.213  12.687  0.00  0.00     0.259 C 
HETATM   32  O   UNK N   1      36.396  15.091  13.537  0.00  0.00    -0.265 OA
BRANCH  31  33
HETATM   33  C   UNK N   1      36.659  12.799  13.029  0.00  0.00     0.111 C 
BRANCH  33  34
HETATM   34  C   UNK N   1      35.601  11.808  12.583  0.00  0.00     0.010 C 
BRANCH  34  35
HETATM   35  C   UNK N   1      34.387  11.894  13.499  0.00  0.00     0.000 C 
BRANCH  35  36
HETATM   36  C   UNK N   1      33.950  10.519  13.972  0.00  0.00     0.000 C 
BRANCH  36  37
HETATM   37  C   UNK N   1      35.138   9.572  14.006  0.00  0.00     0.000 C 
BRANCH  37  38
HETATM   38  C   UNK N   1      35.639   9.400  15.429  0.00  0.00     0.000 C 
BRANCH  38  39
HETATM   39  C   UNK N   1      34.826  10.253  16.388  0.00  0.00     0.000 C 
BRANCH  39  40
HETATM   40  C   UNK N   1      35.714  11.275  17.067  0.00  0.00     0.000 C 
BRANCH  40  41
HETATM   41  C   UNK N   1      35.010  12.615  17.071  0.00  0.00    -0.000 C 
BRANCH  41  42
HETATM   42  C   UNK N   1      35.258  13.318  18.388  0.00  0.00    -0.005 C 
HETATM   43  C   UNK N   1      35.300  12.295  19.502  0.00  0.00     0.005 C 
ENDBRANCH  41  42
ENDBRANCH  40  41
ENDBRANCH  39  40
ENDBRANCH  38  39
ENDBRANCH  37  38
ENDBRANCH  36  37
ENDBRANCH  35  36
ENDBRANCH  34  35
ENDBRANCH  33  34
ENDBRANCH  31  33
ENDBRANCH  30  31
ENDBRANCH   1  30
TORSDOF 33
ENDMDL
