MODEL 1
REMARK VINA RESULT:      -6.1      0.000      0.000
REMARK  6 active torsions:
REMARK  status: ('A' for Active; 'I' for Inactive)
REMARK    1  A    between atoms: C_4  and  C_1 
REMARK    2  A    between atoms: O_17  and  C_1 
REMARK    3  A    between atoms: C_6  and  O_18 
REMARK    4  A    between atoms: C_7  and  O_19 
REMARK    5  A    between atoms: O_20  and  C_9 
REMARK    6  A    between atoms: C_10  and  N_16 
ROOT
HETATM    1  C   UNK N   1      29.378  17.343   9.992  0.00  0.00     0.184 A 
HETATM    2  C   UNK N   1      31.356  17.203   5.827  0.00  0.00     0.251 A 
HETATM    3  C   UNK N   1      29.552  17.255   7.280  0.00  0.00     0.125 A 
HETATM    4  C   UNK N   1      30.656  17.327   8.032  0.00  0.00     0.139 A 
HETATM    5  C   UNK N   1      28.300  17.218   7.875  0.00  0.00     0.172 A 
HETATM    6  N   UNK N   1      30.604  17.361   9.388  0.00  0.00    -0.337 N 
ATOM      7  HN  UNK N   1      31.460  17.397   9.942  1.00  0.00     0.168 HD
HETATM    8  N   UNK N   1      28.234  17.271   9.238  0.00  0.00    -0.331 N 
ATOM      9  HN  UNK N   1      27.325  17.256   9.700  1.00  0.00     0.168 HD
HETATM   10  N   UNK N   1      29.898  17.182   5.927  0.00  0.00    -0.367 N 
HETATM   11  N   UNK N   1      31.802  17.316   7.219  0.00  0.00    -0.320 N 
HETATM   12  H   UNK N   1      29.269  17.126   5.172  0.00  0.00     0.161 HD
ENDROOT
BRANCH  11  13
HETATM   13  C   UNK N   1      33.062  16.747   7.668  0.00  0.00     0.258 C 
HETATM   14  C   UNK N   1      33.832  17.678   8.590  0.00  0.00     0.198 C 
HETATM   15  C   UNK N   1      34.872  16.706   9.057  0.00  0.00     0.182 C 
HETATM   16  C   UNK N   1      34.031  15.429   9.232  0.00  0.00     0.179 C 
HETATM   17  O   UNK N   1      32.873  15.565   8.420  0.00  0.00    -0.354 OA
BRANCH  14  18
HETATM   18  O   UNK N   1      34.391  18.771   7.923  0.00  0.00    -0.388 OA
HETATM   19  H   UNK N   1      34.221  19.698   8.150  0.00  0.00     0.210 HD
ENDBRANCH  14  18
BRANCH  15  20
HETATM   20  O   UNK N   1      35.541  17.133  10.209  0.00  0.00    -0.390 OA
HETATM   21  H   UNK N   1      35.167  17.657  10.933  0.00  0.00     0.210 HD
ENDBRANCH  15  20
BRANCH  16  22
HETATM   22  C   UNK N   1      33.602  15.169  10.673  0.00  0.00     0.198 C 
BRANCH  22  23
HETATM   23  O   UNK N   1      32.207  15.102  10.746  0.00  0.00    -0.398 OA
HETATM   24  H   UNK N   1      31.731  14.311  10.449  0.00  0.00     0.209 HD
ENDBRANCH  22  23
ENDBRANCH  16  22
ENDBRANCH  11  13
BRANCH   5  25
HETATM   25  O   UNK N   1      27.181  17.120   7.138  0.00  0.00    -0.344 OA
HETATM   26  H   UNK N   1      27.234  16.912   6.227  0.00  0.00     0.219 HD
ENDBRANCH   5  25
TORSDOF 6
ENDMDL
MODEL 2
REMARK VINA RESULT:      -6.1      1.820      2.298
REMARK  6 active torsions:
REMARK  status: ('A' for Active; 'I' for Inactive)
REMARK    1  A    between atoms: C_4  and  C_1 
REMARK    2  A    between atoms: O_17  and  C_1 
REMARK    3  A    between atoms: C_6  and  O_18 
REMARK    4  A    between atoms: C_7  and  O_19 
REMARK    5  A    between atoms: O_20  and  C_9 
REMARK    6  A    between atoms: C_10  and  N_16 
ROOT
HETATM    1  C   UNK N   1      29.196  16.860   6.756  0.00  0.00     0.184 A 
HETATM    2  C   UNK N   1      33.152  17.637   4.513  0.00  0.00     0.251 A 
HETATM    3  C   UNK N   1      30.855  17.368   4.663  0.00  0.00     0.125 A 
HETATM    4  C   UNK N   1      31.337  17.275   5.907  0.00  0.00     0.139 A 
HETATM    5  C   UNK N   1      29.500  17.201   4.421  0.00  0.00     0.172 A 
HETATM    6  N   UNK N   1      30.538  17.011   6.972  0.00  0.00    -0.337 N 
ATOM      7  HN  UNK N   1      30.929  16.926   7.910  1.00  0.00     0.168 HD
HETATM    8  N   UNK N   1      28.683  16.954   5.488  0.00  0.00    -0.331 N 
ATOM      9  HN  UNK N   1      27.680  16.837   5.339  1.00  0.00     0.168 HD
HETATM   10  N   UNK N   1      31.899  17.594   3.760  0.00  0.00    -0.367 N 
HETATM   11  N   UNK N   1      32.732  17.444   5.904  0.00  0.00    -0.320 N 
HETATM   12  H   UNK N   1      31.808  17.703   2.786  0.00  0.00     0.161 HD
ENDROOT
BRANCH  11  13
HETATM   13  C   UNK N   1      33.590  16.792   6.879  0.00  0.00     0.258 C 
HETATM   14  C   UNK N   1      33.922  17.687   8.061  0.00  0.00     0.198 C 
HETATM   15  C   UNK N   1      34.544  16.651   8.947  0.00  0.00     0.182 C 
HETATM   16  C   UNK N   1      33.616  15.448   8.700  0.00  0.00     0.179 C 
HETATM   17  O   UNK N   1      32.979  15.651   7.445  0.00  0.00    -0.354 OA
BRANCH  14  18
HETATM   18  O   UNK N   1      34.814  18.713   7.740  0.00  0.00    -0.388 OA
HETATM   19  H   UNK N   1      34.942  19.069   6.847  0.00  0.00     0.210 HD
ENDBRANCH  14  18
BRANCH  15  20
HETATM   20  O   UNK N   1      34.640  17.057  10.282  0.00  0.00    -0.390 OA
HETATM   21  H   UNK N   1      35.361  17.570  10.678  0.00  0.00     0.210 HD
ENDBRANCH  15  20
BRANCH  16  22
HETATM   22  C   UNK N   1      32.551  15.265   9.776  0.00  0.00     0.198 C 
BRANCH  22  23
HETATM   23  O   UNK N   1      33.157  14.908  10.985  0.00  0.00    -0.398 OA
HETATM   24  H   UNK N   1      32.700  15.045  11.830  0.00  0.00     0.209 HD
ENDBRANCH  22  23
ENDBRANCH  16  22
ENDBRANCH  11  13
BRANCH   5  25
HETATM   25  O   UNK N   1      29.001  17.265   3.176  0.00  0.00    -0.344 OA
HETATM   26  H   UNK N   1      29.410  16.792   2.479  0.00  0.00     0.219 HD
ENDBRANCH   5  25
TORSDOF 6
ENDMDL
MODEL 3
REMARK VINA RESULT:      -5.8      2.250      3.520
REMARK  6 active torsions:
REMARK  status: ('A' for Active; 'I' for Inactive)
REMARK    1  A    between atoms: C_4  and  C_1 
REMARK    2  A    between atoms: O_17  and  C_1 
REMARK    3  A    between atoms: C_6  and  O_18 
REMARK    4  A    between atoms: C_7  and  O_19 
REMARK    5  A    between atoms: O_20  and  C_9 
REMARK    6  A    between atoms: C_10  and  N_16 
ROOT
HETATM    1  C   UNK N   1      30.763  17.890   8.541  0.00  0.00     0.184 A 
HETATM    2  C   UNK N   1      34.653  15.699   7.378  0.00  0.00     0.251 A 
HETATM    3  C   UNK N   1      32.506  16.484   6.998  0.00  0.00     0.125 A 
HETATM    4  C   UNK N   1      32.857  16.897   8.221  0.00  0.00     0.139 A 
HETATM    5  C   UNK N   1      31.242  16.763   6.501  0.00  0.00     0.172 A 
HETATM    6  N   UNK N   1      32.007  17.590   9.020  0.00  0.00    -0.337 N 
ATOM      7  HN  UNK N   1      32.290  17.879   9.957  1.00  0.00     0.168 HD
HETATM    8  N   UNK N   1      30.384  17.476   7.289  0.00  0.00    -0.331 N 
ATOM      9  HN  UNK N   1      29.452  17.704   6.942  1.00  0.00     0.168 HD
HETATM   10  N   UNK N   1      33.549  15.753   6.420  0.00  0.00    -0.367 N 
HETATM   11  N   UNK N   1      34.162  16.472   8.523  0.00  0.00    -0.320 N 
HETATM   12  H   UNK N   1      33.542  15.345   5.524  0.00  0.00     0.161 HD
ENDROOT
BRANCH  11  13
HETATM   13  C   UNK N   1      34.581  16.174   9.883  0.00  0.00     0.258 C 
HETATM   14  C   UNK N   1      33.907  14.935  10.447  0.00  0.00     0.198 C 
HETATM   15  C   UNK N   1      34.744  14.777  11.679  0.00  0.00     0.182 C 
HETATM   16  C   UNK N   1      36.143  15.122  11.137  0.00  0.00     0.179 C 
HETATM   17  O   UNK N   1      35.966  15.905   9.965  0.00  0.00    -0.354 OA
BRANCH  14  18
HETATM   18  O   UNK N   1      32.556  15.133  10.747  0.00  0.00    -0.388 OA
HETATM   19  H   UNK N   1      31.971  14.454  11.117  0.00  0.00     0.210 HD
ENDBRANCH  14  18
BRANCH  15  20
HETATM   20  O   UNK N   1      34.632  13.509  12.259  0.00  0.00    -0.390 OA
HETATM   21  H   UNK N   1      33.832  13.118  12.641  0.00  0.00     0.210 HD
ENDBRANCH  15  20
BRANCH  16  22
HETATM   22  C   UNK N   1      36.987  13.897  10.796  0.00  0.00     0.198 C 
BRANCH  22  23
HETATM   23  O   UNK N   1      37.583  13.396  11.958  0.00  0.00    -0.398 OA
HETATM   24  H   UNK N   1      37.041  13.078  12.697  0.00  0.00     0.209 HD
ENDBRANCH  22  23
ENDBRANCH  16  22
ENDBRANCH  11  13
BRANCH   5  25
HETATM   25  O   UNK N   1      30.861  16.335   5.286  0.00  0.00    -0.344 OA
HETATM   26  H   UNK N   1      30.072  15.841   5.186  0.00  0.00     0.219 HD
ENDBRANCH   5  25
TORSDOF 6
ENDMDL
MODEL 4
REMARK VINA RESULT:      -5.7      3.805      5.628
REMARK  6 active torsions:
REMARK  status: ('A' for Active; 'I' for Inactive)
REMARK    1  A    between atoms: C_4  and  C_1 
REMARK    2  A    between atoms: O_17  and  C_1 
REMARK    3  A    between atoms: C_6  and  O_18 
REMARK    4  A    between atoms: C_7  and  O_19 
REMARK    5  A    between atoms: O_20  and  C_9 
REMARK    6  A    between atoms: C_10  and  N_16 
ROOT
HETATM    1  C   UNK N   1      33.305  14.741   7.419  0.00  0.00     0.184 A 
HETATM    2  C   UNK N   1      35.324  16.570  11.142  0.00  0.00     0.251 A 
HETATM    3  C   UNK N   1      34.542  16.608   8.961  0.00  0.00     0.125 A 
HETATM    4  C   UNK N   1      34.233  15.406   9.462  0.00  0.00     0.139 A 
HETATM    5  C   UNK N   1      34.240  16.917   7.644  0.00  0.00     0.172 A 
HETATM    6  N   UNK N   1      33.627  14.448   8.715  0.00  0.00    -0.337 N 
ATOM      7  HN  UNK N   1      33.418  13.532   9.112  1.00  0.00     0.168 HD
HETATM    8  N   UNK N   1      33.612  15.968   6.888  0.00  0.00    -0.331 N 
ATOM      9  HN  UNK N   1      33.370  16.174   5.919  1.00  0.00     0.168 HD
HETATM   10  N   UNK N   1      35.202  17.374   9.927  0.00  0.00    -0.367 N 
HETATM   11  N   UNK N   1      34.664  15.308  10.796  0.00  0.00    -0.320 N 
HETATM   12  H   UNK N   1      35.530  18.295   9.810  0.00  0.00     0.161 HD
ENDROOT
BRANCH  11  13
HETATM   13  C   UNK N   1      35.074  14.043  11.383  0.00  0.00     0.258 C 
HETATM   14  C   UNK N   1      36.577  13.831  11.329  0.00  0.00     0.198 C 
HETATM   15  C   UNK N   1      36.658  12.636  12.229  0.00  0.00     0.182 C 
HETATM   16  C   UNK N   1      35.635  13.009  13.316  0.00  0.00     0.179 C 
HETATM   17  O   UNK N   1      34.743  13.963  12.754  0.00  0.00    -0.354 OA
BRANCH  14  18
HETATM   18  O   UNK N   1      37.048  13.558  10.042  0.00  0.00    -0.388 OA
HETATM   19  H   UNK N   1      37.882  13.104   9.848  0.00  0.00     0.210 HD
ENDBRANCH  14  18
BRANCH  15  20
HETATM   20  O   UNK N   1      37.952  12.389  12.697  0.00  0.00    -0.390 OA
HETATM   21  H   UNK N   1      38.700  13.006  12.677  0.00  0.00     0.210 HD
ENDBRANCH  15  20
BRANCH  16  22
HETATM   22  C   UNK N   1      36.265  13.597  14.575  0.00  0.00     0.198 C 
BRANCH  22  23
HETATM   23  O   UNK N   1      36.929  14.787  14.260  0.00  0.00    -0.398 OA
HETATM   24  H   UNK N   1      37.891  14.861  14.361  0.00  0.00     0.209 HD
ENDBRANCH  22  23
ENDBRANCH  16  22
ENDBRANCH  11  13
BRANCH   5  25
HETATM   25  O   UNK N   1      34.565  18.109   7.116  0.00  0.00    -0.344 OA
HETATM   26  H   UNK N   1      34.611  18.216   6.187  0.00  0.00     0.219 HD
ENDBRANCH   5  25
TORSDOF 6
ENDMDL
MODEL 5
REMARK VINA RESULT:      -5.6      2.514      4.308
REMARK  6 active torsions:
REMARK  status: ('A' for Active; 'I' for Inactive)
REMARK    1  A    between atoms: C_4  and  C_1 
REMARK    2  A    between atoms: O_17  and  C_1 
REMARK    3  A    between atoms: C_6  and  O_18 
REMARK    4  A    between atoms: C_7  and  O_19 
REMARK    5  A    between atoms: O_20  and  C_9 
REMARK    6  A    between atoms: C_10  and  N_16 
ROOT
HETATM    1  C   UNK N   1      28.007  16.494   6.273  0.00  0.00     0.184 A 
HETATM    2  C   UNK N   1      31.807  17.765   8.560  0.00  0.00     0.251 A 
HETATM    3  C   UNK N   1      29.518  17.538   8.277  0.00  0.00     0.125 A 
HETATM    4  C   UNK N   1      30.096  16.978   7.210  0.00  0.00     0.139 A 
HETATM    5  C   UNK N   1      28.137  17.600   8.375  0.00  0.00     0.172 A 
HETATM    6  N   UNK N   1      29.371  16.459   6.186  0.00  0.00    -0.337 N 
ATOM      7  HN  UNK N   1      29.833  16.053   5.373  1.00  0.00     0.168 HD
HETATM    8  N   UNK N   1      27.396  17.063   7.361  0.00  0.00    -0.331 N 
ATOM      9  HN  UNK N   1      26.377  17.086   7.413  1.00  0.00     0.168 HD
HETATM   10  N   UNK N   1      30.495  18.035   9.146  0.00  0.00    -0.367 N 
HETATM   11  N   UNK N   1      31.495  17.061   7.312  0.00  0.00    -0.320 N 
HETATM   12  H   UNK N   1      30.330  18.488  10.005  0.00  0.00     0.161 HD
ENDROOT
BRANCH  11  13
HETATM   13  C   UNK N   1      32.350  17.165   6.141  0.00  0.00     0.258 C 
HETATM   14  C   UNK N   1      32.897  15.819   5.693  0.00  0.00     0.198 C 
HETATM   15  C   UNK N   1      33.463  16.247   4.373  0.00  0.00     0.182 C 
HETATM   16  C   UNK N   1      32.373  17.215   3.879  0.00  0.00     0.179 C 
HETATM   17  O   UNK N   1      31.655  17.668   5.019  0.00  0.00    -0.354 OA
BRANCH  14  18
HETATM   18  O   UNK N   1      33.878  15.312   6.550  0.00  0.00    -0.388 OA
HETATM   19  H   UNK N   1      34.690  15.783   6.793  0.00  0.00     0.210 HD
ENDBRANCH  14  18
BRANCH  15  20
HETATM   20  O   UNK N   1      33.729  15.173   3.518  0.00  0.00    -0.390 OA
HETATM   21  H   UNK N   1      34.194  15.214   2.668  0.00  0.00     0.210 HD
ENDBRANCH  15  20
BRANCH  16  22
HETATM   22  C   UNK N   1      31.395  16.584   2.892  0.00  0.00     0.198 C 
BRANCH  22  23
HETATM   23  O   UNK N   1      30.092  17.000   3.186  0.00  0.00    -0.398 OA
HETATM   24  H   UNK N   1      29.899  17.932   3.375  0.00  0.00     0.209 HD
ENDBRANCH  22  23
ENDBRANCH  16  22
ENDBRANCH  11  13
BRANCH   5  25
HETATM   25  O   UNK N   1      27.538  18.181   9.428  0.00  0.00    -0.344 OA
HETATM   26  H   UNK N   1      26.672  17.926   9.678  0.00  0.00     0.219 HD
ENDBRANCH   5  25
TORSDOF 6
ENDMDL
MODEL 6
REMARK VINA RESULT:      -5.6     12.202     13.070
REMARK  6 active torsions:
REMARK  status: ('A' for Active; 'I' for Inactive)
REMARK    1  A    between atoms: C_4  and  C_1 
REMARK    2  A    between atoms: O_17  and  C_1 
REMARK    3  A    between atoms: C_6  and  O_18 
REMARK    4  A    between atoms: C_7  and  O_19 
REMARK    5  A    between atoms: O_20  and  C_9 
REMARK    6  A    between atoms: C_10  and  N_16 
ROOT
HETATM    1  C   UNK N   1      21.065  19.864   3.577  0.00  0.00     0.184 A 
HETATM    2  C   UNK N   1      19.926  16.312   0.862  0.00  0.00     0.251 A 
HETATM    3  C   UNK N   1      20.460  18.527   1.288  0.00  0.00     0.125 A 
HETATM    4  C   UNK N   1      20.537  17.879   2.456  0.00  0.00     0.139 A 
HETATM    5  C   UNK N   1      20.683  19.894   1.228  0.00  0.00     0.172 A 
HETATM    6  N   UNK N   1      20.825  18.519   3.618  0.00  0.00    -0.337 N 
ATOM      7  HN  UNK N   1      20.860  18.008   4.500  1.00  0.00     0.168 HD
HETATM    8  N   UNK N   1      20.993  20.546   2.388  0.00  0.00    -0.331 N 
ATOM      9  HN  UNK N   1      21.172  21.550   2.370  1.00  0.00     0.168 HD
HETATM   10  N   UNK N   1      20.099  17.638   0.270  0.00  0.00    -0.367 N 
HETATM   11  N   UNK N   1      20.240  16.517   2.280  0.00  0.00    -0.320 N 
HETATM   12  H   UNK N   1      19.980  17.865  -0.680  0.00  0.00     0.161 HD
ENDROOT
BRANCH  11  13
HETATM   13  C   UNK N   1      19.617  15.721   3.324  0.00  0.00     0.258 C 
HETATM   14  C   UNK N   1      20.606  14.820   4.044  0.00  0.00     0.198 C 
HETATM   15  C   UNK N   1      19.721  14.391   5.175  0.00  0.00     0.182 C 
HETATM   16  C   UNK N   1      18.989  15.707   5.498  0.00  0.00     0.179 C 
HETATM   17  O   UNK N   1      19.051  16.526   4.338  0.00  0.00    -0.354 OA
BRANCH  14  18
HETATM   18  O   UNK N   1      21.031  13.739   3.266  0.00  0.00    -0.388 OA
HETATM   19  H   UNK N   1      20.771  12.818   3.420  0.00  0.00     0.210 HD
ENDBRANCH  14  18
BRANCH  15  20
HETATM   20  O   UNK N   1      20.430  13.834   6.244  0.00  0.00    -0.390 OA
HETATM   21  H   UNK N   1      20.949  14.316   6.906  0.00  0.00     0.210 HD
ENDBRANCH  15  20
BRANCH  16  22
HETATM   22  C   UNK N   1      19.587  16.467   6.678  0.00  0.00     0.198 C 
BRANCH  22  23
HETATM   23  O   UNK N   1      19.152  15.895   7.878  0.00  0.00    -0.398 OA
HETATM   24  H   UNK N   1      18.432  16.299   8.388  0.00  0.00     0.209 HD
ENDBRANCH  22  23
ENDBRANCH  16  22
ENDBRANCH  11  13
BRANCH   5  25
HETATM   25  O   UNK N   1      20.585  20.566   0.070  0.00  0.00    -0.344 OA
HETATM   26  H   UNK N   1      20.141  21.390   0.038  0.00  0.00     0.219 HD
ENDBRANCH   5  25
TORSDOF 6
ENDMDL
MODEL 7
REMARK VINA RESULT:      -5.6      2.105      5.721
REMARK  6 active torsions:
REMARK  status: ('A' for Active; 'I' for Inactive)
REMARK    1  A    between atoms: C_4  and  C_1 
REMARK    2  A    between atoms: O_17  and  C_1 
REMARK    3  A    between atoms: C_6  and  O_18 
REMARK    4  A    between atoms: C_7  and  O_19 
REMARK    5  A    between atoms: O_20  and  C_9 
REMARK    6  A    between atoms: C_10  and  N_16 
ROOT
HETATM    1  C   UNK N   1      33.502  14.088   9.627  0.00  0.00     0.184 A 
HETATM    2  C   UNK N   1      32.516  18.322   8.085  0.00  0.00     0.251 A 
HETATM    3  C   UNK N   1      33.840  16.742   9.142  0.00  0.00     0.125 A 
HETATM    4  C   UNK N   1      32.755  16.100   8.695  0.00  0.00     0.139 A 
HETATM    5  C   UNK N   1      34.808  16.062   9.866  0.00  0.00     0.172 A 
HETATM    6  N   UNK N   1      32.551  14.779   8.930  0.00  0.00    -0.337 N 
ATOM      7  HN  UNK N   1      31.707  14.314   8.595  1.00  0.00     0.168 HD
HETATM    8  N   UNK N   1      34.622  14.728  10.092  0.00  0.00    -0.331 N 
ATOM      9  HN  UNK N   1      35.325  14.202  10.614  1.00  0.00     0.168 HD
HETATM   10  N   UNK N   1      33.769  18.097   8.804  0.00  0.00    -0.367 N 
HETATM   11  N   UNK N   1      31.903  16.992   8.023  0.00  0.00    -0.320 N 
HETATM   12  H   UNK N   1      34.445  18.782   9.015  0.00  0.00     0.161 HD
ENDROOT
BRANCH  11  13
HETATM   13  C   UNK N   1      30.460  16.815   8.004  0.00  0.00     0.258 C 
HETATM   14  C   UNK N   1      29.765  17.539   9.146  0.00  0.00     0.198 C 
HETATM   15  C   UNK N   1      28.353  17.384   8.671  0.00  0.00     0.182 C 
HETATM   16  C   UNK N   1      28.520  17.615   7.158  0.00  0.00     0.179 C 
HETATM   17  O   UNK N   1      29.876  17.341   6.831  0.00  0.00    -0.354 OA
BRANCH  14  18
HETATM   18  O   UNK N   1      29.975  16.933  10.388  0.00  0.00    -0.388 OA
HETATM   19  H   UNK N   1      29.652  17.285  11.232  0.00  0.00     0.210 HD
ENDBRANCH  14  18
BRANCH  15  20
HETATM   20  O   UNK N   1      27.463  18.257   9.305  0.00  0.00    -0.390 OA
HETATM   21  H   UNK N   1      27.599  19.203   9.465  0.00  0.00     0.210 HD
ENDBRANCH  15  20
BRANCH  16  22
HETATM   22  C   UNK N   1      28.175  19.032   6.712  0.00  0.00     0.198 C 
BRANCH  22  23
HETATM   23  O   UNK N   1      26.789  19.163   6.582  0.00  0.00    -0.398 OA
HETATM   24  H   UNK N   1      26.297  18.629   5.938  0.00  0.00     0.209 HD
ENDBRANCH  22  23
ENDBRANCH  16  22
ENDBRANCH  11  13
BRANCH   5  25
HETATM   25  O   UNK N   1      35.892  16.694  10.346  0.00  0.00    -0.344 OA
HETATM   26  H   UNK N   1      36.089  17.567  10.070  0.00  0.00     0.219 HD
ENDBRANCH   5  25
TORSDOF 6
ENDMDL
MODEL 8
REMARK VINA RESULT:      -5.6      1.653      3.393
REMARK  6 active torsions:
REMARK  status: ('A' for Active; 'I' for Inactive)
REMARK    1  A    between atoms: C_4  and  C_1 
REMARK    2  A    between atoms: O_17  and  C_1 
REMARK    3  A    between atoms: C_6  and  O_18 
REMARK    4  A    between atoms: C_7  and  O_19 
REMARK    5  A    between atoms: O_20  and  C_9 
REMARK    6  A    between atoms: C_10  and  N_16 
ROOT
HETATM    1  C   UNK N   1      29.413  17.670   5.106  0.00  0.00     0.184 A 
HETATM    2  C   UNK N   1      29.398  18.151   9.694  0.00  0.00     0.251 A 
HETATM    3  C   UNK N   1      28.528  18.425   7.564  0.00  0.00     0.125 A 
HETATM    4  C   UNK N   1      29.654  17.714   7.433  0.00  0.00     0.139 A 
HETATM    5  C   UNK N   1      27.797  18.792   6.444  0.00  0.00     0.172 A 
HETATM    6  N   UNK N   1      30.129  17.332   6.220  0.00  0.00    -0.337 N 
ATOM      7  HN  UNK N   1      31.000  16.807   6.142  1.00  0.00     0.168 HD
HETATM    8  N   UNK N   1      28.255  18.397   5.219  0.00  0.00    -0.331 N 
ATOM      9  HN  UNK N   1      27.730  18.645   4.381  1.00  0.00     0.168 HD
HETATM   10  N   UNK N   1      28.304  18.723   8.911  0.00  0.00    -0.367 N 
HETATM   11  N   UNK N   1      30.239  17.491   8.691  0.00  0.00    -0.320 N 
HETATM   12  H   UNK N   1      27.541  19.231   9.272  0.00  0.00     0.161 HD
ENDROOT
BRANCH  11  13
HETATM   13  C   UNK N   1      31.677  17.363   8.861  0.00  0.00     0.258 C 
HETATM   14  C   UNK N   1      32.143  15.916   8.854  0.00  0.00     0.198 C 
HETATM   15  C   UNK N   1      33.617  16.166   8.766  0.00  0.00     0.182 C 
HETATM   16  C   UNK N   1      33.663  17.345   7.778  0.00  0.00     0.179 C 
HETATM   17  O   UNK N   1      32.393  17.982   7.813  0.00  0.00    -0.354 OA
BRANCH  14  18
HETATM   18  O   UNK N   1      31.792  15.220  10.014  0.00  0.00    -0.388 OA
HETATM   19  H   UNK N   1      31.342  15.616  10.776  0.00  0.00     0.210 HD
ENDBRANCH  14  18
BRANCH  15  20
HETATM   20  O   UNK N   1      34.342  15.037   8.371  0.00  0.00    -0.390 OA
HETATM   21  H   UNK N   1      34.227  14.537   7.548  0.00  0.00     0.210 HD
ENDBRANCH  15  20
BRANCH  16  22
HETATM   22  C   UNK N   1      33.974  16.931   6.343  0.00  0.00     0.198 C 
BRANCH  22  23
HETATM   23  O   UNK N   1      33.087  17.563   5.466  0.00  0.00    -0.398 OA
HETATM   24  H   UNK N   1      33.411  18.009   4.668  0.00  0.00     0.209 HD
ENDBRANCH  22  23
ENDBRANCH  16  22
ENDBRANCH  11  13
BRANCH   5  25
HETATM   25  O   UNK N   1      26.678  19.527   6.553  0.00  0.00    -0.344 OA
HETATM   26  H   UNK N   1      26.249  19.850   5.786  0.00  0.00     0.219 HD
ENDBRANCH   5  25
TORSDOF 6
ENDMDL
MODEL 9
REMARK VINA RESULT:      -5.5      8.501     11.330
REMARK  6 active torsions:
REMARK  status: ('A' for Active; 'I' for Inactive)
REMARK    1  A    between atoms: C_4  and  C_1 
REMARK    2  A    between atoms: O_17  and  C_1 
REMARK    3  A    between atoms: C_6  and  O_18 
REMARK    4  A    between atoms: C_7  and  O_19 
REMARK    5  A    between atoms: O_20  and  C_9 
REMARK    6  A    between atoms: C_10  and  N_16 
ROOT
HETATM    1  C   UNK N   1      21.611  12.450  10.993  0.00  0.00     0.184 A 
HETATM    2  C   UNK N   1      24.338  13.993   7.606  0.00  0.00     0.251 A 
HETATM    3  C   UNK N   1      23.906  12.914   9.611  0.00  0.00     0.125 A 
HETATM    4  C   UNK N   1      22.725  13.300   9.118  0.00  0.00     0.139 A 
HETATM    5  C   UNK N   1      23.979  12.275  10.840  0.00  0.00     0.172 A 
HETATM    6  N   UNK N   1      21.562  13.095   9.788  0.00  0.00    -0.337 N 
ATOM      7  HN  UNK N   1      20.674  13.414   9.402  1.00  0.00     0.168 HD
HETATM    8  N   UNK N   1      22.814  12.045  11.514  0.00  0.00    -0.331 N 
ATOM      9  HN  UNK N   1      22.838  11.568  12.415  1.00  0.00     0.168 HD
HETATM   10  N   UNK N   1      24.935  13.296   8.744  0.00  0.00    -0.367 N 
HETATM   11  N   UNK N   1      22.899  13.954   7.887  0.00  0.00    -0.320 N 
HETATM   12  H   UNK N   1      25.896  13.125   8.876  0.00  0.00     0.161 HD
ENDROOT
BRANCH  11  13
HETATM   13  C   UNK N   1      22.003  15.006   7.438  0.00  0.00     0.258 C 
HETATM   14  C   UNK N   1      20.804  14.470   6.674  0.00  0.00     0.198 C 
HETATM   15  C   UNK N   1      20.000  15.733   6.622  0.00  0.00     0.182 C 
HETATM   16  C   UNK N   1      20.246  16.303   8.030  0.00  0.00     0.179 C 
HETATM   17  O   UNK N   1      21.453  15.733   8.517  0.00  0.00    -0.354 OA
BRANCH  14  18
HETATM   18  O   UNK N   1      21.130  13.997   5.400  0.00  0.00    -0.388 OA
HETATM   19  H   UNK N   1      20.719  13.226   4.979  0.00  0.00     0.210 HD
ENDBRANCH  14  18
BRANCH  15  20
HETATM   20  O   UNK N   1      18.656  15.514   6.301  0.00  0.00    -0.390 OA
HETATM   21  H   UNK N   1      18.271  14.692   5.963  0.00  0.00     0.210 HD
ENDBRANCH  15  20
BRANCH  16  22
HETATM   22  C   UNK N   1      19.121  16.008   9.017  0.00  0.00     0.198 C 
BRANCH  22  23
HETATM   23  O   UNK N   1      19.178  14.668   9.412  0.00  0.00    -0.398 OA
HETATM   24  H   UNK N   1      18.643  14.345  10.154  0.00  0.00     0.209 HD
ENDBRANCH  22  23
ENDBRANCH  16  22
ENDBRANCH  11  13
BRANCH   5  25
HETATM   25  O   UNK N   1      25.159  11.903  11.363  0.00  0.00    -0.344 OA
HETATM   26  H   UNK N   1      25.251  11.063  11.768  0.00  0.00     0.219 HD
ENDBRANCH   5  25
TORSDOF 6
ENDMDL
