MODEL 1
REMARK VINA RESULT:      -6.5      0.000      0.000
REMARK  18 active torsions:
REMARK  status: ('A' for Active; 'I' for Inactive)
REMARK    1  A    between atoms: C_7  and  C_5 
REMARK    2  A    between atoms: C_11  and  C_5 
REMARK    3  A    between atoms: C_8  and  C_6 
REMARK    4  A    between atoms: C_14  and  C_6 
REMARK    5  A    between atoms: N_22  and  C_7 
REMARK    6  A    between atoms: N_20  and  C_8 
REMARK    7  A    between atoms: C_15  and  C_9 
REMARK    8  A    between atoms: C_13  and  C_10 
REMARK    9  A    between atoms: O_28  and  C_10 
REMARK   10  A    between atoms: N_24  and  C_12 
REMARK   11  A    between atoms: C_16  and  C_13 
REMARK   12  A    between atoms: C_13  and  N_26 
REMARK   13  A    between atoms: C_14  and  O_29 
REMARK   14  A    between atoms: O_30  and  C_15 
REMARK   15  A    between atoms: O_31  and  C_16 
REMARK   16  A    between atoms: C_18  and  C_17 
REMARK   17  A    between atoms: O_32  and  C_17 
REMARK   18  A    between atoms: O_33  and  C_18 
ROOT
HETATM    1  C   UNK N   1      33.735  17.162   8.829  0.00  0.00     0.136 C 
HETATM    2  N   UNK N   1      32.529  17.595   8.701  0.00  0.00    -0.372 N 
ATOM      3  HN  UNK N   1      32.393  18.596   8.848  1.00  0.00     0.161 HD
ENDROOT
BRANCH   1   4
HETATM    4  C   UNK N   1      34.106  15.694   8.717  0.00  0.00     0.181 C 
BRANCH   4   5
HETATM    5  C   UNK N   1      34.598  15.385   7.309  0.00  0.00     0.197 C 
BRANCH   5   6
HETATM    6  O   UNK N   1      34.773  16.568   6.587  0.00  0.00    -0.398 OA
HETATM    7  H   UNK N   1      34.912  17.407   7.055  0.00  0.00     0.209 HD
ENDBRANCH   5   6
ENDBRANCH   4   5
BRANCH   4   8
HETATM    8  N   UNK N   1      35.161  15.362   9.664  0.00  0.00    -0.360 N 
HETATM    9  C   UNK N   1      34.933  14.979  10.878  0.00  0.00     0.113 C 
ATOM     10  HN  UNK N   1      36.130  15.435   9.355  1.00  0.00     0.162 HD
BRANCH   9  11
HETATM   11  C   UNK N   1      36.073  14.675  11.793  0.00  0.00     0.103 C 
BRANCH  11  12
HETATM   12  C   UNK N   1      35.561  14.048  13.077  0.00  0.00     0.129 C 
BRANCH  12  13
HETATM   13  N   UNK N   1      35.176  12.684  12.814  0.00  0.00    -0.373 N 
HETATM   14  C   UNK N   1      34.548  11.976  13.687  0.00  0.00     0.121 C 
ATOM     15  HN  UNK N   1      35.406  12.268  11.911  1.00  0.00     0.161 HD
BRANCH  14  16
HETATM   16  C   UNK N   1      34.151  10.576  13.355  0.00  0.00     0.168 C 
HETATM   17 Br   UNK N   1      35.403   9.314  14.120  0.00  0.00    -0.088 Br
ENDBRANCH  14  16
BRANCH  14  18
HETATM   18  O   UNK N   1      34.219  12.496  14.889  0.00  0.00    -0.349 OA
HETATM   19  H   UNK N   1      34.077  11.929  15.622  0.00  0.00     0.219 HD
ENDBRANCH  14  18
ENDBRANCH  12  13
ENDBRANCH  11  12
ENDBRANCH   9  11
BRANCH   9  20
HETATM   20  O   UNK N   1      33.670  14.843  11.337  0.00  0.00    -0.349 OA
HETATM   21  H   UNK N   1      32.756  15.029  11.248  0.00  0.00     0.219 HD
ENDBRANCH   9  20
ENDBRANCH   4   8
ENDBRANCH   1   4
BRANCH   1  22
HETATM   22  O   UNK N   1      34.701  18.065   9.091  0.00  0.00    -0.348 OA
HETATM   23  H   UNK N   1      35.413  18.215   8.500  0.00  0.00     0.219 HD
ENDBRANCH   1  22
BRANCH   2  24
HETATM   24  C   UNK N   1      31.344  16.834   8.374  0.00  0.00     0.126 C 
BRANCH  24  25
HETATM   25  C   UNK N   1      30.091  17.583   8.885  0.00  0.00     0.058 C 
BRANCH  25  26
HETATM   26  C   UNK N   1      29.218  18.136   7.781  0.00  0.00    -0.057 A 
HETATM   27  C   UNK N   1      28.387  19.248   7.987  0.00  0.00     0.009 A 
HETATM   28  C   UNK N   1      27.606  19.749   6.927  0.00  0.00     0.030 A 
HETATM   29  C   UNK N   1      27.669  19.153   5.655  0.00  0.00     0.034 A 
HETATM   30  C   UNK N   1      28.477  18.025   5.478  0.00  0.00     0.030 A 
HETATM   31  C   UNK N   1      29.224  17.519   6.527  0.00  0.00     0.009 A 
BRANCH  29  32
HETATM   32  N   UNK N   1      26.910  19.695   4.573  0.00  0.00    -0.332 N 
HETATM   33  C   UNK N   1      25.620  19.627   4.457  0.00  0.00     0.216 C 
ATOM     34  HN  UNK N   1      27.423  20.174   3.832  1.00  0.00     0.168 HD
BRANCH  33  35
HETATM   35  C   UNK N   1      24.944  20.256   3.310  0.00  0.00     0.219 C 
HETATM   36  O   UNK N   1      23.727  20.273   3.253  0.00  0.00    -0.643 OA
BRANCH  35  37
HETATM   37  O   UNK N   1      25.666  20.819   2.320  0.00  0.00    -0.770 OA
HETATM   38  H   UNK N   1      26.433  21.317   2.525  0.00  0.00     0.168 HD
ENDBRANCH  35  37
ENDBRANCH  33  35
BRANCH  33  39
HETATM   39  O   UNK N   1      24.864  18.964   5.362  0.00  0.00    -0.341 OA
HETATM   40  H   UNK N   1      23.951  19.152   5.440  0.00  0.00     0.219 HD
ENDBRANCH  33  39
ENDBRANCH  29  32
ENDBRANCH  25  26
ENDBRANCH  24  25
ENDBRANCH   2  24
TORSDOF 18
ENDMDL
MODEL 2
REMARK VINA RESULT:      -6.4      4.472      7.201
REMARK  18 active torsions:
REMARK  status: ('A' for Active; 'I' for Inactive)
REMARK    1  A    between atoms: C_7  and  C_5 
REMARK    2  A    between atoms: C_11  and  C_5 
REMARK    3  A    between atoms: C_8  and  C_6 
REMARK    4  A    between atoms: C_14  and  C_6 
REMARK    5  A    between atoms: N_22  and  C_7 
REMARK    6  A    between atoms: N_20  and  C_8 
REMARK    7  A    between atoms: C_15  and  C_9 
REMARK    8  A    between atoms: C_13  and  C_10 
REMARK    9  A    between atoms: O_28  and  C_10 
REMARK   10  A    between atoms: N_24  and  C_12 
REMARK   11  A    between atoms: C_16  and  C_13 
REMARK   12  A    between atoms: C_13  and  N_26 
REMARK   13  A    between atoms: C_14  and  O_29 
REMARK   14  A    between atoms: O_30  and  C_15 
REMARK   15  A    between atoms: O_31  and  C_16 
REMARK   16  A    between atoms: C_18  and  C_17 
REMARK   17  A    between atoms: O_32  and  C_17 
REMARK   18  A    between atoms: O_33  and  C_18 
ROOT
HETATM    1  C   UNK N   1      33.856  16.698   8.695  0.00  0.00     0.136 C 
HETATM    2  N   UNK N   1      34.664  16.636   7.694  0.00  0.00    -0.372 N 
ATOM      3  HN  UNK N   1      35.564  17.102   7.813  1.00  0.00     0.161 HD
ENDROOT
BRANCH   1   4
HETATM    4  C   UNK N   1      32.451  16.124   8.665  0.00  0.00     0.181 C 
BRANCH   4   5
HETATM    5  C   UNK N   1      32.409  14.803   9.421  0.00  0.00     0.197 C 
BRANCH   5   6
HETATM    6  O   UNK N   1      32.690  15.010  10.774  0.00  0.00    -0.398 OA
HETATM    7  H   UNK N   1      32.806  14.252  11.368  0.00  0.00     0.209 HD
ENDBRANCH   5   6
ENDBRANCH   4   5
BRANCH   4   8
HETATM    8  N   UNK N   1      31.510  17.047   9.286  0.00  0.00    -0.360 N 
HETATM    9  C   UNK N   1      30.480  17.532   8.673  0.00  0.00     0.113 C 
ATOM     10  HN  UNK N   1      31.672  17.325  10.254  1.00  0.00     0.162 HD
BRANCH   9  11
HETATM   11  C   UNK N   1      29.574  18.488   9.375  0.00  0.00     0.103 C 
BRANCH  11  12
HETATM   12  C   UNK N   1      28.147  18.312   8.888  0.00  0.00     0.129 C 
BRANCH  12  13
HETATM   13  N   UNK N   1      27.914  19.208   7.782  0.00  0.00    -0.373 N 
HETATM   14  C   UNK N   1      27.478  18.783   6.647  0.00  0.00     0.121 C 
ATOM     15  HN  UNK N   1      28.099  20.203   7.902  1.00  0.00     0.161 HD
BRANCH  14  16
HETATM   16  C   UNK N   1      27.231  19.756   5.542  0.00  0.00     0.168 C 
HETATM   17 Br   UNK N   1      26.838  21.511   6.257  0.00  0.00    -0.088 Br
ENDBRANCH  14  16
BRANCH  14  18
HETATM   18  O   UNK N   1      27.214  17.473   6.455  0.00  0.00    -0.349 OA
HETATM   19  H   UNK N   1      27.463  16.844   7.103  0.00  0.00     0.219 HD
ENDBRANCH  14  18
ENDBRANCH  12  13
ENDBRANCH  11  12
ENDBRANCH   9  11
BRANCH   9  20
HETATM   20  O   UNK N   1      30.203  17.183   7.398  0.00  0.00    -0.349 OA
HETATM   21  H   UNK N   1      29.992  16.518   6.772  0.00  0.00     0.219 HD
ENDBRANCH   9  20
ENDBRANCH   4   8
ENDBRANCH   1   4
BRANCH   1  22
HETATM   22  O   UNK N   1      34.287  17.321   9.811  0.00  0.00    -0.348 OA
HETATM   23  H   UNK N   1      34.324  16.883  10.640  0.00  0.00     0.219 HD
ENDBRANCH   1  22
BRANCH   2  24
HETATM   24  C   UNK N   1      34.449  15.985   6.421  0.00  0.00     0.126 C 
BRANCH  24  25
HETATM   25  C   UNK N   1      33.879  17.004   5.408  0.00  0.00     0.058 C 
BRANCH  25  26
HETATM   26  C   UNK N   1      32.636  16.523   4.693  0.00  0.00    -0.057 A 
HETATM   27  C   UNK N   1      32.096  17.224   3.604  0.00  0.00     0.009 A 
HETATM   28  C   UNK N   1      30.950  16.731   2.948  0.00  0.00     0.030 A 
HETATM   29  C   UNK N   1      30.355  15.528   3.366  0.00  0.00     0.034 A 
HETATM   30  C   UNK N   1      30.887  14.861   4.475  0.00  0.00     0.030 A 
HETATM   31  C   UNK N   1      31.997  15.361   5.133  0.00  0.00     0.009 A 
BRANCH  29  32
HETATM   32  N   UNK N   1      29.222  15.009   2.667  0.00  0.00    -0.332 N 
HETATM   33  C   UNK N   1      27.994  15.381   2.855  0.00  0.00     0.216 C 
ATOM     34  HN  UNK N   1      29.393  14.290   1.964  1.00  0.00     0.168 HD
BRANCH  33  35
HETATM   35  C   UNK N   1      26.910  14.798   2.047  0.00  0.00     0.219 C 
HETATM   36  O   UNK N   1      26.786  13.587   1.976  0.00  0.00    -0.643 OA
BRANCH  35  37
HETATM   37  O   UNK N   1      26.049  15.597   1.386  0.00  0.00    -0.770 OA
HETATM   38  H   UNK N   1      26.279  16.488   1.208  0.00  0.00     0.168 HD
ENDBRANCH  35  37
ENDBRANCH  33  35
BRANCH  33  39
HETATM   39  O   UNK N   1      27.669  16.288   3.805  0.00  0.00    -0.341 OA
HETATM   40  H   UNK N   1      27.354  16.004   4.639  0.00  0.00     0.219 HD
ENDBRANCH  33  39
ENDBRANCH  29  32
ENDBRANCH  25  26
ENDBRANCH  24  25
ENDBRANCH   2  24
TORSDOF 18
ENDMDL
MODEL 3
REMARK VINA RESULT:      -6.4      4.416      5.614
REMARK  18 active torsions:
REMARK  status: ('A' for Active; 'I' for Inactive)
REMARK    1  A    between atoms: C_7  and  C_5 
REMARK    2  A    between atoms: C_11  and  C_5 
REMARK    3  A    between atoms: C_8  and  C_6 
REMARK    4  A    between atoms: C_14  and  C_6 
REMARK    5  A    between atoms: N_22  and  C_7 
REMARK    6  A    between atoms: N_20  and  C_8 
REMARK    7  A    between atoms: C_15  and  C_9 
REMARK    8  A    between atoms: C_13  and  C_10 
REMARK    9  A    between atoms: O_28  and  C_10 
REMARK   10  A    between atoms: N_24  and  C_12 
REMARK   11  A    between atoms: C_16  and  C_13 
REMARK   12  A    between atoms: C_13  and  N_26 
REMARK   13  A    between atoms: C_14  and  O_29 
REMARK   14  A    between atoms: O_30  and  C_15 
REMARK   15  A    between atoms: O_31  and  C_16 
REMARK   16  A    between atoms: C_18  and  C_17 
REMARK   17  A    between atoms: O_32  and  C_17 
REMARK   18  A    between atoms: O_33  and  C_18 
ROOT
HETATM    1  C   UNK N   1      33.592  17.528   8.614  0.00  0.00     0.136 C 
HETATM    2  N   UNK N   1      32.348  17.856   8.555  0.00  0.00    -0.372 N 
ATOM      3  HN  UNK N   1      32.148  18.857   8.540  1.00  0.00     0.161 HD
ENDROOT
BRANCH   1   4
HETATM    4  C   UNK N   1      34.068  16.090   8.717  0.00  0.00     0.181 C 
BRANCH   4   5
HETATM    5  C   UNK N   1      34.710  15.656   7.406  0.00  0.00     0.197 C 
BRANCH   5   6
HETATM    6  O   UNK N   1      34.709  16.714   6.493  0.00  0.00    -0.398 OA
HETATM    7  H   UNK N   1      33.869  17.091   6.187  0.00  0.00     0.209 HD
ENDBRANCH   5   6
ENDBRANCH   4   5
BRANCH   4   8
HETATM    8  N   UNK N   1      35.048  15.953   9.785  0.00  0.00    -0.360 N 
HETATM    9  C   UNK N   1      34.774  15.441  10.941  0.00  0.00     0.113 C 
ATOM     10  HN  UNK N   1      36.000  16.277   9.613  1.00  0.00     0.162 HD
BRANCH   9  11
HETATM   11  C   UNK N   1      35.833  15.354  11.990  0.00  0.00     0.103 C 
BRANCH  11  12
HETATM   12  C   UNK N   1      36.245  13.908  12.199  0.00  0.00     0.129 C 
BRANCH  12  13
HETATM   13  N   UNK N   1      35.411  13.324  13.220  0.00  0.00    -0.373 N 
HETATM   14  C   UNK N   1      35.839  13.138  14.420  0.00  0.00     0.121 C 
ATOM     15  HN  UNK N   1      34.457  13.052  12.986  1.00  0.00     0.161 HD
BRANCH  14  16
HETATM   16  C   UNK N   1      34.927  12.552  15.446  0.00  0.00     0.168 C 
HETATM   17 Br   UNK N   1      33.933  11.067  14.702  0.00  0.00    -0.088 Br
ENDBRANCH  14  16
BRANCH  14  18
HETATM   18  O   UNK N   1      37.094  13.494  14.769  0.00  0.00    -0.349 OA
HETATM   19  H   UNK N   1      37.802  13.371  14.167  0.00  0.00     0.219 HD
ENDBRANCH  14  18
ENDBRANCH  12  13
ENDBRANCH  11  12
ENDBRANCH   9  11
BRANCH   9  20
HETATM   20  O   UNK N   1      33.537  14.976  11.218  0.00  0.00    -0.349 OA
HETATM   21  H   UNK N   1      32.641  14.867  10.965  0.00  0.00     0.219 HD
ENDBRANCH   9  20
ENDBRANCH   4   8
ENDBRANCH   1   4
BRANCH   1  22
HETATM   22  O   UNK N   1      34.504  18.522   8.599  0.00  0.00    -0.348 OA
HETATM   23  H   UNK N   1      34.780  18.930   7.802  0.00  0.00     0.219 HD
ENDBRANCH   1  22
BRANCH   2  24
HETATM   24  C   UNK N   1      31.201  16.977   8.507  0.00  0.00     0.126 C 
BRANCH  24  25
HETATM   25  C   UNK N   1      30.425  17.214   7.191  0.00  0.00     0.058 C 
BRANCH  25  26
HETATM   26  C   UNK N   1      31.109  16.645   5.968  0.00  0.00    -0.057 A 
HETATM   27  C   UNK N   1      31.654  17.475   4.976  0.00  0.00     0.009 A 
HETATM   28  C   UNK N   1      32.304  16.908   3.863  0.00  0.00     0.030 A 
HETATM   29  C   UNK N   1      32.429  15.512   3.748  0.00  0.00     0.034 A 
HETATM   30  C   UNK N   1      31.849  14.700   4.728  0.00  0.00     0.030 A 
HETATM   31  C   UNK N   1      31.189  15.259   5.808  0.00  0.00     0.009 A 
BRANCH  29  32
HETATM   32  N   UNK N   1      33.131  14.945   2.641  0.00  0.00    -0.332 N 
HETATM   33  C   UNK N   1      34.286  14.358   2.711  0.00  0.00     0.216 C 
ATOM     34  HN  UNK N   1      32.690  15.006   1.723  1.00  0.00     0.168 HD
BRANCH  33  35
HETATM   35  C   UNK N   1      34.898  13.779   1.503  0.00  0.00     0.219 C 
HETATM   36  O   UNK N   1      35.072  12.575   1.424  0.00  0.00    -0.643 OA
BRANCH  35  37
HETATM   37  O   UNK N   1      35.264  14.575   0.478  0.00  0.00    -0.770 OA
HETATM   38  H   UNK N   1      35.722  15.375   0.646  0.00  0.00     0.168 HD
ENDBRANCH  35  37
ENDBRANCH  33  35
BRANCH  33  39
HETATM   39  O   UNK N   1      34.969  14.281   3.876  0.00  0.00    -0.341 OA
HETATM   40  H   UNK N   1      34.621  13.789   4.593  0.00  0.00     0.219 HD
ENDBRANCH  33  39
ENDBRANCH  29  32
ENDBRANCH  25  26
ENDBRANCH  24  25
ENDBRANCH   2  24
TORSDOF 18
ENDMDL
MODEL 4
REMARK VINA RESULT:      -6.3      6.153     13.989
REMARK  18 active torsions:
REMARK  status: ('A' for Active; 'I' for Inactive)
REMARK    1  A    between atoms: C_7  and  C_5 
REMARK    2  A    between atoms: C_11  and  C_5 
REMARK    3  A    between atoms: C_8  and  C_6 
REMARK    4  A    between atoms: C_14  and  C_6 
REMARK    5  A    between atoms: N_22  and  C_7 
REMARK    6  A    between atoms: N_20  and  C_8 
REMARK    7  A    between atoms: C_15  and  C_9 
REMARK    8  A    between atoms: C_13  and  C_10 
REMARK    9  A    between atoms: O_28  and  C_10 
REMARK   10  A    between atoms: N_24  and  C_12 
REMARK   11  A    between atoms: C_16  and  C_13 
REMARK   12  A    between atoms: C_13  and  N_26 
REMARK   13  A    between atoms: C_14  and  O_29 
REMARK   14  A    between atoms: O_30  and  C_15 
REMARK   15  A    between atoms: O_31  and  C_16 
REMARK   16  A    between atoms: C_18  and  C_17 
REMARK   17  A    between atoms: O_32  and  C_17 
REMARK   18  A    between atoms: O_33  and  C_18 
ROOT
HETATM    1  C   UNK N   1      37.079  12.164  14.695  0.00  0.00     0.136 C 
HETATM    2  N   UNK N   1      36.535  11.106  15.186  0.00  0.00    -0.372 N 
ATOM      3  HN  UNK N   1      37.091  10.252  15.140  1.00  0.00     0.161 HD
ENDROOT
BRANCH   1   4
HETATM    4  C   UNK N   1      36.368  13.503  14.615  0.00  0.00     0.181 C 
BRANCH   4   5
HETATM    5  C   UNK N   1      36.829  14.409  15.750  0.00  0.00     0.197 C 
BRANCH   5   6
HETATM    6  O   UNK N   1      37.750  15.346  15.277  0.00  0.00    -0.398 OA
HETATM    7  H   UNK N   1      38.560  15.050  14.833  0.00  0.00     0.209 HD
ENDBRANCH   5   6
ENDBRANCH   4   5
BRANCH   4   8
HETATM    8  N   UNK N   1      36.659  14.160  13.348  0.00  0.00    -0.360 N 
HETATM    9  C   UNK N   1      35.796  14.269  12.389  0.00  0.00     0.113 C 
ATOM     10  HN  UNK N   1      37.589  14.553  13.208  1.00  0.00     0.162 HD
BRANCH   9  11
HETATM   11  C   UNK N   1      36.180  14.940  11.112  0.00  0.00     0.103 C 
BRANCH  11  12
HETATM   12  C   UNK N   1      35.119  15.949  10.711  0.00  0.00     0.129 C 
BRANCH  12  13
HETATM   13  N   UNK N   1      34.378  15.432   9.587  0.00  0.00    -0.373 N 
HETATM   14  C   UNK N   1      33.166  15.017   9.708  0.00  0.00     0.121 C 
ATOM     15  HN  UNK N   1      34.828  15.393   8.672  1.00  0.00     0.161 HD
BRANCH  14  16
HETATM   16  C   UNK N   1      32.436  14.513   8.507  0.00  0.00     0.168 C 
HETATM   17 Br   UNK N   1      33.537  13.267   7.516  0.00  0.00    -0.088 Br
ENDBRANCH  14  16
BRANCH  14  18
HETATM   18  O   UNK N   1      32.536  15.062  10.902  0.00  0.00    -0.349 OA
HETATM   19  H   UNK N   1      32.018  15.808  11.131  0.00  0.00     0.219 HD
ENDBRANCH  14  18
ENDBRANCH  12  13
ENDBRANCH  11  12
ENDBRANCH   9  11
BRANCH   9  20
HETATM   20  O   UNK N   1      34.543  13.786  12.525  0.00  0.00    -0.349 OA
HETATM   21  H   UNK N   1      33.856  13.227  12.217  0.00  0.00     0.219 HD
ENDBRANCH   9  20
ENDBRANCH   4   8
ENDBRANCH   1   4
BRANCH   1  22
HETATM   22  O   UNK N   1      38.336  12.059  14.216  0.00  0.00    -0.348 OA
HETATM   23  H   UNK N   1      38.946  12.769  14.265  0.00  0.00     0.219 HD
ENDBRANCH   1  22
BRANCH   2  24
HETATM   24  C   UNK N   1      35.231  10.983  15.798  0.00  0.00     0.126 C 
BRANCH  24  25
HETATM   25  C   UNK N   1      35.128   9.622  16.526  0.00  0.00     0.058 C 
BRANCH  25  26
HETATM   26  C   UNK N   1      34.863   9.743  18.010  0.00  0.00    -0.057 A 
HETATM   27  C   UNK N   1      34.251   8.709  18.735  0.00  0.00     0.009 A 
HETATM   28  C   UNK N   1      34.042   8.849  20.121  0.00  0.00     0.030 A 
HETATM   29  C   UNK N   1      34.464  10.012  20.789  0.00  0.00     0.034 A 
HETATM   30  C   UNK N   1      35.042  11.046  20.044  0.00  0.00     0.030 A 
HETATM   31  C   UNK N   1      35.223  10.917  18.679  0.00  0.00     0.009 A 
BRANCH  29  32
HETATM   32  N   UNK N   1      34.294  10.128  22.203  0.00  0.00    -0.332 N 
HETATM   33  C   UNK N   1      33.184  10.440  22.797  0.00  0.00     0.216 C 
ATOM     34  HN  UNK N   1      35.108   9.950  22.791  1.00  0.00     0.168 HD
BRANCH  33  35
HETATM   35  C   UNK N   1      33.121  10.494  24.268  0.00  0.00     0.219 C 
HETATM   36  O   UNK N   1      34.118  10.264  24.930  0.00  0.00    -0.643 OA
BRANCH  35  37
HETATM   37  O   UNK N   1      31.964  10.803  24.887  0.00  0.00    -0.770 OA
HETATM   38  H   UNK N   1      31.573  10.193  25.482  0.00  0.00     0.168 HD
ENDBRANCH  35  37
ENDBRANCH  33  35
BRANCH  33  39
HETATM   39  O   UNK N   1      32.069  10.745  22.096  0.00  0.00    -0.341 OA
HETATM   40  H   UNK N   1      31.999  11.570  21.658  0.00  0.00     0.219 HD
ENDBRANCH  33  39
ENDBRANCH  29  32
ENDBRANCH  25  26
ENDBRANCH  24  25
ENDBRANCH   2  24
TORSDOF 18
ENDMDL
MODEL 5
REMARK VINA RESULT:      -6.3      1.941      2.677
REMARK  18 active torsions:
REMARK  status: ('A' for Active; 'I' for Inactive)
REMARK    1  A    between atoms: C_7  and  C_5 
REMARK    2  A    between atoms: C_11  and  C_5 
REMARK    3  A    between atoms: C_8  and  C_6 
REMARK    4  A    between atoms: C_14  and  C_6 
REMARK    5  A    between atoms: N_22  and  C_7 
REMARK    6  A    between atoms: N_20  and  C_8 
REMARK    7  A    between atoms: C_15  and  C_9 
REMARK    8  A    between atoms: C_13  and  C_10 
REMARK    9  A    between atoms: O_28  and  C_10 
REMARK   10  A    between atoms: N_24  and  C_12 
REMARK   11  A    between atoms: C_16  and  C_13 
REMARK   12  A    between atoms: C_13  and  N_26 
REMARK   13  A    between atoms: C_14  and  O_29 
REMARK   14  A    between atoms: O_30  and  C_15 
REMARK   15  A    between atoms: O_31  and  C_16 
REMARK   16  A    between atoms: C_18  and  C_17 
REMARK   17  A    between atoms: O_32  and  C_17 
REMARK   18  A    between atoms: O_33  and  C_18 
ROOT
HETATM    1  C   UNK N   1      33.613  14.923  10.333  0.00  0.00     0.136 C 
HETATM    2  N   UNK N   1      32.440  15.110   9.837  0.00  0.00    -0.372 N 
ATOM      3  HN  UNK N   1      31.655  14.968  10.474  1.00  0.00     0.161 HD
ENDROOT
BRANCH   1   4
HETATM    4  C   UNK N   1      34.886  15.020   9.512  0.00  0.00     0.181 C 
BRANCH   4   5
HETATM    5  C   UNK N   1      35.521  16.393   9.690  0.00  0.00     0.197 C 
BRANCH   5   6
HETATM    6  O   UNK N   1      34.743  17.178  10.545  0.00  0.00    -0.398 OA
HETATM    7  H   UNK N   1      33.804  16.972  10.673  0.00  0.00     0.209 HD
ENDBRANCH   5   6
ENDBRANCH   4   5
BRANCH   4   8
HETATM    8  N   UNK N   1      35.843  14.005   9.933  0.00  0.00    -0.360 N 
HETATM    9  C   UNK N   1      36.643  14.156  10.939  0.00  0.00     0.113 C 
ATOM     10  HN  UNK N   1      35.886  13.132   9.408  1.00  0.00     0.162 HD
BRANCH   9  11
HETATM   11  C   UNK N   1      37.608  13.074  11.294  0.00  0.00     0.103 C 
BRANCH  11  12
HETATM   12  C   UNK N   1      37.011  12.164  12.352  0.00  0.00     0.129 C 
BRANCH  12  13
HETATM   13  N   UNK N   1      37.175  12.778  13.647  0.00  0.00    -0.373 N 
HETATM   14  C   UNK N   1      36.166  13.173  14.342  0.00  0.00     0.121 C 
ATOM     15  HN  UNK N   1      38.115  12.902  14.021  1.00  0.00     0.161 HD
BRANCH  14  16
HETATM   16  C   UNK N   1      36.389  13.780  15.687  0.00  0.00     0.168 C 
HETATM   17 Br   UNK N   1      35.048  13.165  16.941  0.00  0.00    -0.088 Br
ENDBRANCH  14  16
BRANCH  14  18
HETATM   18  O   UNK N   1      34.906  13.017  13.881  0.00  0.00    -0.349 OA
HETATM   19  H   UNK N   1      34.239  13.629  14.122  0.00  0.00     0.219 HD
ENDBRANCH  14  18
ENDBRANCH  12  13
ENDBRANCH  11  12
ENDBRANCH   9  11
BRANCH   9  20
HETATM   20  O   UNK N   1      36.617  15.282  11.684  0.00  0.00    -0.349 OA
HETATM   21  H   UNK N   1      37.079  15.958  12.138  0.00  0.00     0.219 HD
ENDBRANCH   9  20
ENDBRANCH   4   8
ENDBRANCH   1   4
BRANCH   1  22
HETATM   22  O   UNK N   1      33.699  14.609  11.642  0.00  0.00    -0.348 OA
HETATM   23  H   UNK N   1      33.135  13.974  12.037  0.00  0.00     0.219 HD
ENDBRANCH   1  22
BRANCH   2  24
HETATM   24  C   UNK N   1      32.100  15.500   8.487  0.00  0.00     0.126 C 
BRANCH  24  25
HETATM   25  C   UNK N   1      31.792  17.015   8.449  0.00  0.00     0.058 C 
BRANCH  25  26
HETATM   26  C   UNK N   1      30.475  17.354   7.787  0.00  0.00    -0.057 A 
HETATM   27  C   UNK N   1      30.116  16.815   6.543  0.00  0.00     0.009 A 
HETATM   28  C   UNK N   1      28.870  17.136   5.969  0.00  0.00     0.030 A 
HETATM   29  C   UNK N   1      27.973  17.979   6.647  0.00  0.00     0.034 A 
HETATM   30  C   UNK N   1      28.361  18.535   7.871  0.00  0.00     0.030 A 
HETATM   31  C   UNK N   1      29.596  18.238   8.420  0.00  0.00     0.009 A 
BRANCH  29  32
HETATM   32  N   UNK N   1      26.691  18.262   6.083  0.00  0.00    -0.332 N 
HETATM   33  C   UNK N   1      26.429  19.249   5.283  0.00  0.00     0.216 C 
ATOM     34  HN  UNK N   1      25.921  17.639   6.327  1.00  0.00     0.168 HD
BRANCH  33  35
HETATM   35  C   UNK N   1      25.073  19.420   4.735  0.00  0.00     0.219 C 
HETATM   36  O   UNK N   1      24.869  20.237   3.853  0.00  0.00    -0.643 OA
BRANCH  35  37
HETATM   37  O   UNK N   1      24.053  18.673   5.201  0.00  0.00    -0.770 OA
HETATM   38  H   UNK N   1      23.469  18.251   4.602  0.00  0.00     0.168 HD
ENDBRANCH  35  37
ENDBRANCH  33  35
BRANCH  33  39
HETATM   39  O   UNK N   1      27.375  20.157   4.948  0.00  0.00    -0.341 OA
HETATM   40  H   UNK N   1      27.540  20.354   4.048  0.00  0.00     0.219 HD
ENDBRANCH  33  39
ENDBRANCH  29  32
ENDBRANCH  25  26
ENDBRANCH  24  25
ENDBRANCH   2  24
TORSDOF 18
ENDMDL
MODEL 6
REMARK VINA RESULT:      -6.3      2.989      4.972
REMARK  18 active torsions:
REMARK  status: ('A' for Active; 'I' for Inactive)
REMARK    1  A    between atoms: C_7  and  C_5 
REMARK    2  A    between atoms: C_11  and  C_5 
REMARK    3  A    between atoms: C_8  and  C_6 
REMARK    4  A    between atoms: C_14  and  C_6 
REMARK    5  A    between atoms: N_22  and  C_7 
REMARK    6  A    between atoms: N_20  and  C_8 
REMARK    7  A    between atoms: C_15  and  C_9 
REMARK    8  A    between atoms: C_13  and  C_10 
REMARK    9  A    between atoms: O_28  and  C_10 
REMARK   10  A    between atoms: N_24  and  C_12 
REMARK   11  A    between atoms: C_16  and  C_13 
REMARK   12  A    between atoms: C_13  and  N_26 
REMARK   13  A    between atoms: C_14  and  O_29 
REMARK   14  A    between atoms: O_30  and  C_15 
REMARK   15  A    between atoms: O_31  and  C_16 
REMARK   16  A    between atoms: C_18  and  C_17 
REMARK   17  A    between atoms: O_32  and  C_17 
REMARK   18  A    between atoms: O_33  and  C_18 
ROOT
HETATM    1  C   UNK N   1      30.682  17.269   4.241  0.00  0.00     0.136 C 
HETATM    2  N   UNK N   1      29.674  18.069   4.208  0.00  0.00    -0.372 N 
ATOM      3  HN  UNK N   1      29.548  18.597   3.344  1.00  0.00     0.161 HD
ENDROOT
BRANCH   1   4
HETATM    4  C   UNK N   1      31.061  16.461   5.470  0.00  0.00     0.181 C 
BRANCH   4   5
HETATM    5  C   UNK N   1      31.627  15.109   5.054  0.00  0.00     0.197 C 
BRANCH   5   6
HETATM    6  O   UNK N   1      32.982  15.229   4.738  0.00  0.00    -0.398 OA
HETATM    7  H   UNK N   1      33.267  15.224   3.810  0.00  0.00     0.209 HD
ENDBRANCH   5   6
ENDBRANCH   4   5
BRANCH   4   8
HETATM    8  N   UNK N   1      32.066  17.166   6.254  0.00  0.00    -0.360 N 
HETATM    9  C   UNK N   1      31.936  17.417   7.517  0.00  0.00     0.113 C 
ATOM     10  HN  UNK N   1      32.915  17.479   5.784  1.00  0.00     0.162 HD
BRANCH   9  11
HETATM   11  C   UNK N   1      33.005  18.163   8.244  0.00  0.00     0.103 C 
BRANCH  11  12
HETATM   12  C   UNK N   1      34.331  17.434   8.119  0.00  0.00     0.129 C 
BRANCH  12  13
HETATM   13  N   UNK N   1      34.280  16.226   8.905  0.00  0.00    -0.373 N 
HETATM   14  C   UNK N   1      34.661  16.201  10.134  0.00  0.00     0.121 C 
ATOM     15  HN  UNK N   1      33.932  15.369   8.475  1.00  0.00     0.161 HD
BRANCH  14  16
HETATM   16  C   UNK N   1      34.564  14.930  10.910  0.00  0.00     0.168 C 
HETATM   17 Br   UNK N   1      36.282  14.039  10.972  0.00  0.00    -0.088 Br
ENDBRANCH  14  16
BRANCH  14  18
HETATM   18  O   UNK N   1      35.118  17.319  10.738  0.00  0.00    -0.349 OA
HETATM   19  H   UNK N   1      35.999  17.354  11.055  0.00  0.00     0.219 HD
ENDBRANCH  14  18
ENDBRANCH  12  13
ENDBRANCH  11  12
ENDBRANCH   9  11
BRANCH   9  20
HETATM   20  O   UNK N   1      30.843  17.008   8.196  0.00  0.00    -0.349 OA
HETATM   21  H   UNK N   1      30.459  16.698   8.993  0.00  0.00     0.219 HD
ENDBRANCH   9  20
ENDBRANCH   4   8
ENDBRANCH   1   4
BRANCH   1  22
HETATM   22  O   UNK N   1      31.439  17.166   3.130  0.00  0.00    -0.348 OA
HETATM   23  H   UNK N   1      31.634  17.908   2.592  0.00  0.00     0.219 HD
ENDBRANCH   1  22
BRANCH   2  24
HETATM   24  C   UNK N   1      28.698  18.308   5.247  0.00  0.00     0.126 C 
BRANCH  24  25
HETATM   25  C   UNK N   1      28.116  19.732   5.091  0.00  0.00     0.058 C 
BRANCH  25  26
HETATM   26  C   UNK N   1      26.733  19.763   4.480  0.00  0.00    -0.057 A 
HETATM   27  C   UNK N   1      26.483  20.398   3.254  0.00  0.00     0.009 A 
HETATM   28  C   UNK N   1      25.186  20.385   2.705  0.00  0.00     0.030 A 
HETATM   29  C   UNK N   1      24.141  19.720   3.370  0.00  0.00     0.034 A 
HETATM   30  C   UNK N   1      24.400  19.122   4.608  0.00  0.00     0.030 A 
HETATM   31  C   UNK N   1      25.670  19.158   5.157  0.00  0.00     0.009 A 
BRANCH  29  32
HETATM   32  N   UNK N   1      22.838  19.670   2.785  0.00  0.00    -0.332 N 
HETATM   33  C   UNK N   1      22.092  20.701   2.535  0.00  0.00     0.216 C 
ATOM     34  HN  UNK N   1      22.466  18.751   2.545  1.00  0.00     0.168 HD
BRANCH  33  35
HETATM   35  C   UNK N   1      20.777  20.526   1.896  0.00  0.00     0.219 C 
HETATM   36  O   UNK N   1      20.027  19.641   2.272  0.00  0.00    -0.643 OA
BRANCH  35  37
HETATM   37  O   UNK N   1      20.393  21.345   0.896  0.00  0.00    -0.770 OA
HETATM   38  H   UNK N   1      20.861  21.345   0.084  0.00  0.00     0.168 HD
ENDBRANCH  35  37
ENDBRANCH  33  35
BRANCH  33  39
HETATM   39  O   UNK N   1      22.481  21.952   2.870  0.00  0.00    -0.341 OA
HETATM   40  H   UNK N   1      22.728  22.562   2.204  0.00  0.00     0.219 HD
ENDBRANCH  33  39
ENDBRANCH  29  32
ENDBRANCH  25  26
ENDBRANCH  24  25
ENDBRANCH   2  24
TORSDOF 18
ENDMDL
MODEL 7
REMARK VINA RESULT:      -6.2      6.594     12.386
REMARK  18 active torsions:
REMARK  status: ('A' for Active; 'I' for Inactive)
REMARK    1  A    between atoms: C_7  and  C_5 
REMARK    2  A    between atoms: C_11  and  C_5 
REMARK    3  A    between atoms: C_8  and  C_6 
REMARK    4  A    between atoms: C_14  and  C_6 
REMARK    5  A    between atoms: N_22  and  C_7 
REMARK    6  A    between atoms: N_20  and  C_8 
REMARK    7  A    between atoms: C_15  and  C_9 
REMARK    8  A    between atoms: C_13  and  C_10 
REMARK    9  A    between atoms: O_28  and  C_10 
REMARK   10  A    between atoms: N_24  and  C_12 
REMARK   11  A    between atoms: C_16  and  C_13 
REMARK   12  A    between atoms: C_13  and  N_26 
REMARK   13  A    between atoms: C_14  and  O_29 
REMARK   14  A    between atoms: O_30  and  C_15 
REMARK   15  A    between atoms: O_31  and  C_16 
REMARK   16  A    between atoms: C_18  and  C_17 
REMARK   17  A    between atoms: O_32  and  C_17 
REMARK   18  A    between atoms: O_33  and  C_18 
ROOT
HETATM    1  C   UNK N   1      21.256  19.900   1.787  0.00  0.00     0.136 C 
HETATM    2  N   UNK N   1      22.490  20.263   1.837  0.00  0.00    -0.372 N 
ATOM      3  HN  UNK N   1      22.934  20.471   0.942  1.00  0.00     0.161 HD
ENDROOT
BRANCH   1   4
HETATM    4  C   UNK N   1      20.463  19.484   3.013  0.00  0.00     0.181 C 
BRANCH   4   5
HETATM    5  C   UNK N   1      18.995  19.303   2.650  0.00  0.00     0.197 C 
BRANCH   5   6
HETATM    6  O   UNK N   1      18.805  18.084   1.995  0.00  0.00    -0.398 OA
HETATM    7  H   UNK N   1      17.931  17.851   1.646  0.00  0.00     0.209 HD
ENDBRANCH   5   6
ENDBRANCH   4   5
BRANCH   4   8
HETATM    8  N   UNK N   1      20.970  18.226   3.545  0.00  0.00    -0.360 N 
HETATM    9  C   UNK N   1      21.268  18.050   4.792  0.00  0.00     0.113 C 
ATOM     10  HN  UNK N   1      21.097  17.444   2.902  1.00  0.00     0.162 HD
BRANCH   9  11
HETATM   11  C   UNK N   1      21.801  16.734   5.253  0.00  0.00     0.103 C 
BRANCH  11  12
HETATM   12  C   UNK N   1      21.933  16.724   6.766  0.00  0.00     0.129 C 
BRANCH  12  13
HETATM   13  N   UNK N   1      20.695  16.264   7.343  0.00  0.00    -0.373 N 
HETATM   14  C   UNK N   1      19.981  17.017   8.105  0.00  0.00     0.121 C 
ATOM     15  HN  UNK N   1      20.376  15.316   7.143  1.00  0.00     0.161 HD
BRANCH  14  16
HETATM   16  C   UNK N   1      18.695  16.500   8.657  0.00  0.00     0.168 C 
HETATM   17 Br   UNK N   1      17.872  17.820   9.811  0.00  0.00    -0.088 Br
ENDBRANCH  14  16
BRANCH  14  18
HETATM   18  O   UNK N   1      20.368  18.281   8.385  0.00  0.00    -0.349 OA
HETATM   19  H   UNK N   1      19.759  18.885   8.760  0.00  0.00     0.219 HD
ENDBRANCH  14  18
ENDBRANCH  12  13
ENDBRANCH  11  12
ENDBRANCH   9  11
BRANCH   9  20
HETATM   20  O   UNK N   1      21.100  19.042   5.692  0.00  0.00    -0.349 OA
HETATM   21  H   UNK N   1      20.666  19.832   5.950  0.00  0.00     0.219 HD
ENDBRANCH   9  20
ENDBRANCH   4   8
ENDBRANCH   1   4
BRANCH   1  22
HETATM   22  O   UNK N   1      20.657  19.877   0.579  0.00  0.00    -0.348 OA
HETATM   23  H   UNK N   1      21.116  19.622  -0.197  0.00  0.00     0.219 HD
ENDBRANCH   1  22
BRANCH   2  24
HETATM   24  C   UNK N   1      23.324  20.413   3.009  0.00  0.00     0.126 C 
BRANCH  24  25
HETATM   25  C   UNK N   1      24.802  20.555   2.578  0.00  0.00     0.058 C 
BRANCH  25  26
HETATM   26  C   UNK N   1      25.786  19.976   3.570  0.00  0.00    -0.057 A 
HETATM   27  C   UNK N   1      27.012  20.601   3.841  0.00  0.00     0.009 A 
HETATM   28  C   UNK N   1      27.892  20.043   4.789  0.00  0.00     0.030 A 
HETATM   29  C   UNK N   1      27.540  18.872   5.482  0.00  0.00     0.034 A 
HETATM   30  C   UNK N   1      26.328  18.244   5.174  0.00  0.00     0.030 A 
HETATM   31  C   UNK N   1      25.477  18.780   4.224  0.00  0.00     0.009 A 
BRANCH  29  32
HETATM   32  N   UNK N   1      28.415  18.338   6.477  0.00  0.00    -0.332 N 
HETATM   33  C   UNK N   1      28.324  18.564   7.751  0.00  0.00     0.216 C 
ATOM     34  HN  UNK N   1      29.172  17.731   6.160  1.00  0.00     0.168 HD
BRANCH  33  35
HETATM   35  C   UNK N   1      29.266  17.928   8.686  0.00  0.00     0.219 C 
HETATM   36  O   UNK N   1      29.990  17.025   8.303  0.00  0.00    -0.643 OA
BRANCH  35  37
HETATM   37  O   UNK N   1      29.337  18.342   9.967  0.00  0.00    -0.770 OA
HETATM   38  H   UNK N   1      29.375  17.714  10.661  0.00  0.00     0.168 HD
ENDBRANCH  35  37
ENDBRANCH  33  35
BRANCH  33  39
HETATM   39  O   UNK N   1      27.386  19.399   8.254  0.00  0.00    -0.341 OA
HETATM   40  H   UNK N   1      27.470  19.730   9.125  0.00  0.00     0.219 HD
ENDBRANCH  33  39
ENDBRANCH  29  32
ENDBRANCH  25  26
ENDBRANCH  24  25
ENDBRANCH   2  24
TORSDOF 18
ENDMDL
MODEL 8
REMARK VINA RESULT:      -6.2      3.526      5.606
REMARK  18 active torsions:
REMARK  status: ('A' for Active; 'I' for Inactive)
REMARK    1  A    between atoms: C_7  and  C_5 
REMARK    2  A    between atoms: C_11  and  C_5 
REMARK    3  A    between atoms: C_8  and  C_6 
REMARK    4  A    between atoms: C_14  and  C_6 
REMARK    5  A    between atoms: N_22  and  C_7 
REMARK    6  A    between atoms: N_20  and  C_8 
REMARK    7  A    between atoms: C_15  and  C_9 
REMARK    8  A    between atoms: C_13  and  C_10 
REMARK    9  A    between atoms: O_28  and  C_10 
REMARK   10  A    between atoms: N_24  and  C_12 
REMARK   11  A    between atoms: C_16  and  C_13 
REMARK   12  A    between atoms: C_13  and  N_26 
REMARK   13  A    between atoms: C_14  and  O_29 
REMARK   14  A    between atoms: O_30  and  C_15 
REMARK   15  A    between atoms: O_31  and  C_16 
REMARK   16  A    between atoms: C_18  and  C_17 
REMARK   17  A    between atoms: O_32  and  C_17 
REMARK   18  A    between atoms: O_33  and  C_18 
ROOT
HETATM    1  C   UNK N   1      36.965  13.360  11.637  0.00  0.00     0.136 C 
HETATM    2  N   UNK N   1      37.242  14.362  10.878  0.00  0.00    -0.372 N 
ATOM      3  HN  UNK N   1      38.199  14.408  10.526  1.00  0.00     0.161 HD
ENDROOT
BRANCH   1   4
HETATM    4  C   UNK N   1      35.615  13.173  12.305  0.00  0.00     0.181 C 
BRANCH   4   5
HETATM    5  C   UNK N   1      34.933  11.921  11.767  0.00  0.00     0.197 C 
BRANCH   5   6
HETATM    6  O   UNK N   1      34.172  11.316  12.770  0.00  0.00    -0.398 OA
HETATM    7  H   UNK N   1      33.309  10.927  12.558  0.00  0.00     0.209 HD
ENDBRANCH   5   6
ENDBRANCH   4   5
BRANCH   4   8
HETATM    8  N   UNK N   1      35.774  13.034  13.747  0.00  0.00    -0.360 N 
HETATM    9  C   UNK N   1      36.317  13.941  14.493  0.00  0.00     0.113 C 
ATOM     10  HN  UNK N   1      35.442  12.178  14.190  1.00  0.00     0.162 HD
BRANCH   9  11
HETATM   11  C   UNK N   1      36.461  13.712  15.961  0.00  0.00     0.103 C 
BRANCH  11  12
HETATM   12  C   UNK N   1      35.134  13.275  16.556  0.00  0.00     0.129 C 
BRANCH  12  13
HETATM   13  N   UNK N   1      35.338  12.074  17.327  0.00  0.00    -0.373 N 
HETATM   14  C   UNK N   1      35.126  10.905  16.831  0.00  0.00     0.121 C 
ATOM     15  HN  UNK N   1      35.659  12.153  18.293  1.00  0.00     0.161 HD
BRANCH  14  16
HETATM   16  C   UNK N   1      35.376   9.693  17.665  0.00  0.00     0.168 C 
HETATM   17 Br   UNK N   1      36.158  10.188  19.366  0.00  0.00    -0.088 Br
ENDBRANCH  14  16
BRANCH  14  18
HETATM   18  O   UNK N   1      34.709  10.762  15.555  0.00  0.00    -0.349 OA
HETATM   19  H   UNK N   1      35.305  10.909  14.847  0.00  0.00     0.219 HD
ENDBRANCH  14  18
ENDBRANCH  12  13
ENDBRANCH  11  12
ENDBRANCH   9  11
BRANCH   9  20
HETATM   20  O   UNK N   1      36.757  15.103  13.964  0.00  0.00    -0.349 OA
HETATM   21  H   UNK N   1      36.857  15.663  13.219  0.00  0.00     0.219 HD
ENDBRANCH   9  20
ENDBRANCH   4   8
ENDBRANCH   1   4
BRANCH   1  22
HETATM   22  O   UNK N   1      37.936  12.449  11.853  0.00  0.00    -0.348 OA
HETATM   23  H   UNK N   1      38.451  12.450  12.637  0.00  0.00     0.219 HD
ENDBRANCH   1  22
BRANCH   2  24
HETATM   24  C   UNK N   1      36.360  15.430  10.463  0.00  0.00     0.126 C 
BRANCH  24  25
HETATM   25  C   UNK N   1      35.693  15.056   9.118  0.00  0.00     0.058 C 
BRANCH  25  26
HETATM   26  C   UNK N   1      34.354  15.723   8.895  0.00  0.00    -0.057 A 
HETATM   27  C   UNK N   1      34.240  17.114   8.749  0.00  0.00     0.009 A 
HETATM   28  C   UNK N   1      32.978  17.696   8.518  0.00  0.00     0.030 A 
HETATM   29  C   UNK N   1      31.832  16.889   8.413  0.00  0.00     0.034 A 
HETATM   30  C   UNK N   1      31.960  15.508   8.596  0.00  0.00     0.030 A 
HETATM   31  C   UNK N   1      33.197  14.941   8.847  0.00  0.00     0.009 A 
BRANCH  29  32
HETATM   32  N   UNK N   1      30.563  17.481   8.132  0.00  0.00    -0.332 N 
HETATM   33  C   UNK N   1      29.711  17.880   9.025  0.00  0.00     0.216 C 
ATOM     34  HN  UNK N   1      30.306  17.599   7.152  1.00  0.00     0.168 HD
BRANCH  33  35
HETATM   35  C   UNK N   1      28.445  18.509   8.613  0.00  0.00     0.219 C 
HETATM   36  O   UNK N   1      28.401  19.188   7.602  0.00  0.00    -0.643 OA
BRANCH  35  37
HETATM   37  O   UNK N   1      27.328  18.335   9.348  0.00  0.00    -0.770 OA
HETATM   38  H   UNK N   1      26.553  18.820   9.144  0.00  0.00     0.168 HD
ENDBRANCH  35  37
ENDBRANCH  33  35
BRANCH  33  39
HETATM   39  O   UNK N   1      29.943  17.712  10.347  0.00  0.00    -0.341 OA
HETATM   40  H   UNK N   1      30.338  16.922  10.658  0.00  0.00     0.219 HD
ENDBRANCH  33  39
ENDBRANCH  29  32
ENDBRANCH  25  26
ENDBRANCH  24  25
ENDBRANCH   2  24
TORSDOF 18
ENDMDL
MODEL 9
REMARK VINA RESULT:      -6.1      6.075     13.300
REMARK  18 active torsions:
REMARK  status: ('A' for Active; 'I' for Inactive)
REMARK    1  A    between atoms: C_7  and  C_5 
REMARK    2  A    between atoms: C_11  and  C_5 
REMARK    3  A    between atoms: C_8  and  C_6 
REMARK    4  A    between atoms: C_14  and  C_6 
REMARK    5  A    between atoms: N_22  and  C_7 
REMARK    6  A    between atoms: N_20  and  C_8 
REMARK    7  A    between atoms: C_15  and  C_9 
REMARK    8  A    between atoms: C_13  and  C_10 
REMARK    9  A    between atoms: O_28  and  C_10 
REMARK   10  A    between atoms: N_24  and  C_12 
REMARK   11  A    between atoms: C_16  and  C_13 
REMARK   12  A    between atoms: C_13  and  N_26 
REMARK   13  A    between atoms: C_14  and  O_29 
REMARK   14  A    between atoms: O_30  and  C_15 
REMARK   15  A    between atoms: O_31  and  C_16 
REMARK   16  A    between atoms: C_18  and  C_17 
REMARK   17  A    between atoms: O_32  and  C_17 
REMARK   18  A    between atoms: O_33  and  C_18 
ROOT
HETATM    1  C   UNK N   1      36.738  13.778  12.491  0.00  0.00     0.136 C 
HETATM    2  N   UNK N   1      36.891  13.528  13.744  0.00  0.00    -0.372 N 
ATOM      3  HN  UNK N   1      37.722  12.993  13.997  1.00  0.00     0.161 HD
ENDROOT
BRANCH   1   4
HETATM    4  C   UNK N   1      35.524  14.498  11.930  0.00  0.00     0.181 C 
BRANCH   4   5
HETATM    5  C   UNK N   1      35.878  15.942  11.600  0.00  0.00     0.197 C 
BRANCH   5   6
HETATM    6  O   UNK N   1      37.063  15.993  10.862  0.00  0.00    -0.398 OA
HETATM    7  H   UNK N   1      37.861  15.551  11.192  0.00  0.00     0.209 HD
ENDBRANCH   5   6
ENDBRANCH   4   5
BRANCH   4   8
HETATM    8  N   UNK N   1      35.059  13.843  10.715  0.00  0.00    -0.360 N 
HETATM    9  C   UNK N   1      33.877  14.019  10.219  0.00  0.00     0.113 C 
ATOM     10  HN  UNK N   1      35.697  13.211  10.231  1.00  0.00     0.162 HD
BRANCH   9  11
HETATM   11  C   UNK N   1      33.471  13.294   8.980  0.00  0.00     0.103 C 
BRANCH  11  12
HETATM   12  C   UNK N   1      34.205  13.860   7.777  0.00  0.00     0.129 C 
BRANCH  12  13
HETATM   13  N   UNK N   1      33.829  15.241   7.603  0.00  0.00    -0.373 N 
HETATM   14  C   UNK N   1      34.413  15.999   6.742  0.00  0.00     0.121 C 
ATOM     15  HN  UNK N   1      33.079  15.627   8.177  1.00  0.00     0.161 HD
BRANCH  14  16
HETATM   16  C   UNK N   1      33.968  17.415   6.584  0.00  0.00     0.168 C 
HETATM   17 Br   UNK N   1      34.382  18.438   8.175  0.00  0.00    -0.088 Br
ENDBRANCH  14  16
BRANCH  14  18
HETATM   18  O   UNK N   1      35.403  15.519   5.959  0.00  0.00    -0.349 OA
HETATM   19  H   UNK N   1      36.015  16.108   5.563  0.00  0.00     0.219 HD
ENDBRANCH  14  18
ENDBRANCH  12  13
ENDBRANCH  11  12
ENDBRANCH   9  11
BRANCH   9  20
HETATM   20  O   UNK N   1      32.997  14.859  10.806  0.00  0.00    -0.349 OA
HETATM   21  H   UNK N   1      32.109  15.094  10.993  0.00  0.00     0.219 HD
ENDBRANCH   9  20
ENDBRANCH   4   8
ENDBRANCH   1   4
BRANCH   1  22
HETATM   22  O   UNK N   1      37.702  13.361  11.645  0.00  0.00    -0.348 OA
HETATM   23  H   UNK N   1      37.829  12.454  11.447  0.00  0.00     0.219 HD
ENDBRANCH   1  22
BRANCH   2  24
HETATM   24  C   UNK N   1      36.027  13.914  14.837  0.00  0.00     0.126 C 
BRANCH  24  25
HETATM   25  C   UNK N   1      35.039  12.765  15.146  0.00  0.00     0.058 C 
BRANCH  25  26
HETATM   26  C   UNK N   1      35.155  12.222  16.553  0.00  0.00    -0.057 A 
HETATM   27  C   UNK N   1      35.350  10.854  16.800  0.00  0.00     0.009 A 
HETATM   28  C   UNK N   1      35.477  10.390  18.124  0.00  0.00     0.030 A 
HETATM   29  C   UNK N   1      35.429  11.292  19.201  0.00  0.00     0.034 A 
HETATM   30  C   UNK N   1      35.200  12.647  18.937  0.00  0.00     0.030 A 
HETATM   31  C   UNK N   1      35.050  13.097  17.637  0.00  0.00     0.009 A 
BRANCH  29  32
HETATM   32  N   UNK N   1      35.606  10.821  20.538  0.00  0.00    -0.332 N 
HETATM   33  C   UNK N   1      34.772  10.062  21.179  0.00  0.00     0.216 C 
ATOM     34  HN  UNK N   1      36.456  11.103  21.028  1.00  0.00     0.168 HD
BRANCH  33  35
HETATM   35  C   UNK N   1      35.080   9.610  22.546  0.00  0.00     0.219 C 
HETATM   36  O   UNK N   1      34.293   8.898  23.145  0.00  0.00    -0.643 OA
BRANCH  35  37
HETATM   37  O   UNK N   1      36.234   9.977  23.139  0.00  0.00    -0.770 OA
HETATM   38  H   UNK N   1      36.221  10.352  23.998  0.00  0.00     0.168 HD
ENDBRANCH  35  37
ENDBRANCH  33  35
BRANCH  33  39
HETATM   39  O   UNK N   1      33.595   9.685  20.628  0.00  0.00    -0.341 OA
HETATM   40  H   UNK N   1      33.494   9.671  19.698  0.00  0.00     0.219 HD
ENDBRANCH  33  39
ENDBRANCH  29  32
ENDBRANCH  25  26
ENDBRANCH  24  25
ENDBRANCH   2  24
TORSDOF 18
ENDMDL
