REMARK  3 active torsions:
REMARK  status: ('A' for Active; 'I' for Inactive)
REMARK    1  A    between atoms: C_2  and  C_3 
REMARK    2  A    between atoms: C_3  and  C_4 
REMARK    3  A    between atoms: C_9  and  N_10 
ROOT
HETATM    1  C   UNK N   1       1.532   0.750   0.000  0.00  0.00    -0.032 A 
HETATM    2  C   UNK N   1       1.524  -0.651  -0.000  0.00  0.00     0.009 A 
HETATM    3  C   UNK N   1       0.323  -1.363  -0.000  0.00  0.00     0.001 A 
HETATM    4  C   UNK N   1      -0.892  -0.680  -0.000  0.00  0.00     0.002 A 
HETATM    5  C   UNK N   1      -0.908   0.714   0.000  0.00  0.00     0.029 A 
HETATM    6  C   UNK N   1       0.286   1.440   0.000  0.00  0.00     0.032 A 
ENDROOT
BRANCH   1   7
HETATM    7  C   UNK N   1       2.891   1.412   0.000  0.00  0.00     0.040 C 
BRANCH   7   8
HETATM    8  C   UNK N   1       2.911   2.931  -0.000  0.00  0.00     0.000 C 
HETATM    9  C   UNK N   1       4.336   3.435   0.000  0.00  0.00     0.005 C 
ENDBRANCH   7   8
ENDBRANCH   1   7
BRANCH   6  10
HETATM   10  N   UNK N   1       0.209   2.847   0.000  0.00  0.00    -0.399 N 
HETATM   11  H   UNK N   1       1.034   3.385   0.000  0.00  0.00     0.156 HD
HETATM   12  H   UNK N   1      -0.669   3.292   0.000  0.00  0.00     0.156 HD
ENDBRANCH   6  10
TORSDOF 3
