REMARK  17 active torsions:
REMARK  status: ('A' for Active; 'I' for Inactive)
REMARK    1  A    between atoms: C_11  and  C_8 
REMARK    2  A    between atoms: C_16  and  C_8 
REMARK    3  A    between atoms: C_13  and  C_9 
REMARK    4  A    between atoms: C_17  and  C_9 
REMARK    5  A    between atoms: C_21  and  C_16 
REMARK    6  A    between atoms: C_16  and  N_27 
REMARK    7  A    between atoms: C_22  and  C_17 
REMARK    8  A    between atoms: C_17  and  N_25 
REMARK    9  A    between atoms: C_18  and  O_28 
REMARK   10  A    between atoms: C_19  and  O_29 
REMARK   11  A    between atoms: C_20  and  O_30 
REMARK   12  A    between atoms: C_21  and  O_31 
REMARK   13  A    between atoms: O_33  and  C_22 
REMARK   14  A    between atoms: C_23  and  O_37 
REMARK   15  A    between atoms: P_38  and  N_27 
REMARK   16  A    between atoms: P_38  and  O_34 
REMARK   17  A    between atoms: P_38  and  O_37 
ROOT
HETATM    1  C   UNK N   1      -0.954  -2.052   1.000  0.00  0.00     0.162 C 
ENDROOT
BRANCH   1   2
HETATM    2  C   UNK N   1       0.580  -2.103   1.010  0.00  0.00     0.037 C 
BRANCH   2   3
HETATM    3  C   UNK N   1       1.166  -3.505   1.005  0.00  0.00    -0.020 C 
HETATM    4  C   UNK N   1       2.293  -3.541   2.014  0.00  0.00     0.009 C 
HETATM    5  C   UNK N   1       1.749  -3.831  -0.352  0.00  0.00     0.009 C 
ENDBRANCH   2   3
ENDBRANCH   1   2
BRANCH   1   6
HETATM    6  C   UNK N   1      -1.420  -0.828   1.760  0.00  0.00     0.135 C 
HETATM    7  N   UNK N   1      -1.091   0.386   1.444  0.00  0.00    -0.358 N 
ATOM      8  HN  UNK N   1      -1.467   1.126   2.037  1.00  0.00     0.162 HD
BRANCH   7   9
HETATM    9  C   UNK N   1      -0.246   0.811   0.339  0.00  0.00     0.185 C 
BRANCH   9  10
HETATM   10  C   UNK N   1       1.149   1.053   0.940  0.00  0.00     0.076 C 
BRANCH  10  11
HETATM   11  C   UNK N   1       1.959   2.200   0.437  0.00  0.00    -0.028 A 
HETATM   12  C   UNK N   1       1.700   3.547   0.669  0.00  0.00     0.096 A 
HETATM   13  N   UNK N   1       2.683   4.299   0.118  0.00  0.00    -0.365 N 
HETATM   14  C   UNK N   1       3.549   3.431  -0.442  0.00  0.00     0.042 A 
HETATM   15  H   UNK N   1       2.752   5.281   0.125  0.00  0.00     0.165 HD
HETATM   16  C   UNK N   1       4.727   3.741  -1.109  0.00  0.00     0.030 A 
HETATM   17  C   UNK N   1       3.134   2.143  -0.263  0.00  0.00    -0.002 A 
HETATM   18  C   UNK N   1       5.496   2.673  -1.609  0.00  0.00     0.002 A 
HETATM   19  C   UNK N   1       5.069   1.337  -1.426  0.00  0.00     0.001 A 
HETATM   20  C   UNK N   1       3.871   1.059  -0.741  0.00  0.00     0.014 A 
ENDBRANCH  10  11
ENDBRANCH   9  10
BRANCH   9  21
HETATM   21  C   UNK N   1      -0.867   2.003  -0.357  0.00  0.00     0.163 C 
HETATM   22  O   UNK N   1      -1.913   2.487   0.047  0.00  0.00    -0.648 OA
BRANCH  21  23
HETATM   23  O   UNK N   1      -0.285   2.513  -1.461  0.00  0.00    -0.775 OA
HETATM   24  H   UNK N   1       0.224   2.340  -2.228  0.00  0.00     0.167 HD
ENDBRANCH  21  23
ENDBRANCH   9  21
ENDBRANCH   7   9
BRANCH   6  25
HETATM   25  O   UNK N   1      -2.201  -1.014   2.842  0.00  0.00    -0.348 OA
HETATM   26  H   UNK N   1      -2.584  -0.609   3.595  0.00  0.00     0.219 HD
ENDBRANCH   6  25
ENDBRANCH   1   6
BRANCH   1  27
HETATM   27  N   UNK N   1      -1.502  -1.998  -0.357  0.00  0.00    -0.321 N 
HETATM   28  H   UNK N   1      -1.651  -1.130  -0.872  0.00  0.00     0.165 HD
BRANCH  27  29
HETATM   29  P   UNK N   1      -1.883  -3.631  -1.020  0.00  0.00     0.348 P 
HETATM   30  O   UNK N   1      -0.631  -4.101  -1.801  0.00  0.00    -0.637 OA
BRANCH  29  31
HETATM   31  O   UNK N   1      -3.137  -3.479  -2.212  0.00  0.00    -0.313 OA
HETATM   32  H   UNK N   1      -3.414  -2.830  -2.878  0.00  0.00     0.221 HD
ENDBRANCH  29  31
BRANCH  29  33
HETATM   33  O   UNK N   1      -2.203  -4.811   0.252  0.00  0.00    -0.268 OA
BRANCH  33  34
HETATM   34  C   UNK N   1      -3.586  -4.918   0.534  0.00  0.00     0.302 C 
HETATM   35  C   UNK N   1      -4.224  -5.932  -0.438  0.00  0.00     0.205 C 
HETATM   36  C   UNK N   1      -5.736  -6.086  -0.215  0.00  0.00     0.183 C 
HETATM   37  C   UNK N   1      -6.348  -4.805   0.386  0.00  0.00     0.178 C 
HETATM   38  C   UNK N   1      -5.522  -3.565   0.010  0.00  0.00     0.152 C 
HETATM   39  C   UNK N   1      -6.187  -2.321   0.576  0.00  0.00     0.042 C 
HETATM   40  O   UNK N   1      -4.206  -3.625   0.555  0.00  0.00    -0.350 OA
BRANCH  35  41
HETATM   41  O   UNK N   1      -3.593  -7.177  -0.361  0.00  0.00    -0.388 OA
HETATM   42  H   UNK N   1      -4.122  -7.988  -0.308  0.00  0.00     0.210 HD
ENDBRANCH  35  41
BRANCH  36  43
HETATM   43  O   UNK N   1      -6.321  -6.396  -1.448  0.00  0.00    -0.390 OA
HETATM   44  H   UNK N   1      -6.710  -6.151  -2.303  0.00  0.00     0.210 HD
ENDBRANCH  36  43
BRANCH  37  45
HETATM   45  O   UNK N   1      -7.689  -4.677   0.007  0.00  0.00    -0.390 OA
HETATM   46  H   UNK N   1      -8.076  -3.828  -0.256  0.00  0.00     0.210 HD
ENDBRANCH  37  45
ENDBRANCH  33  34
ENDBRANCH  29  33
ENDBRANCH  27  29
ENDBRANCH   1  27
TORSDOF 17
