MODEL 1
REMARK VINA RESULT:      -8.3      0.000      0.000
REMARK  7 active torsions:
REMARK  status: ('A' for Active; 'I' for Inactive)
REMARK    1  A    between atoms: C_21  and  C_7 
REMARK    2  A    between atoms: C_22  and  C_8 
REMARK    3  A    between atoms: C_12  and  C_10 
REMARK    4  A    between atoms: C_24  and  C_10 
REMARK    5  A    between atoms: C_34  and  C_12 
REMARK    6  A    between atoms: O_40  and  C_33 
REMARK    7  A    between atoms: O_42  and  C_34 
ROOT
HETATM    1  C   UNK N   1      25.698  11.806   1.116  0.00  0.00     0.052 C 
HETATM    2  C   UNK N   1      23.993  18.950   4.044  0.00  0.00     0.052 C 
HETATM    3  C   UNK N   1      29.383  14.207   1.594  0.00  0.00     0.046 C 
HETATM    4  C   UNK N   1      30.596  18.933   8.496  0.00  0.00     0.046 C 
HETATM    5  C   UNK N   1      30.630  16.067   3.753  0.00  0.00     0.051 C 
HETATM    6  C   UNK N   1      29.188  16.610   4.304  0.00  0.00     0.114 A 
HETATM    7  C   UNK N   1      28.155  12.140   3.377  0.00  0.00     0.031 C 
HETATM    8  C   UNK N   1      25.396  16.321   3.238  0.00  0.00     0.064 C 
HETATM    9  C   UNK N   1      28.575  18.476   6.107  0.00  0.00     0.064 A 
HETATM   10  C   UNK N   1      31.259  14.298   6.268  0.00  0.00     0.053 C 
HETATM   11  C   UNK N   1      25.994  12.932   2.036  0.00  0.00    -0.021 A 
HETATM   12  C   UNK N   1      25.402  18.540   4.282  0.00  0.00    -0.021 A 
HETATM   13  C   UNK N   1      29.848  13.796   2.950  0.00  0.00    -0.053 C 
HETATM   14  C   UNK N   1      30.730  17.803   7.537  0.00  0.00    -0.045 C 
HETATM   15  C   UNK N   1      25.312  14.160   2.076  0.00  0.00     0.000 A 
HETATM   16  C   UNK N   1      26.364  19.181   5.110  0.00  0.00     0.000 A 
HETATM   17  C   UNK N   1      30.616  14.587   3.845  0.00  0.00    -0.031 C 
HETATM   18  C   UNK N   1      31.709  16.790   7.471  0.00  0.00     0.069 C 
HETATM   19  C   UNK N   1      27.050  13.033   2.960  0.00  0.00     0.062 A 
HETATM   20  C   UNK N   1      29.341  12.737   3.691  0.00  0.00     0.135 C 
HETATM   21  C   UNK N   1      25.935  17.320   3.896  0.00  0.00     0.066 A 
HETATM   22  C   UNK N   1      29.842  17.527   6.601  0.00  0.00     0.062 A 
HETATM   23  C   UNK N   1      25.954  14.929   2.981  0.00  0.00     0.070 A 
HETATM   24  C   UNK N   1      27.428  18.323   5.197  0.00  0.00     0.070 A 
HETATM   25  C   UNK N   1      30.725  13.877   5.033  0.00  0.00     0.035 C 
HETATM   26  C   UNK N   1      31.140  15.717   6.721  0.00  0.00     0.045 C 
HETATM   27  C   UNK N   1      27.855  15.942   6.136  0.00  0.00     0.139 A 
HETATM   28 Fe   UNK N   1      28.436  14.961   4.692  0.00  0.00     0.000 Fe
HETATM   29  N   UNK N   1      27.033  14.247   3.485  0.00  0.00    -0.248 N 
HETATM   30  N   UNK N   1      27.073  17.174   4.452  0.00  0.00    -0.248 N 
HETATM   31  N   UNK N   1      29.601  13.155   4.923  0.00  0.00    -0.197 NA
HETATM   32  N   UNK N   1      30.081  16.180   6.253  0.00  0.00    -0.253 N 
HETATM   33  O   UNK N   1      26.808  15.331   5.909  0.00  0.00    -0.650 OA
ENDROOT
BRANCH  18  34
HETATM   34  C   UNK N   1      32.954  17.421   6.934  0.00  0.00     0.025 C 
BRANCH  34  35
HETATM   35  C   UNK N   1      34.258  16.955   7.427  0.00  0.00     0.111 C 
BRANCH  35  36
HETATM   36  C   UNK N   1      34.576  17.838   8.553  0.00  0.00     0.139 C 
HETATM   37  O   UNK N   1      34.953  18.986   8.360  0.00  0.00    -0.650 OA
BRANCH  36  38
HETATM   38  O   UNK N   1      34.304  17.408   9.790  0.00  0.00    -0.776 OA
HETATM   39  H   UNK N   1      34.125  16.658  10.321  0.00  0.00     0.167 HD
ENDBRANCH  36  38
ENDBRANCH  35  36
ENDBRANCH  34  35
ENDBRANCH  18  34
BRANCH  27  40
HETATM   40  O   UNK N   1      28.082  16.093   7.474  0.00  0.00    -0.776 OA
HETATM   41  H   UNK N   1      28.477  16.769   7.989  0.00  0.00     0.167 HD
ENDBRANCH  27  40
BRANCH  16  42
HETATM   42  C   UNK N   1      26.222  20.364   5.970  0.00  0.00     0.004 C 
HETATM   43  C   UNK N   1      26.863  21.496   5.693  0.00  0.00     0.012 C 
ENDBRANCH  16  42
BRANCH  15  44
HETATM   44  C   UNK N   1      24.162  14.760   1.350  0.00  0.00     0.004 C 
HETATM   45  C   UNK N   1      22.977  14.227   1.135  0.00  0.00     0.012 C 
ENDBRANCH  15  44
TORSDOF 7
ENDMDL
MODEL 2
REMARK VINA RESULT:      -8.2      3.767      8.247
REMARK  7 active torsions:
REMARK  status: ('A' for Active; 'I' for Inactive)
REMARK    1  A    between atoms: C_21  and  C_7 
REMARK    2  A    between atoms: C_22  and  C_8 
REMARK    3  A    between atoms: C_12  and  C_10 
REMARK    4  A    between atoms: C_24  and  C_10 
REMARK    5  A    between atoms: C_34  and  C_12 
REMARK    6  A    between atoms: O_40  and  C_33 
REMARK    7  A    between atoms: O_42  and  C_34 
ROOT
HETATM    1  C   UNK N   1      37.092  11.800   2.075  0.00  0.00     0.052 C 
HETATM    2  C   UNK N   1      37.230  13.622   9.768  0.00  0.00     0.052 C 
HETATM    3  C   UNK N   1      32.978  12.124   3.666  0.00  0.00     0.046 C 
HETATM    4  C   UNK N   1      30.877  18.358   8.974  0.00  0.00     0.046 C 
HETATM    5  C   UNK N   1      31.390  14.065   5.508  0.00  0.00     0.051 C 
HETATM    6  C   UNK N   1      32.687  14.462   6.424  0.00  0.00     0.114 A 
HETATM    7  C   UNK N   1      34.665  14.113   2.197  0.00  0.00     0.031 C 
HETATM    8  C   UNK N   1      36.429  13.259   6.808  0.00  0.00     0.064 C 
HETATM    9  C   UNK N   1      32.905  15.957   8.621  0.00  0.00     0.064 A 
HETATM   10  C   UNK N   1      31.214  16.829   4.031  0.00  0.00     0.053 C 
HETATM   11  C   UNK N   1      36.572  12.569   3.233  0.00  0.00    -0.021 A 
HETATM   12  C   UNK N   1      35.951  13.985   9.102  0.00  0.00    -0.021 A 
HETATM   13  C   UNK N   1      32.640  13.545   3.367  0.00  0.00    -0.053 C 
HETATM   14  C   UNK N   1      30.978  17.572   7.714  0.00  0.00    -0.045 C 
HETATM   15  C   UNK N   1      36.966  12.405   4.571  0.00  0.00     0.000 A 
HETATM   16  C   UNK N   1      34.886  14.763   9.634  0.00  0.00     0.000 A 
HETATM   17  C   UNK N   1      31.733  14.360   4.096  0.00  0.00    -0.031 C 
HETATM   18  C   UNK N   1      30.247  17.696   6.515  0.00  0.00     0.069 C 
HETATM   19  C   UNK N   1      35.537  13.522   3.237  0.00  0.00     0.062 A 
HETATM   20  C   UNK N   1      33.382  14.400   2.563  0.00  0.00     0.135 C 
HETATM   21  C   UNK N   1      35.694  13.798   7.752  0.00  0.00     0.066 A 
HETATM   22  C   UNK N   1      31.888  16.641   7.503  0.00  0.00     0.062 A 
HETATM   23  C   UNK N   1      36.187  13.225   5.307  0.00  0.00     0.070 A 
HETATM   24  C   UNK N   1      34.040  15.021   8.588  0.00  0.00     0.070 A 
HETATM   25  C   UNK N   1      31.805  15.638   3.560  0.00  0.00     0.035 C 
HETATM   26  C   UNK N   1      31.024  17.075   5.492  0.00  0.00     0.045 C 
HETATM   27  C   UNK N   1      34.168  16.300   6.334  0.00  0.00     0.139 A 
HETATM   28 Fe   UNK N   1      33.791  15.038   5.051  0.00  0.00     0.000 Fe
HETATM   29  N   UNK N   1      35.295  13.872   4.489  0.00  0.00    -0.248 N 
HETATM   30  N   UNK N   1      34.627  14.426   7.447  0.00  0.00    -0.248 N 
HETATM   31  N   UNK N   1      33.059  15.573   3.090  0.00  0.00    -0.197 NA
HETATM   32  N   UNK N   1      31.946  16.495   6.100  0.00  0.00    -0.253 N 
HETATM   33  O   UNK N   1      35.319  16.108   5.938  0.00  0.00    -0.650 OA
ENDROOT
BRANCH  18  34
HETATM   34  C   UNK N   1      28.883  17.140   6.777  0.00  0.00     0.025 C 
BRANCH  34  35
HETATM   35  C   UNK N   1      27.708  17.877   6.291  0.00  0.00     0.111 C 
BRANCH  35  36
HETATM   36  C   UNK N   1      27.709  19.133   7.046  0.00  0.00     0.139 C 
HETATM   37  O   UNK N   1      27.751  20.210   6.468  0.00  0.00    -0.650 OA
BRANCH  36  38
HETATM   38  O   UNK N   1      27.516  19.076   8.368  0.00  0.00    -0.776 OA
HETATM   39  H   UNK N   1      27.117  18.596   9.067  0.00  0.00     0.167 HD
ENDBRANCH  36  38
ENDBRANCH  35  36
ENDBRANCH  34  35
ENDBRANCH  18  34
BRANCH  27  40
HETATM   40  O   UNK N   1      33.937  17.615   6.627  0.00  0.00    -0.776 OA
HETATM   41  H   UNK N   1      34.168  18.165   7.349  0.00  0.00     0.167 HD
ENDBRANCH  27  40
BRANCH  16  42
HETATM   42  C   UNK N   1      34.779  15.443  10.932  0.00  0.00     0.004 C 
HETATM   43  C   UNK N   1      35.442  16.570  11.174  0.00  0.00     0.012 C 
ENDBRANCH  16  42
BRANCH  15  44
HETATM   44  C   UNK N   1      37.942  11.546   5.293  0.00  0.00     0.004 C 
HETATM   45  C   UNK N   1      39.255  11.645   5.298  0.00  0.00     0.012 C 
ENDBRANCH  15  44
TORSDOF 7
ENDMDL
MODEL 3
REMARK VINA RESULT:      -8.2      2.211      6.712
REMARK  7 active torsions:
REMARK  status: ('A' for Active; 'I' for Inactive)
REMARK    1  A    between atoms: C_21  and  C_7 
REMARK    2  A    between atoms: C_22  and  C_8 
REMARK    3  A    between atoms: C_12  and  C_10 
REMARK    4  A    between atoms: C_24  and  C_10 
REMARK    5  A    between atoms: C_34  and  C_12 
REMARK    6  A    between atoms: O_40  and  C_33 
REMARK    7  A    between atoms: O_42  and  C_34 
ROOT
HETATM    1  C   UNK N   1      31.758  10.965   2.646  0.00  0.00     0.052 C 
HETATM    2  C   UNK N   1      32.595  16.418   8.310  0.00  0.00     0.052 C 
HETATM    3  C   UNK N   1      27.810  12.164   4.240  0.00  0.00     0.046 C 
HETATM    4  C   UNK N   1      26.082  20.282   5.844  0.00  0.00     0.046 C 
HETATM    5  C   UNK N   1      26.362  14.813   4.991  0.00  0.00     0.051 C 
HETATM    6  C   UNK N   1      27.730  15.582   5.452  0.00  0.00     0.114 A 
HETATM    7  C   UNK N   1      29.299  13.090   1.814  0.00  0.00     0.031 C 
HETATM    8  C   UNK N   1      31.520  14.633   6.032  0.00  0.00     0.064 C 
HETATM    9  C   UNK N   1      28.124  17.975   6.560  0.00  0.00     0.064 A 
HETATM   10  C   UNK N   1      25.977  16.457   2.345  0.00  0.00     0.053 C 
HETATM   11  C   UNK N   1      31.334  12.228   3.300  0.00  0.00    -0.021 A 
HETATM   12  C   UNK N   1      31.249  16.431   7.678  0.00  0.00    -0.021 A 
HETATM   13  C   UNK N   1      27.410  13.249   3.297  0.00  0.00    -0.053 C 
HETATM   14  C   UNK N   1      26.080  18.965   5.150  0.00  0.00    -0.045 C 
HETATM   15  C   UNK N   1      31.859  12.751   4.493  0.00  0.00     0.000 A 
HETATM   16  C   UNK N   1      30.222  17.401   7.843  0.00  0.00     0.000 A 
HETATM   17  C   UNK N   1      26.559  14.345   3.598  0.00  0.00    -0.031 C 
HETATM   18  C   UNK N   1      25.233  18.486   4.129  0.00  0.00     0.069 C 
HETATM   19  C   UNK N   1      30.282  13.081   2.921  0.00  0.00     0.062 A 
HETATM   20  C   UNK N   1      28.050  13.559   2.105  0.00  0.00     0.135 C 
HETATM   21  C   UNK N   1      30.867  15.596   6.639  0.00  0.00     0.066 A 
HETATM   22  C   UNK N   1      26.987  18.029   5.353  0.00  0.00     0.062 A 
HETATM   23  C   UNK N   1      31.135  13.852   4.784  0.00  0.00     0.070 A 
HETATM   24  C   UNK N   1      29.273  17.119   6.896  0.00  0.00     0.070 A 
HETATM   25  C   UNK N   1      26.548  15.175   2.485  0.00  0.00     0.035 C 
HETATM   26  C   UNK N   1      25.923  17.412   3.492  0.00  0.00     0.045 C 
HETATM   27  C   UNK N   1      29.151  17.081   4.305  0.00  0.00     0.139 A 
HETATM   28 Fe   UNK N   1      28.683  15.354   3.878  0.00  0.00     0.000 Fe
HETATM   29  N   UNK N   1      30.153  14.022   3.841  0.00  0.00    -0.248 N 
HETATM   30  N   UNK N   1      29.761  16.013   6.163  0.00  0.00    -0.248 N 
HETATM   31  N   UNK N   1      27.751  14.846   1.995  0.00  0.00    -0.197 NA
HETATM   32  N   UNK N   1      26.913  17.193   4.218  0.00  0.00    -0.253 N 
HETATM   33  O   UNK N   1      30.263  16.682   3.952  0.00  0.00    -0.650 OA
ENDROOT
BRANCH  18  34
HETATM   34  C   UNK N   1      23.915  18.177   4.765  0.00  0.00     0.025 C 
BRANCH  34  35
HETATM   35  C   UNK N   1      22.739  17.977   3.905  0.00  0.00     0.111 C 
BRANCH  35  36
HETATM   36  C   UNK N   1      22.019  19.253   3.945  0.00  0.00     0.139 C 
HETATM   37  O   UNK N   1      21.087  19.422   4.718  0.00  0.00    -0.650 OA
BRANCH  36  38
HETATM   38  O   UNK N   1      22.498  20.271   3.222  0.00  0.00    -0.776 OA
HETATM   39  H   UNK N   1      23.229  20.842   3.086  0.00  0.00     0.167 HD
ENDBRANCH  36  38
ENDBRANCH  35  36
ENDBRANCH  34  35
ENDBRANCH  18  34
BRANCH  27  40
HETATM   40  O   UNK N   1      28.918  18.369   3.913  0.00  0.00    -0.776 OA
HETATM   41  H   UNK N   1      28.187  18.947   4.001  0.00  0.00     0.167 HD
ENDBRANCH  27  40
BRANCH  16  42
HETATM   42  C   UNK N   1      30.224  18.646   8.623  0.00  0.00     0.004 C 
HETATM   43  C   UNK N   1      29.720  18.687   9.852  0.00  0.00     0.012 C 
ENDBRANCH  16  42
BRANCH  15  44
HETATM   44  C   UNK N   1      32.921  12.347   5.453  0.00  0.00     0.004 C 
HETATM   45  C   UNK N   1      33.036  11.202   6.093  0.00  0.00     0.012 C 
ENDBRANCH  15  44
TORSDOF 7
ENDMDL
MODEL 4
REMARK VINA RESULT:      -8.0      5.379      9.306
REMARK  7 active torsions:
REMARK  status: ('A' for Active; 'I' for Inactive)
REMARK    1  A    between atoms: C_21  and  C_7 
REMARK    2  A    between atoms: C_22  and  C_8 
REMARK    3  A    between atoms: C_12  and  C_10 
REMARK    4  A    between atoms: C_24  and  C_10 
REMARK    5  A    between atoms: C_34  and  C_12 
REMARK    6  A    between atoms: O_40  and  C_33 
REMARK    7  A    between atoms: O_42  and  C_34 
ROOT
HETATM    1  C   UNK N   1      32.426  17.567   3.719  0.00  0.00     0.052 C 
HETATM    2  C   UNK N   1      35.156  10.192   4.544  0.00  0.00     0.052 C 
HETATM    3  C   UNK N   1      31.734  16.109   7.837  0.00  0.00     0.046 C 
HETATM    4  C   UNK N   1      37.698  11.736  11.932  0.00  0.00     0.046 C 
HETATM    5  C   UNK N   1      33.342  14.577  10.015  0.00  0.00     0.051 C 
HETATM    6  C   UNK N   1      34.211  13.700   8.941  0.00  0.00     0.114 A 
HETATM    7  C   UNK N   1      33.928  17.805   6.710  0.00  0.00     0.031 C 
HETATM    8  C   UNK N   1      34.208  13.089   5.039  0.00  0.00     0.064 C 
HETATM    9  C   UNK N   1      35.967  11.723   9.285  0.00  0.00     0.064 A 
HETATM   10  C   UNK N   1      35.728  16.418  10.891  0.00  0.00     0.053 C 
HETATM   11  C   UNK N   1      33.148  16.534   4.502  0.00  0.00    -0.021 A 
HETATM   12  C   UNK N   1      35.044  10.925   5.834  0.00  0.00    -0.021 A 
HETATM   13  C   UNK N   1      32.946  16.605   8.551  0.00  0.00    -0.053 C 
HETATM   14  C   UNK N   1      36.824  12.876  11.539  0.00  0.00    -0.045 C 
HETATM   15  C   UNK N   1      33.275  15.180   4.154  0.00  0.00     0.000 A 
HETATM   16  C   UNK N   1      35.538  10.522   7.105  0.00  0.00     0.000 A 
HETATM   17  C   UNK N   1      33.546  16.010   9.692  0.00  0.00    -0.031 C 
HETATM   18  C   UNK N   1      36.579  14.094  12.206  0.00  0.00     0.069 C 
HETATM   19  C   UNK N   1      33.751  16.679   5.765  0.00  0.00     0.062 A 
HETATM   20  C   UNK N   1      33.872  17.504   8.040  0.00  0.00     0.135 C 
HETATM   21  C   UNK N   1      34.623  12.240   5.950  0.00  0.00     0.066 A 
HETATM   22  C   UNK N   1      36.179  12.942  10.390  0.00  0.00     0.062 A 
HETATM   23  C   UNK N   1      33.918  14.576   5.175  0.00  0.00     0.070 A 
HETATM   24  C   UNK N   1      35.406  11.608   7.929  0.00  0.00     0.070 A 
HETATM   25  C   UNK N   1      34.712  16.713   9.959  0.00  0.00     0.035 C 
HETATM   26  C   UNK N   1      36.089  15.008  11.226  0.00  0.00     0.045 C 
HETATM   27  C   UNK N   1      36.375  14.012   8.046  0.00  0.00     0.139 A 
HETATM   28 Fe   UNK N   1      34.907  15.119   7.971  0.00  0.00     0.000 Fe
HETATM   29  N   UNK N   1      34.169  15.490   6.168  0.00  0.00    -0.248 N 
HETATM   30  N   UNK N   1      34.870  12.647   7.133  0.00  0.00    -0.248 N 
HETATM   31  N   UNK N   1      34.957  17.147   8.715  0.00  0.00    -0.197 NA
HETATM   32  N   UNK N   1      35.883  14.311  10.213  0.00  0.00    -0.253 N 
HETATM   33  O   UNK N   1      36.478  14.359   6.867  0.00  0.00    -0.650 OA
ENDROOT
BRANCH  18  34
HETATM   34  C   UNK N   1      35.687  13.783  13.366  0.00  0.00     0.025 C 
BRANCH  34  35
HETATM   35  C   UNK N   1      36.287  13.587  14.693  0.00  0.00     0.111 C 
BRANCH  35  36
HETATM   36  C   UNK N   1      35.191  13.105  15.538  0.00  0.00     0.139 C 
HETATM   37  O   UNK N   1      35.174  13.343  16.737  0.00  0.00    -0.650 OA
BRANCH  36  38
HETATM   38  O   UNK N   1      34.142  12.527  14.944  0.00  0.00    -0.776 OA
HETATM   39  H   UNK N   1      33.785  12.234  14.128  0.00  0.00     0.167 HD
ENDBRANCH  36  38
ENDBRANCH  35  36
ENDBRANCH  34  35
ENDBRANCH  18  34
BRANCH  27  40
HETATM   40  O   UNK N   1      37.591  13.906   8.659  0.00  0.00    -0.776 OA
HETATM   41  H   UNK N   1      37.871  13.971   9.550  0.00  0.00     0.167 HD
ENDBRANCH  27  40
BRANCH  16  42
HETATM   42  C   UNK N   1      36.314   9.331   7.475  0.00  0.00     0.004 C 
HETATM   43  C   UNK N   1      35.710   8.199   7.827  0.00  0.00     0.012 C 
ENDBRANCH  16  42
BRANCH  15  44
HETATM   44  C   UNK N   1      32.834  14.330   3.015  0.00  0.00     0.004 C 
HETATM   45  C   UNK N   1      31.604  13.988   2.693  0.00  0.00     0.012 C 
ENDBRANCH  15  44
TORSDOF 7
ENDMDL
MODEL 5
REMARK VINA RESULT:      -7.9      2.161      5.251
REMARK  7 active torsions:
REMARK  status: ('A' for Active; 'I' for Inactive)
REMARK    1  A    between atoms: C_21  and  C_7 
REMARK    2  A    between atoms: C_22  and  C_8 
REMARK    3  A    between atoms: C_12  and  C_10 
REMARK    4  A    between atoms: C_24  and  C_10 
REMARK    5  A    between atoms: C_34  and  C_12 
REMARK    6  A    between atoms: O_40  and  C_33 
REMARK    7  A    between atoms: O_42  and  C_34 
ROOT
HETATM    1  C   UNK N   1      22.044  14.548   1.652  0.00  0.00     0.052 C 
HETATM    2  C   UNK N   1      29.071  10.986   0.978  0.00  0.00     0.052 C 
HETATM    3  C   UNK N   1      24.224  14.677   5.499  0.00  0.00     0.046 C 
HETATM    4  C   UNK N   1      32.499  16.387   5.722  0.00  0.00     0.046 C 
HETATM    5  C   UNK N   1      27.117  15.293   6.462  0.00  0.00     0.051 C 
HETATM    6  C   UNK N   1      27.830  14.723   5.104  0.00  0.00     0.114 A 
HETATM    7  C   UNK N   1      23.989  16.715   3.320  0.00  0.00     0.031 C 
HETATM    8  C   UNK N   1      26.710  12.770   1.859  0.00  0.00     0.064 C 
HETATM    9  C   UNK N   1      30.396  14.389   4.462  0.00  0.00     0.064 A 
HETATM   10  C   UNK N   1      27.688  18.317   5.848  0.00  0.00     0.053 C 
HETATM   11  C   UNK N   1      23.501  14.497   1.929  0.00  0.00    -0.021 A 
HETATM   12  C   UNK N   1      29.011  11.957   2.103  0.00  0.00    -0.021 A 
HETATM   13  C   UNK N   1      24.918  15.994   5.420  0.00  0.00    -0.053 C 
HETATM   14  C   UNK N   1      31.029  16.582   5.852  0.00  0.00    -0.045 C 
HETATM   15  C   UNK N   1      24.363  13.440   1.593  0.00  0.00     0.000 A 
HETATM   16  C   UNK N   1      30.090  12.428   2.900  0.00  0.00     0.000 A 
HETATM   17  C   UNK N   1      26.143  16.333   6.054  0.00  0.00    -0.031 C 
HETATM   18  C   UNK N   1      30.312  17.594   6.521  0.00  0.00     0.069 C 
HETATM   19  C   UNK N   1      24.273  15.426   2.649  0.00  0.00     0.062 A 
HETATM   20  C   UNK N   1      24.681  16.976   4.467  0.00  0.00     0.135 C 
HETATM   21  C   UNK N   1      27.902  12.731   2.407  0.00  0.00     0.066 A 
HETATM   22  C   UNK N   1      30.134  15.827   5.246  0.00  0.00     0.062 A 
HETATM   23  C   UNK N   1      25.573  13.750   2.105  0.00  0.00     0.070 A 
HETATM   24  C   UNK N   1      29.593  13.468   3.641  0.00  0.00     0.070 A 
HETATM   25  C   UNK N   1      26.492  17.605   5.623  0.00  0.00     0.035 C 
HETATM   26  C   UNK N   1      29.001  17.614   5.956  0.00  0.00     0.045 C 
HETATM   27  C   UNK N   1      28.606  15.819   3.161  0.00  0.00     0.139 A 
HETATM   28 Fe   UNK N   1      26.916  15.779   3.885  0.00  0.00     0.000 Fe
HETATM   29  N   UNK N   1      25.498  14.944   2.778  0.00  0.00    -0.248 N 
HETATM   30  N   UNK N   1      28.243  13.622   3.252  0.00  0.00    -0.248 N 
HETATM   31  N   UNK N   1      25.860  17.581   4.441  0.00  0.00    -0.197 NA
HETATM   32  N   UNK N   1      28.950  16.597   5.236  0.00  0.00    -0.253 N 
HETATM   33  O   UNK N   1      27.972  15.677   2.113  0.00  0.00    -0.650 OA
ENDROOT
BRANCH  18  34
HETATM   34  C   UNK N   1      30.425  17.314   7.987  0.00  0.00     0.025 C 
BRANCH  34  35
HETATM   35  C   UNK N   1      29.894  18.296   8.943  0.00  0.00     0.111 C 
BRANCH  35  36
HETATM   36  C   UNK N   1      28.785  17.611   9.613  0.00  0.00     0.139 C 
HETATM   37  O   UNK N   1      28.998  16.768  10.473  0.00  0.00    -0.650 OA
BRANCH  36  38
HETATM   38  O   UNK N   1      27.540  18.034   9.367  0.00  0.00    -0.776 OA
HETATM   39  H   UNK N   1      26.635  17.791   9.346  0.00  0.00     0.167 HD
ENDBRANCH  36  38
ENDBRANCH  35  36
ENDBRANCH  34  35
ENDBRANCH  18  34
BRANCH  27  40
HETATM   40  O   UNK N   1      29.673  16.658   3.007  0.00  0.00    -0.776 OA
HETATM   41  H   UNK N   1      30.362  16.715   2.375  0.00  0.00     0.167 HD
ENDBRANCH  27  40
BRANCH  16  42
HETATM   42  C   UNK N   1      31.526  12.131   2.806  0.00  0.00     0.004 C 
HETATM   43  C   UNK N   1      32.269  12.638   1.827  0.00  0.00     0.012 C 
ENDBRANCH  16  42
BRANCH  15  44
HETATM   44  C   UNK N   1      24.220  12.132   0.901  0.00  0.00     0.004 C 
HETATM   45  C   UNK N   1      23.655  11.894  -0.265  0.00  0.00     0.012 C 
ENDBRANCH  15  44
TORSDOF 7
ENDMDL
MODEL 6
REMARK VINA RESULT:      -7.7      3.148      8.542
REMARK  7 active torsions:
REMARK  status: ('A' for Active; 'I' for Inactive)
REMARK    1  A    between atoms: C_21  and  C_7 
REMARK    2  A    between atoms: C_22  and  C_8 
REMARK    3  A    between atoms: C_12  and  C_10 
REMARK    4  A    between atoms: C_24  and  C_10 
REMARK    5  A    between atoms: C_34  and  C_12 
REMARK    6  A    between atoms: O_40  and  C_33 
REMARK    7  A    between atoms: O_42  and  C_34 
ROOT
HETATM    1  C   UNK N   1      36.706  14.692  10.152  0.00  0.00     0.052 C 
HETATM    2  C   UNK N   1      35.648  11.777   2.878  0.00  0.00     0.052 C 
HETATM    3  C   UNK N   1      34.562  17.608   7.609  0.00  0.00     0.046 C 
HETATM    4  C   UNK N   1      28.421  15.086   2.376  0.00  0.00     0.046 C 
HETATM    5  C   UNK N   1      32.218  17.563   5.564  0.00  0.00     0.051 C 
HETATM    6  C   UNK N   1      32.543  16.050   5.029  0.00  0.00     0.114 A 
HETATM    7  C   UNK N   1      33.529  15.610   9.583  0.00  0.00     0.031 C 
HETATM    8  C   UNK N   1      35.402  13.369   5.512  0.00  0.00     0.064 C 
HETATM    9  C   UNK N   1      31.471  14.604   3.062  0.00  0.00     0.064 A 
HETATM   10  C   UNK N   1      29.618  16.770   7.132  0.00  0.00     0.053 C 
HETATM   11  C   UNK N   1      35.855  14.475   8.955  0.00  0.00    -0.021 A 
HETATM   12  C   UNK N   1      34.680  12.851   3.227  0.00  0.00    -0.021 A 
HETATM   13  C   UNK N   1      33.136  17.294   7.909  0.00  0.00    -0.053 C 
HETATM   14  C   UNK N   1      29.081  15.690   3.566  0.00  0.00    -0.045 C 
HETATM   15  C   UNK N   1      36.269  13.884   7.750  0.00  0.00     0.000 A 
HETATM   16  C   UNK N   1      33.524  13.246   2.499  0.00  0.00     0.000 A 
HETATM   17  C   UNK N   1      32.035  17.489   7.033  0.00  0.00    -0.031 C 
HETATM   18  C   UNK N   1      28.551  16.550   4.550  0.00  0.00     0.069 C 
HETATM   19  C   UNK N   1      34.527  14.894   8.757  0.00  0.00     0.062 A 
HETATM   20  C   UNK N   1      32.689  16.464   8.929  0.00  0.00     0.135 C 
HETATM   21  C   UNK N   1      34.638  13.496   4.453  0.00  0.00     0.066 A 
HETATM   22  C   UNK N   1      30.318  15.418   3.934  0.00  0.00     0.062 A 
HETATM   23  C   UNK N   1      35.224  13.967   6.900  0.00  0.00     0.070 A 
HETATM   24  C   UNK N   1      32.830  14.100   3.315  0.00  0.00     0.070 A 
HETATM   25  C   UNK N   1      30.914  16.956   7.655  0.00  0.00     0.035 C 
HETATM   26  C   UNK N   1      29.402  16.446   5.690  0.00  0.00     0.045 C 
HETATM   27  C   UNK N   1      31.629  13.951   5.610  0.00  0.00     0.139 A 
HETATM   28 Fe   UNK N   1      32.479  15.191   6.670  0.00  0.00     0.000 Fe
HETATM   29  N   UNK N   1      34.182  14.618   7.511  0.00  0.00    -0.248 N 
HETATM   30  N   UNK N   1      33.561  14.174   4.523  0.00  0.00    -0.248 N 
HETATM   31  N   UNK N   1      31.539  16.047   8.418  0.00  0.00    -0.197 NA
HETATM   32  N   UNK N   1      30.387  15.791   5.295  0.00  0.00    -0.253 N 
HETATM   33  O   UNK N   1      32.321  13.171   6.268  0.00  0.00    -0.650 OA
ENDROOT
BRANCH  18  34
HETATM   34  C   UNK N   1      28.406  17.899   3.919  0.00  0.00     0.025 C 
BRANCH  34  35
HETATM   35  C   UNK N   1      27.140  18.627   4.078  0.00  0.00     0.111 C 
BRANCH  35  36
HETATM   36  C   UNK N   1      27.326  19.454   5.274  0.00  0.00     0.139 C 
HETATM   37  O   UNK N   1      27.814  20.572   5.192  0.00  0.00    -0.650 OA
BRANCH  36  38
HETATM   38  O   UNK N   1      26.816  19.017   6.431  0.00  0.00    -0.776 OA
HETATM   39  H   UNK N   1      26.949  18.957   7.357  0.00  0.00     0.167 HD
ENDBRANCH  36  38
ENDBRANCH  35  36
ENDBRANCH  34  35
ENDBRANCH  18  34
BRANCH  27  40
HETATM   40  O   UNK N   1      30.384  13.448   5.359  0.00  0.00    -0.776 OA
HETATM   41  H   UNK N   1      30.036  12.579   5.319  0.00  0.00     0.167 HD
ENDBRANCH  27  40
BRANCH  16  42
HETATM   42  C   UNK N   1      32.956  12.687   1.264  0.00  0.00     0.004 C 
HETATM   43  C   UNK N   1      32.329  11.515   1.265  0.00  0.00     0.012 C 
ENDBRANCH  16  42
BRANCH  15  44
HETATM   44  C   UNK N   1      37.532  13.287   7.239  0.00  0.00     0.004 C 
HETATM   45  C   UNK N   1      38.740  13.811   7.266  0.00  0.00     0.012 C 
ENDBRANCH  15  44
TORSDOF 7
ENDMDL
MODEL 7
REMARK VINA RESULT:      -7.7      2.451      5.557
REMARK  7 active torsions:
REMARK  status: ('A' for Active; 'I' for Inactive)
REMARK    1  A    between atoms: C_21  and  C_7 
REMARK    2  A    between atoms: C_22  and  C_8 
REMARK    3  A    between atoms: C_12  and  C_10 
REMARK    4  A    between atoms: C_24  and  C_10 
REMARK    5  A    between atoms: C_34  and  C_12 
REMARK    6  A    between atoms: O_40  and  C_33 
REMARK    7  A    between atoms: O_42  and  C_34 
ROOT
HETATM    1  C   UNK N   1      25.225  17.881   3.438  0.00  0.00     0.052 C 
HETATM    2  C   UNK N   1      29.687  12.263   0.114  0.00  0.00     0.052 C 
HETATM    3  C   UNK N   1      27.749  15.901   6.483  0.00  0.00     0.046 C 
HETATM    4  C   UNK N   1      35.834  14.047   4.853  0.00  0.00     0.046 C 
HETATM    5  C   UNK N   1      30.711  14.985   6.746  0.00  0.00     0.051 C 
HETATM    6  C   UNK N   1      30.884  14.649   5.154  0.00  0.00     0.114 A 
HETATM    7  C   UNK N   1      28.158  18.448   4.966  0.00  0.00     0.031 C 
HETATM    8  C   UNK N   1      28.548  14.447   1.976  0.00  0.00     0.064 C 
HETATM    9  C   UNK N   1      32.897  13.557   3.788  0.00  0.00     0.064 A 
HETATM   10  C   UNK N   1      32.500  17.562   6.700  0.00  0.00     0.053 C 
HETATM   11  C   UNK N   1      26.522  17.174   3.293  0.00  0.00    -0.021 A 
HETATM   12  C   UNK N   1      30.236  12.763   1.403  0.00  0.00    -0.021 A 
HETATM   13  C   UNK N   1      28.947  16.788   6.519  0.00  0.00    -0.053 C 
HETATM   14  C   UNK N   1      34.649  14.752   5.415  0.00  0.00    -0.045 C 
HETATM   15  C   UNK N   1      26.752  16.032   2.509  0.00  0.00     0.000 A 
HETATM   16  C   UNK N   1      31.513  12.488   1.965  0.00  0.00     0.000 A 
HETATM   17  C   UNK N   1      30.269  16.395   6.861  0.00  0.00    -0.031 C 
HETATM   18  C   UNK N   1      34.574  15.692   6.462  0.00  0.00     0.069 C 
HETATM   19  C   UNK N   1      27.726  17.441   3.970  0.00  0.00     0.062 A 
HETATM   20  C   UNK N   1      29.048  18.033   5.913  0.00  0.00     0.135 C 
HETATM   21  C   UNK N   1      29.657  13.769   2.160  0.00  0.00     0.066 A 
HETATM   22  C   UNK N   1      33.432  14.648   4.917  0.00  0.00     0.062 A 
HETATM   23  C   UNK N   1      28.030  15.660   2.733  0.00  0.00     0.070 A 
HETATM   24  C   UNK N   1      31.655  13.342   3.027  0.00  0.00     0.070 A 
HETATM   25  C   UNK N   1      31.093  17.492   6.650  0.00  0.00     0.035 C 
HETATM   26  C   UNK N   1      33.350  16.405   6.289  0.00  0.00     0.045 C 
HETATM   27  C   UNK N   1      31.787  15.910   3.374  0.00  0.00     0.139 A 
HETATM   28 Fe   UNK N   1      30.387  16.309   4.497  0.00  0.00     0.000 Fe
HETATM   29  N   UNK N   1      28.602  16.502   3.653  0.00  0.00    -0.248 N 
HETATM   30  N   UNK N   1      30.483  14.132   3.060  0.00  0.00    -0.248 N 
HETATM   31  N   UNK N   1      30.357  18.099   5.708  0.00  0.00    -0.197 NA
HETATM   32  N   UNK N   1      32.739  15.781   5.399  0.00  0.00    -0.253 N 
HETATM   33  O   UNK N   1      31.016  16.373   2.531  0.00  0.00    -0.650 OA
ENDROOT
BRANCH  18  34
HETATM   34  C   UNK N   1      34.756  14.936   7.741  0.00  0.00     0.025 C 
BRANCH  34  35
HETATM   35  C   UNK N   1      34.426  15.597   9.012  0.00  0.00     0.111 C 
BRANCH  35  36
HETATM   36  C   UNK N   1      33.437  14.723   9.649  0.00  0.00     0.139 C 
HETATM   37  O   UNK N   1      32.998  13.744   9.063  0.00  0.00    -0.650 OA
BRANCH  36  38
HETATM   38  O   UNK N   1      33.139  14.937  10.935  0.00  0.00    -0.776 OA
HETATM   39  H   UNK N   1      33.486  15.020  11.802  0.00  0.00     0.167 HD
ENDBRANCH  36  38
ENDBRANCH  35  36
ENDBRANCH  34  35
ENDBRANCH  18  34
BRANCH  27  40
HETATM   40  O   UNK N   1      33.085  16.263   3.132  0.00  0.00    -0.776 OA
HETATM   41  H   UNK N   1      33.489  17.032   2.781  0.00  0.00     0.167 HD
ENDBRANCH  27  40
BRANCH  16  42
HETATM   42  C   UNK N   1      32.627  11.698   1.424  0.00  0.00     0.004 C 
HETATM   43  C   UNK N   1      33.364  12.152   0.414  0.00  0.00     0.012 C 
ENDBRANCH  16  42
BRANCH  15  44
HETATM   44  C   UNK N   1      25.933  15.183   1.604  0.00  0.00     0.004 C 
HETATM   45  C   UNK N   1      24.808  14.558   1.883  0.00  0.00     0.012 C 
ENDBRANCH  15  44
TORSDOF 7
ENDMDL
MODEL 8
REMARK VINA RESULT:      -7.6      9.437     13.328
REMARK  7 active torsions:
REMARK  status: ('A' for Active; 'I' for Inactive)
REMARK    1  A    between atoms: C_21  and  C_7 
REMARK    2  A    between atoms: C_22  and  C_8 
REMARK    3  A    between atoms: C_12  and  C_10 
REMARK    4  A    between atoms: C_24  and  C_10 
REMARK    5  A    between atoms: C_34  and  C_12 
REMARK    6  A    between atoms: O_40  and  C_33 
REMARK    7  A    between atoms: O_42  and  C_34 
ROOT
HETATM    1  C   UNK N   1      36.713   4.377  13.736  0.00  0.00     0.052 C 
HETATM    2  C   UNK N   1      35.118  10.447  18.546  0.00  0.00     0.052 C 
HETATM    3  C   UNK N   1      34.329   7.446  11.623  0.00  0.00     0.046 C 
HETATM    4  C   UNK N   1      36.027  15.669  12.601  0.00  0.00     0.046 C 
HETATM    5  C   UNK N   1      34.328  10.545  11.348  0.00  0.00     0.051 C 
HETATM    6  C   UNK N   1      34.900  10.809  12.858  0.00  0.00     0.114 A 
HETATM    7  C   UNK N   1      37.282   6.959  11.669  0.00  0.00     0.031 C 
HETATM    8  C   UNK N   1      35.630   8.653  16.086  0.00  0.00     0.064 C 
HETATM    9  C   UNK N   1      35.289  13.061  14.231  0.00  0.00     0.064 A 
HETATM   10  C   UNK N   1      36.981  11.359   9.881  0.00  0.00     0.053 C 
HETATM   11  C   UNK N   1      36.594   5.836  13.984  0.00  0.00    -0.021 A 
HETATM   12  C   UNK N   1      35.045  10.805  17.104  0.00  0.00    -0.021 A 
HETATM   13  C   UNK N   1      35.388   8.274  10.979  0.00  0.00    -0.053 C 
HETATM   14  C   UNK N   1      35.970  14.320  11.974  0.00  0.00    -0.045 C 
HETATM   15  C   UNK N   1      36.124   6.431  15.166  0.00  0.00     0.000 A 
HETATM   16  C   UNK N   1      34.919  12.104  16.539  0.00  0.00     0.000 A 
HETATM   17  C   UNK N   1      35.289   9.653  10.654  0.00  0.00    -0.031 C 
HETATM   18  C   UNK N   1      36.190  13.940  10.634  0.00  0.00     0.069 C 
HETATM   19  C   UNK N   1      36.831   6.884  13.077  0.00  0.00     0.062 A 
HETATM   20  C   UNK N   1      36.735   7.945  10.900  0.00  0.00     0.135 C 
HETATM   21  C   UNK N   1      35.315   9.926  16.067  0.00  0.00     0.066 A 
HETATM   22  C   UNK N   1      35.773  13.205  12.651  0.00  0.00     0.062 A 
HETATM   23  C   UNK N   1      36.087   7.761  14.941  0.00  0.00     0.070 A 
HETATM   24  C   UNK N   1      35.127  11.958  15.193  0.00  0.00     0.070 A 
HETATM   25  C   UNK N   1      36.532  10.057  10.185  0.00  0.00     0.035 C 
HETATM   26  C   UNK N   1      36.495  12.546  10.646  0.00  0.00     0.045 C 
HETATM   27  C   UNK N   1      37.084  11.219  13.659  0.00  0.00     0.139 A 
HETATM   28 Fe   UNK N   1      36.434   9.775  12.724  0.00  0.00     0.000 Fe
HETATM   29  N   UNK N   1      36.483   8.023  13.653  0.00  0.00    -0.248 N 
HETATM   30  N   UNK N   1      35.406  10.588  14.981  0.00  0.00    -0.248 N 
HETATM   31  N   UNK N   1      37.278   9.153  10.835  0.00  0.00    -0.197 NA
HETATM   32  N   UNK N   1      36.250  12.175  11.811  0.00  0.00    -0.253 N 
HETATM   33  O   UNK N   1      37.653  10.330  14.296  0.00  0.00    -0.650 OA
ENDROOT
BRANCH  18  34
HETATM   34  C   UNK N   1      34.991  14.377   9.854  0.00  0.00     0.025 C 
BRANCH  34  35
HETATM   35  C   UNK N   1      35.153  15.399   8.811  0.00  0.00     0.111 C 
BRANCH  35  36
HETATM   36  C   UNK N   1      34.557  16.614   9.373  0.00  0.00     0.139 C 
HETATM   37  O   UNK N   1      35.262  17.535   9.761  0.00  0.00    -0.650 OA
BRANCH  36  38
HETATM   38  O   UNK N   1      33.228  16.751   9.317  0.00  0.00    -0.776 OA
HETATM   39  H   UNK N   1      32.485  16.823   8.750  0.00  0.00     0.167 HD
ENDBRANCH  36  38
ENDBRANCH  35  36
ENDBRANCH  34  35
ENDBRANCH  18  34
BRANCH  27  40
HETATM   40  O   UNK N   1      37.877  12.319  13.492  0.00  0.00    -0.776 OA
HETATM   41  H   UNK N   1      37.698  13.234  13.397  0.00  0.00     0.167 HD
ENDBRANCH  27  40
BRANCH  16  42
HETATM   42  C   UNK N   1      34.876  13.415  17.201  0.00  0.00     0.004 C 
HETATM   43  C   UNK N   1      35.258  13.559  18.466  0.00  0.00     0.012 C 
ENDBRANCH  16  42
BRANCH  15  44
HETATM   44  C   UNK N   1      35.641   5.939  16.484  0.00  0.00     0.004 C 
HETATM   45  C   UNK N   1      34.664   5.088  16.719  0.00  0.00     0.012 C 
ENDBRANCH  15  44
TORSDOF 7
ENDMDL
MODEL 9
REMARK VINA RESULT:      -7.5      8.277     12.152
REMARK  7 active torsions:
REMARK  status: ('A' for Active; 'I' for Inactive)
REMARK    1  A    between atoms: C_21  and  C_7 
REMARK    2  A    between atoms: C_22  and  C_8 
REMARK    3  A    between atoms: C_12  and  C_10 
REMARK    4  A    between atoms: C_24  and  C_10 
REMARK    5  A    between atoms: C_34  and  C_12 
REMARK    6  A    between atoms: O_40  and  C_33 
REMARK    7  A    between atoms: O_42  and  C_34 
ROOT
HETATM    1  C   UNK N   1      36.995   4.799  11.103  0.00  0.00     0.052 C 
HETATM    2  C   UNK N   1      34.878   9.839  16.817  0.00  0.00     0.052 C 
HETATM    3  C   UNK N   1      34.444   8.020   9.464  0.00  0.00     0.046 C 
HETATM    4  C   UNK N   1      35.539  16.048  11.873  0.00  0.00     0.046 C 
HETATM    5  C   UNK N   1      34.231  11.113   9.717  0.00  0.00     0.051 C 
HETATM    6  C   UNK N   1      34.752  11.152  11.268  0.00  0.00     0.114 A 
HETATM    7  C   UNK N   1      37.422   7.728   9.522  0.00  0.00     0.031 C 
HETATM    8  C   UNK N   1      35.566   8.530  14.106  0.00  0.00     0.064 C 
HETATM    9  C   UNK N   1      34.953  13.157  13.014  0.00  0.00     0.064 A 
HETATM   10  C   UNK N   1      36.849  12.339   8.495  0.00  0.00     0.053 C 
HETATM   11  C   UNK N   1      36.769   6.183  11.591  0.00  0.00    -0.021 A 
HETATM   12  C   UNK N   1      34.809  10.433  15.455  0.00  0.00    -0.021 A 
HETATM   13  C   UNK N   1      35.455   9.014   9.004  0.00  0.00    -0.053 C 
HETATM   14  C   UNK N   1      35.590  14.826  11.025  0.00  0.00    -0.045 C 
HETATM   15  C   UNK N   1      36.233   6.535  12.840  0.00  0.00     0.000 A 
HETATM   16  C   UNK N   1      34.604  11.798  15.114  0.00  0.00     0.000 A 
HETATM   17  C   UNK N   1      35.266  10.419   8.914  0.00  0.00    -0.031 C 
HETATM   18  C   UNK N   1      35.863  14.696   9.648  0.00  0.00     0.069 C 
HETATM   19  C   UNK N   1      36.949   7.384  10.882  0.00  0.00     0.062 A 
HETATM   20  C   UNK N   1      36.823   8.793   8.914  0.00  0.00     0.135 C 
HETATM   21  C   UNK N   1      35.162   9.764  14.293  0.00  0.00     0.066 A 
HETATM   22  C   UNK N   1      35.457  13.601  11.497  0.00  0.00     0.062 A 
HETATM   23  C   UNK N   1      36.108   7.879  12.843  0.00  0.00     0.070 A 
HETATM   24  C   UNK N   1      34.849  11.899  13.770  0.00  0.00     0.070 A 
HETATM   25  C   UNK N   1      36.486  10.978   8.560  0.00  0.00     0.035 C 
HETATM   26  C   UNK N   1      36.265  13.344   9.433  0.00  0.00     0.045 C 
HETATM   27  C   UNK N   1      36.884  11.563  12.196  0.00  0.00     0.139 A 
HETATM   28 Fe   UNK N   1      36.357  10.260  11.010  0.00  0.00     0.000 Fe
HETATM   29  N   UNK N   1      36.511   8.382  11.631  0.00  0.00    -0.248 N 
HETATM   30  N   UNK N   1      35.228  10.606  13.338  0.00  0.00    -0.248 N 
HETATM   31  N   UNK N   1      37.281  10.027   9.071  0.00  0.00    -0.197 NA
HETATM   32  N   UNK N   1      36.023  12.764  10.510  0.00  0.00    -0.253 N 
HETATM   33  O   UNK N   1      37.502  10.617  12.692  0.00  0.00    -0.650 OA
ENDROOT
BRANCH  18  34
HETATM   34  C   UNK N   1      34.652  15.179   8.915  0.00  0.00     0.025 C 
BRANCH  34  35
HETATM   35  C   UNK N   1      34.830  15.979   7.695  0.00  0.00     0.111 C 
BRANCH  35  36
HETATM   36  C   UNK N   1      34.447  17.342   8.074  0.00  0.00     0.139 C 
HETATM   37  O   UNK N   1      34.596  18.273   7.295  0.00  0.00    -0.650 OA
BRANCH  36  38
HETATM   38  O   UNK N   1      33.799  17.517   9.230  0.00  0.00    -0.776 OA
HETATM   39  H   UNK N   1      33.056  17.913   9.644  0.00  0.00     0.167 HD
ENDBRANCH  36  38
ENDBRANCH  35  36
ENDBRANCH  34  35
ENDBRANCH  18  34
BRANCH  27  40
HETATM   40  O   UNK N   1      37.601  12.725  12.244  0.00  0.00    -0.776 OA
HETATM   41  H   UNK N   1      37.360  13.629  12.288  0.00  0.00     0.167 HD
ENDBRANCH  27  40
BRANCH  16  42
HETATM   42  C   UNK N   1      34.455  12.971  15.986  0.00  0.00     0.004 C 
HETATM   43  C   UNK N   1      35.467  13.407  16.730  0.00  0.00     0.012 C 
ENDBRANCH  16  42
BRANCH  15  44
HETATM   44  C   UNK N   1      35.760   5.794  14.040  0.00  0.00     0.004 C 
HETATM   45  C   UNK N   1      34.891   4.806  14.087  0.00  0.00     0.012 C 
ENDBRANCH  15  44
TORSDOF 7
ENDMDL
