MODEL 1
REMARK VINA RESULT:      -3.2      0.000      0.000
REMARK  5 active torsions:
REMARK  status: ('A' for Active; 'I' for Inactive)
REMARK    1  A    between atoms: N_1  and  C_2 
REMARK    2  A    between atoms: C_2  and  C_3 
REMARK    3  A    between atoms: C_3  and  C_4 
REMARK    4  A    between atoms: C_4  and  C_5 
REMARK    5  A    between atoms: C_5  and  O_6 
ROOT
HETATM    1  C   UNK N   1      24.716  13.081   9.710  0.00  0.00     0.230 C 
ENDROOT
BRANCH   1   2
HETATM    2  N   UNK N   1      25.708  13.518  10.673  0.00  0.00    -0.079 N 
HETATM    3  H   UNK N   1      25.507  14.304  11.291  0.00  0.00     0.274 HD
HETATM    4  H   UNK N   1      26.607  13.040  10.733  0.00  0.00     0.274 HD
HETATM    5  H   UNK N   1      26.406  13.826  11.351  0.00  0.00     0.274 HD
ENDBRANCH   1   2
BRANCH   1   6
HETATM    6  C   UNK N   1      23.962  11.899  10.273  0.00  0.00     0.029 C 
BRANCH   6   7
HETATM    7  C   UNK N   1      22.787  12.394  11.083  0.00  0.00     0.028 C 
BRANCH   7   8
HETATM    8  C   UNK N   1      22.903  11.867  12.495  0.00  0.00     0.164 C 
BRANCH   8   9
HETATM    9  O   UNK N   1      24.025  12.422  13.104  0.00  0.00    -0.401 OA
HETATM   10  H   UNK N   1      24.649  11.853  13.581  0.00  0.00     0.209 HD
ENDBRANCH   8   9
ENDBRANCH   7   8
ENDBRANCH   6   7
ENDBRANCH   1   6
TORSDOF 5
ENDMDL
MODEL 2
REMARK VINA RESULT:      -3.0      2.180      2.921
REMARK  5 active torsions:
REMARK  status: ('A' for Active; 'I' for Inactive)
REMARK    1  A    between atoms: N_1  and  C_2 
REMARK    2  A    between atoms: C_2  and  C_3 
REMARK    3  A    between atoms: C_3  and  C_4 
REMARK    4  A    between atoms: C_4  and  C_5 
REMARK    5  A    between atoms: C_5  and  O_6 
ROOT
HETATM    1  C   UNK N   1      21.468  12.244  11.036  0.00  0.00     0.230 C 
ENDROOT
BRANCH   1   2
HETATM    2  N   UNK N   1      22.139  11.680  12.191  0.00  0.00    -0.079 N 
HETATM    3  H   UNK N   1      22.429  12.286  12.958  0.00  0.00     0.274 HD
HETATM    4  H   UNK N   1      22.322  10.678  12.236  0.00  0.00     0.274 HD
HETATM    5  H   UNK N   1      22.612  11.284  13.004  0.00  0.00     0.274 HD
ENDBRANCH   1   2
BRANCH   1   6
HETATM    6  C   UNK N   1      22.463  13.030  10.215  0.00  0.00     0.029 C 
BRANCH   6   7
HETATM    7  C   UNK N   1      23.577  12.114   9.767  0.00  0.00     0.028 C 
BRANCH   7   8
HETATM    8  C   UNK N   1      24.904  12.714  10.171  0.00  0.00     0.164 C 
BRANCH   8   9
HETATM    9  O   UNK N   1      25.115  12.493  11.530  0.00  0.00    -0.401 OA
HETATM   10  H   UNK N   1      25.630  13.130  12.051  0.00  0.00     0.209 HD
ENDBRANCH   8   9
ENDBRANCH   7   8
ENDBRANCH   6   7
ENDBRANCH   1   6
TORSDOF 5
ENDMDL
MODEL 3
REMARK VINA RESULT:      -3.0     11.767     12.482
REMARK  5 active torsions:
REMARK  status: ('A' for Active; 'I' for Inactive)
REMARK    1  A    between atoms: N_1  and  C_2 
REMARK    2  A    between atoms: C_2  and  C_3 
REMARK    3  A    between atoms: C_3  and  C_4 
REMARK    4  A    between atoms: C_4  and  C_5 
REMARK    5  A    between atoms: C_5  and  O_6 
ROOT
HETATM    1  C   UNK N   1      19.884  17.974   3.094  0.00  0.00     0.230 C 
ENDROOT
BRANCH   1   2
HETATM    2  N   UNK N   1      18.721  18.421   2.353  0.00  0.00    -0.079 N 
HETATM    3  H   UNK N   1      17.861  17.873   2.375  0.00  0.00     0.274 HD
HETATM    4  H   UNK N   1      18.762  19.282   1.809  0.00  0.00     0.274 HD
HETATM    5  H   UNK N   1      17.902  18.735   1.831  0.00  0.00     0.274 HD
ENDBRANCH   1   2
BRANCH   1   6
HETATM    6  C   UNK N   1      21.044  18.898   2.805  0.00  0.00     0.029 C 
BRANCH   6   7
HETATM    7  C   UNK N   1      20.516  20.253   2.397  0.00  0.00     0.028 C 
BRANCH   7   8
HETATM    8  C   UNK N   1      21.067  20.610   1.035  0.00  0.00     0.164 C 
BRANCH   8   9
HETATM    9  O   UNK N   1      20.557  19.727   0.087  0.00  0.00    -0.401 OA
HETATM   10  H   UNK N   1      19.605  19.709  -0.097  0.00  0.00     0.209 HD
ENDBRANCH   8   9
ENDBRANCH   7   8
ENDBRANCH   6   7
ENDBRANCH   1   6
TORSDOF 5
ENDMDL
MODEL 4
REMARK VINA RESULT:      -2.9      2.524      2.825
REMARK  5 active torsions:
REMARK  status: ('A' for Active; 'I' for Inactive)
REMARK    1  A    between atoms: N_1  and  C_2 
REMARK    2  A    between atoms: C_2  and  C_3 
REMARK    3  A    between atoms: C_3  and  C_4 
REMARK    4  A    between atoms: C_4  and  C_5 
REMARK    5  A    between atoms: C_5  and  O_6 
ROOT
HETATM    1  C   UNK N   1      23.976  11.946  11.586  0.00  0.00     0.230 C 
ENDROOT
BRANCH   1   2
HETATM    2  N   UNK N   1      25.067  12.668  10.960  0.00  0.00    -0.079 N 
HETATM    3  H   UNK N   1      25.641  13.303  11.514  0.00  0.00     0.274 HD
HETATM    4  H   UNK N   1      25.260  12.541   9.967  0.00  0.00     0.274 HD
HETATM    5  H   UNK N   1      25.835  13.176  10.520  0.00  0.00     0.274 HD
ENDBRANCH   1   2
BRANCH   1   6
HETATM    6  C   UNK N   1      22.921  11.640  10.548  0.00  0.00     0.029 C 
BRANCH   6   7
HETATM    7  C   UNK N   1      21.598  12.218  10.993  0.00  0.00     0.028 C 
BRANCH   7   8
HETATM    8  C   UNK N   1      21.188  13.311  10.033  0.00  0.00     0.164 C 
BRANCH   8   9
HETATM    9  O   UNK N   1      19.823  13.554  10.168  0.00  0.00    -0.401 OA
HETATM   10  H   UNK N   1      19.376  13.359  11.006  0.00  0.00     0.209 HD
ENDBRANCH   8   9
ENDBRANCH   7   8
ENDBRANCH   6   7
ENDBRANCH   1   6
TORSDOF 5
ENDMDL
MODEL 5
REMARK VINA RESULT:      -2.9      2.306      2.772
REMARK  5 active torsions:
REMARK  status: ('A' for Active; 'I' for Inactive)
REMARK    1  A    between atoms: N_1  and  C_2 
REMARK    2  A    between atoms: C_2  and  C_3 
REMARK    3  A    between atoms: C_3  and  C_4 
REMARK    4  A    between atoms: C_4  and  C_5 
REMARK    5  A    between atoms: C_5  and  O_6 
ROOT
HETATM    1  C   UNK N   1      21.901  12.995   9.820  0.00  0.00     0.230 C 
ENDROOT
BRANCH   1   2
HETATM    2  N   UNK N   1      21.054  14.171   9.797  0.00  0.00    -0.079 N 
HETATM    3  H   UNK N   1      20.072  14.087   9.535  0.00  0.00     0.274 HD
HETATM    4  H   UNK N   1      21.439  15.082  10.044  0.00  0.00     0.274 HD
HETATM    5  H   UNK N   1      20.457  14.999   9.781  0.00  0.00     0.274 HD
ENDBRANCH   1   2
BRANCH   1   6
HETATM    6  C   UNK N   1      21.649  12.223  11.094  0.00  0.00     0.029 C 
BRANCH   6   7
HETATM    7  C   UNK N   1      22.963  11.969  11.795  0.00  0.00     0.028 C 
BRANCH   7   8
HETATM    8  C   UNK N   1      24.093  12.156  10.809  0.00  0.00     0.164 C 
BRANCH   8   9
HETATM    9  O   UNK N   1      25.233  12.577  11.488  0.00  0.00    -0.401 OA
HETATM   10  H   UNK N   1      25.147  13.080  12.314  0.00  0.00     0.209 HD
ENDBRANCH   8   9
ENDBRANCH   7   8
ENDBRANCH   6   7
ENDBRANCH   1   6
TORSDOF 5
ENDMDL
MODEL 6
REMARK VINA RESULT:      -2.7     22.503     22.888
REMARK  5 active torsions:
REMARK  status: ('A' for Active; 'I' for Inactive)
REMARK    1  A    between atoms: N_1  and  C_2 
REMARK    2  A    between atoms: C_2  and  C_3 
REMARK    3  A    between atoms: C_3  and  C_4 
REMARK    4  A    between atoms: C_4  and  C_5 
REMARK    5  A    between atoms: C_5  and  O_6 
ROOT
HETATM    1  C   UNK N   1      43.900  22.313   4.054  0.00  0.00     0.230 C 
ENDROOT
BRANCH   1   2
HETATM    2  N   UNK N   1      43.585  23.724   4.159  0.00  0.00    -0.079 N 
HETATM    3  H   UNK N   1      44.011  24.288   4.895  0.00  0.00     0.274 HD
HETATM    4  H   UNK N   1      42.939  24.153   3.498  0.00  0.00     0.274 HD
HETATM    5  H   UNK N   1      43.364  24.717   4.233  0.00  0.00     0.274 HD
ENDBRANCH   1   2
BRANCH   1   6
HETATM    6  C   UNK N   1      42.782  21.605   3.326  0.00  0.00     0.029 C 
BRANCH   6   7
HETATM    7  C   UNK N   1      42.652  22.175   1.932  0.00  0.00     0.028 C 
BRANCH   7   8
HETATM    8  C   UNK N   1      41.244  22.690   1.738  0.00  0.00     0.164 C 
BRANCH   8   9
HETATM    9  O   UNK N   1      41.200  24.043   2.065  0.00  0.00    -0.401 OA
HETATM   10  H   UNK N   1      42.022  24.525   2.250  0.00  0.00     0.209 HD
ENDBRANCH   8   9
ENDBRANCH   7   8
ENDBRANCH   6   7
ENDBRANCH   1   6
TORSDOF 5
ENDMDL
MODEL 7
REMARK VINA RESULT:      -2.7      7.709      8.448
REMARK  5 active torsions:
REMARK  status: ('A' for Active; 'I' for Inactive)
REMARK    1  A    between atoms: N_1  and  C_2 
REMARK    2  A    between atoms: C_2  and  C_3 
REMARK    3  A    between atoms: C_3  and  C_4 
REMARK    4  A    between atoms: C_4  and  C_5 
REMARK    5  A    between atoms: C_5  and  O_6 
ROOT
HETATM    1  C   UNK N   1      31.140  16.699   8.591  0.00  0.00     0.230 C 
ENDROOT
BRANCH   1   2
HETATM    2  N   UNK N   1      32.321  16.235   9.292  0.00  0.00    -0.079 N 
HETATM    3  H   UNK N   1      32.403  16.374  10.300  0.00  0.00     0.274 HD
HETATM    4  H   UNK N   1      33.069  15.770   8.780  0.00  0.00     0.274 HD
HETATM    5  H   UNK N   1      33.152  15.908   9.787  0.00  0.00     0.274 HD
ENDBRANCH   1   2
BRANCH   1   6
HETATM    6  C   UNK N   1      31.017  18.196   8.759  0.00  0.00     0.029 C 
BRANCH   6   7
HETATM    7  C   UNK N   1      29.740  18.513   9.502  0.00  0.00     0.028 C 
BRANCH   7   8
HETATM    8  C   UNK N   1      28.589  17.793   8.838  0.00  0.00     0.164 C 
BRANCH   8   9
HETATM    9  O   UNK N   1      27.390  18.226   9.398  0.00  0.00    -0.401 OA
HETATM   10  H   UNK N   1      26.646  18.467   8.824  0.00  0.00     0.209 HD
ENDBRANCH   8   9
ENDBRANCH   7   8
ENDBRANCH   6   7
ENDBRANCH   1   6
TORSDOF 5
ENDMDL
MODEL 8
REMARK VINA RESULT:      -2.6     10.365     11.391
REMARK  5 active torsions:
REMARK  status: ('A' for Active; 'I' for Inactive)
REMARK    1  A    between atoms: N_1  and  C_2 
REMARK    2  A    between atoms: C_2  and  C_3 
REMARK    3  A    between atoms: C_3  and  C_4 
REMARK    4  A    between atoms: C_4  and  C_5 
REMARK    5  A    between atoms: C_5  and  O_6 
ROOT
HETATM    1  C   UNK N   1      32.312  17.067   8.475  0.00  0.00     0.230 C 
ENDROOT
BRANCH   1   2
HETATM    2  N   UNK N   1      31.193  17.797   9.037  0.00  0.00    -0.079 N 
HETATM    3  H   UNK N   1      30.243  17.444   8.920  0.00  0.00     0.274 HD
HETATM    4  H   UNK N   1      31.355  18.663   9.549  0.00  0.00     0.274 HD
HETATM    5  H   UNK N   1      30.405  18.311   9.433  0.00  0.00     0.274 HD
ENDBRANCH   1   2
BRANCH   1   6
HETATM    6  C   UNK N   1      33.139  18.001   7.623  0.00  0.00     0.029 C 
BRANCH   6   7
HETATM    7  C   UNK N   1      34.498  18.187   8.258  0.00  0.00     0.028 C 
BRANCH   7   8
HETATM    8  C   UNK N   1      34.730  17.081   9.261  0.00  0.00     0.164 C 
BRANCH   8   9
HETATM    9  O   UNK N   1      35.573  17.542  10.269  0.00  0.00    -0.401 OA
HETATM   10  H   UNK N   1      36.377  17.048  10.493  0.00  0.00     0.209 HD
ENDBRANCH   8   9
ENDBRANCH   7   8
ENDBRANCH   6   7
ENDBRANCH   1   6
TORSDOF 5
ENDMDL
MODEL 9
REMARK VINA RESULT:      -2.6     11.440     12.187
REMARK  5 active torsions:
REMARK  status: ('A' for Active; 'I' for Inactive)
REMARK    1  A    between atoms: N_1  and  C_2 
REMARK    2  A    between atoms: C_2  and  C_3 
REMARK    3  A    between atoms: C_3  and  C_4 
REMARK    4  A    between atoms: C_4  and  C_5 
REMARK    5  A    between atoms: C_5  and  O_6 
ROOT
HETATM    1  C   UNK N   1      21.693  19.064   3.717  0.00  0.00     0.230 C 
ENDROOT
BRANCH   1   2
HETATM    2  N   UNK N   1      21.579  18.526   5.058  0.00  0.00    -0.079 N 
HETATM    3  H   UNK N   1      21.379  17.535   5.195  0.00  0.00     0.274 HD
HETATM    4  H   UNK N   1      21.698  19.138   5.865  0.00  0.00     0.274 HD
HETATM    5  H   UNK N   1      21.498  18.147   6.002  0.00  0.00     0.274 HD
ENDBRANCH   1   2
BRANCH   1   6
HETATM    6  C   UNK N   1      20.576  20.052   3.479  0.00  0.00     0.029 C 
BRANCH   6   7
HETATM    7  C   UNK N   1      20.915  20.915   2.286  0.00  0.00     0.028 C 
BRANCH   7   8
HETATM    8  C   UNK N   1      20.858  20.071   1.033  0.00  0.00     0.164 C 
BRANCH   8   9
HETATM    9  O   UNK N   1      20.791  20.903  -0.081  0.00  0.00    -0.401 OA
HETATM   10  H   UNK N   1      20.799  20.522  -0.973  0.00  0.00     0.209 HD
ENDBRANCH   8   9
ENDBRANCH   7   8
ENDBRANCH   6   7
ENDBRANCH   1   6
TORSDOF 5
ENDMDL
