MODEL 1
REMARK VINA RESULT:      -6.4      0.000      0.000
REMARK  4 active torsions:
REMARK  status: ('A' for Active; 'I' for Inactive)
REMARK    1  A    between atoms: C_12  and  O_1 
REMARK    2  A    between atoms: C_13  and  O_2 
REMARK       I    between atoms: N_4  and  C_17 
REMARK    3  A    between atoms: C_12  and  C_13 
REMARK    4  A    between atoms: C_13  and  C_15 
ROOT
HETATM    1  O   UNK N   1      35.960  17.651  10.444  0.00  0.00    -0.265 OA
HETATM    2  N   UNK N   1      36.149  13.661  12.798  0.00  0.00    -0.234 N 
HETATM    3  N   UNK N   1      34.390  14.097  11.235  0.00  0.00    -0.175 N 
HETATM    4  N   UNK N   1      32.746  14.427   9.688  0.00  0.00    -0.372 N 
ATOM      5  HN  UNK N   1      32.339  13.540   9.984  1.00  0.00     0.161 HD
HETATM    6  N   UNK N   1      33.658  16.965   9.226  0.00  0.00    -0.374 N 
ATOM      7  HN  UNK N   1      34.098  17.852   8.980  1.00  0.00     0.160 HD
HETATM    8  N   UNK N   1      36.067  15.716  11.568  0.00  0.00    -0.154 N 
ATOM      9  HN  UNK N   1      36.932  16.003  12.026  1.00  0.00     0.187 HD
HETATM   10  C   UNK N   1      32.351  16.649   8.659  0.00  0.00     0.131 C 
HETATM   11  C   UNK N   1      32.157  15.132   8.571  0.00  0.00     0.149 C 
HETATM   12  C   UNK N   1      35.524  14.506  11.858  0.00  0.00     0.680 A 
HETATM   13  C   UNK N   1      33.769  14.885  10.318  0.00  0.00     0.149 A 
HETATM   14  C   UNK N   1      35.467  16.560  10.667  0.00  0.00     0.289 A 
HETATM   15  C   UNK N   1      34.282  16.163  10.030  0.00  0.00     0.142 A 
HETATM   16  H   UNK N   1      35.803  12.751  12.949  0.00  0.00     0.174 HD
HETATM   17  H   UNK N   1      36.931  13.981  13.302  0.00  0.00     0.174 HD
HETATM   18  H   UNK N   1      34.011  13.215  11.451  0.00  0.00     0.186 HD
ENDROOT
BRANCH  10  19
HETATM   19  C   UNK N   1      32.213  17.295   7.264  0.00  0.00     0.170 C 
BRANCH  19  20
HETATM   20  O   UNK N   1      31.030  16.879   6.643  0.00  0.00    -0.391 OA
HETATM   21  H   UNK N   1      30.898  15.962   6.356  0.00  0.00     0.210 HD
ENDBRANCH  19  20
BRANCH  19  22
HETATM   22  C   UNK N   1      33.412  17.237   6.272  0.00  0.00     0.145 C 
HETATM   23  C   UNK N   1      33.109  17.442   4.796  0.00  0.00     0.042 C 
BRANCH  22  24
HETATM   24  O   UNK N   1      34.467  18.067   6.656  0.00  0.00    -0.393 OA
HETATM   25  H   UNK N   1      35.331  18.075   6.215  0.00  0.00     0.210 HD
ENDBRANCH  22  24
ENDBRANCH  19  22
ENDBRANCH  10  19
TORSDOF 4
ENDMDL
MODEL 2
REMARK VINA RESULT:      -6.1     13.305     15.077
REMARK  4 active torsions:
REMARK  status: ('A' for Active; 'I' for Inactive)
REMARK    1  A    between atoms: C_12  and  O_1 
REMARK    2  A    between atoms: C_13  and  O_2 
REMARK       I    between atoms: N_4  and  C_17 
REMARK    3  A    between atoms: C_12  and  C_13 
REMARK    4  A    between atoms: C_13  and  C_15 
ROOT
HETATM    1  O   UNK N   1      23.244  19.947   3.792  0.00  0.00    -0.265 OA
HETATM    2  N   UNK N   1      20.409  21.103   0.309  0.00  0.00    -0.234 N 
HETATM    3  N   UNK N   1      19.943  19.225   1.717  0.00  0.00    -0.175 N 
HETATM    4  N   UNK N   1      19.405  17.483   3.089  0.00  0.00    -0.372 N 
ATOM      5  HN  UNK N   1      18.612  17.293   2.477  1.00  0.00     0.161 HD
HETATM    6  N   UNK N   1      21.758  17.799   4.450  0.00  0.00    -0.374 N 
ATOM      7  HN  UNK N   1      22.574  18.024   5.019  1.00  0.00     0.160 HD
HETATM    8  N   UNK N   1      21.866  20.521   2.120  0.00  0.00    -0.154 N 
ATOM      9  HN  UNK N   1      22.451  21.322   1.882  1.00  0.00     0.187 HD
HETATM   10  C   UNK N   1      21.025  16.569   4.730  0.00  0.00     0.131 C 
HETATM   11  C   UNK N   1      19.561  16.707   4.300  0.00  0.00     0.149 C 
HETATM   12  C   UNK N   1      20.748  20.268   1.394  0.00  0.00     0.680 A 
HETATM   13  C   UNK N   1      20.236  18.408   2.762  0.00  0.00     0.149 A 
HETATM   14  C   UNK N   1      22.222  19.714   3.172  0.00  0.00     0.289 A 
HETATM   15  C   UNK N   1      21.413  18.617   3.506  0.00  0.00     0.142 A 
HETATM   16  H   UNK N   1      19.558  20.971  -0.167  0.00  0.00     0.174 HD
HETATM   17  H   UNK N   1      21.025  21.818   0.029  0.00  0.00     0.174 HD
HETATM   18  H   UNK N   1      19.132  19.057   1.185  0.00  0.00     0.186 HD
ENDROOT
BRANCH  10  19
HETATM   19  C   UNK N   1      21.117  16.234   6.234  0.00  0.00     0.170 C 
BRANCH  19  20
HETATM   20  O   UNK N   1      20.765  14.899   6.464  0.00  0.00    -0.391 OA
HETATM   21  H   UNK N   1      21.308  14.164   6.141  0.00  0.00     0.210 HD
ENDBRANCH  19  20
BRANCH  19  22
HETATM   22  C   UNK N   1      20.436  17.175   7.272  0.00  0.00     0.145 C 
HETATM   23  C   UNK N   1      20.277  16.652   8.690  0.00  0.00     0.042 C 
BRANCH  22  24
HETATM   24  O   UNK N   1      21.010  18.447   7.300  0.00  0.00    -0.393 OA
HETATM   25  H   UNK N   1      21.347  18.901   6.511  0.00  0.00     0.210 HD
ENDBRANCH  22  24
ENDBRANCH  19  22
ENDBRANCH  10  19
TORSDOF 4
ENDMDL
MODEL 3
REMARK VINA RESULT:      -5.9      2.610      5.905
REMARK  4 active torsions:
REMARK  status: ('A' for Active; 'I' for Inactive)
REMARK    1  A    between atoms: C_12  and  O_1 
REMARK    2  A    between atoms: C_13  and  O_2 
REMARK       I    between atoms: N_4  and  C_17 
REMARK    3  A    between atoms: C_12  and  C_13 
REMARK    4  A    between atoms: C_13  and  C_15 
ROOT
HETATM    1  O   UNK N   1      30.145  17.018   9.001  0.00  0.00    -0.265 OA
HETATM    2  N   UNK N   1      30.403  17.663   4.416  0.00  0.00    -0.234 N 
HETATM    3  N   UNK N   1      32.329  17.039   5.691  0.00  0.00    -0.175 N 
HETATM    4  N   UNK N   1      34.173  16.353   6.848  0.00  0.00    -0.372 N 
ATOM      5  HN  UNK N   1      34.706  16.450   5.984  1.00  0.00     0.161 HD
HETATM    6  N   UNK N   1      32.781  16.499   9.199  0.00  0.00    -0.374 N 
ATOM      7  HN  UNK N   1      32.204  16.434  10.037  1.00  0.00     0.160 HD
HETATM    8  N   UNK N   1      30.261  17.311   6.782  0.00  0.00    -0.154 N 
ATOM      9  HN  UNK N   1      29.263  17.516   6.733  1.00  0.00     0.187 HD
HETATM   10  C   UNK N   1      34.225  16.339   9.328  0.00  0.00     0.131 C 
HETATM   11  C   UNK N   1      34.825  15.812   8.020  0.00  0.00     0.149 C 
HETATM   12  C   UNK N   1      31.007  17.339   5.648  0.00  0.00     0.680 A 
HETATM   13  C   UNK N   1      32.939  16.713   6.862  0.00  0.00     0.149 A 
HETATM   14  C   UNK N   1      30.831  17.010   7.995  0.00  0.00     0.289 A 
HETATM   15  C   UNK N   1      32.202  16.720   8.060  0.00  0.00     0.142 A 
HETATM   16  H   UNK N   1      30.923  17.605   3.582  0.00  0.00     0.174 HD
HETATM   17  H   UNK N   1      29.462  17.948   4.391  0.00  0.00     0.174 HD
HETATM   18  H   UNK N   1      32.857  17.057   4.860  0.00  0.00     0.186 HD
ENDROOT
BRANCH  10  19
HETATM   19  C   UNK N   1      34.546  15.381  10.495  0.00  0.00     0.170 C 
BRANCH  19  20
HETATM   20  O   UNK N   1      33.375  15.011  11.165  0.00  0.00    -0.391 OA
HETATM   21  H   UNK N   1      32.972  15.577  11.842  0.00  0.00     0.210 HD
ENDBRANCH  19  20
BRANCH  19  22
HETATM   22  C   UNK N   1      35.671  15.755  11.505  0.00  0.00     0.145 C 
HETATM   23  C   UNK N   1      35.974  14.759  12.613  0.00  0.00     0.042 C 
BRANCH  22  24
HETATM   24  O   UNK N   1      36.857  16.132  10.872  0.00  0.00    -0.393 OA
HETATM   25  H   UNK N   1      37.116  17.055  10.725  0.00  0.00     0.210 HD
ENDBRANCH  22  24
ENDBRANCH  19  22
ENDBRANCH  10  19
TORSDOF 4
ENDMDL
MODEL 4
REMARK VINA RESULT:      -5.9      3.636      6.122
REMARK  4 active torsions:
REMARK  status: ('A' for Active; 'I' for Inactive)
REMARK    1  A    between atoms: C_12  and  O_1 
REMARK    2  A    between atoms: C_13  and  O_2 
REMARK       I    between atoms: N_4  and  C_17 
REMARK    3  A    between atoms: C_12  and  C_13 
REMARK    4  A    between atoms: C_13  and  C_15 
ROOT
HETATM    1  O   UNK N   1      29.679  18.816  10.251  0.00  0.00    -0.265 OA
HETATM    2  N   UNK N   1      27.035  19.012   6.447  0.00  0.00    -0.234 N 
HETATM    3  N   UNK N   1      28.971  17.610   6.540  0.00  0.00    -0.175 N 
HETATM    4  N   UNK N   1      30.754  16.188   6.613  0.00  0.00    -0.372 N 
ATOM      5  HN  UNK N   1      30.574  15.970   5.633  1.00  0.00     0.161 HD
HETATM    6  N   UNK N   1      31.417  17.109   9.102  0.00  0.00    -0.374 N 
ATOM      7  HN  UNK N   1      31.561  17.374  10.076  1.00  0.00     0.160 HD
HETATM    8  N   UNK N   1      28.387  18.898   8.422  0.00  0.00    -0.154 N 
ATOM      9  HN  UNK N   1      27.749  19.554   8.874  1.00  0.00     0.187 HD
HETATM   10  C   UNK N   1      32.424  16.283   8.444  0.00  0.00     0.131 C 
HETATM   11  C   UNK N   1      31.791  15.464   7.315  0.00  0.00     0.149 C 
HETATM   12  C   UNK N   1      28.150  18.505   7.145  0.00  0.00     0.680 A 
HETATM   13  C   UNK N   1      30.049  17.096   7.189  0.00  0.00     0.149 A 
HETATM   14  C   UNK N   1      29.474  18.427   9.115  0.00  0.00     0.289 A 
HETATM   15  C   UNK N   1      30.347  17.519   8.497  0.00  0.00     0.142 A 
HETATM   16  H   UNK N   1      26.815  18.667   5.552  0.00  0.00     0.174 HD
HETATM   17  H   UNK N   1      26.476  19.712   6.856  0.00  0.00     0.174 HD
HETATM   18  H   UNK N   1      28.784  17.329   5.616  0.00  0.00     0.186 HD
ENDROOT
BRANCH  10  19
HETATM   19  C   UNK N   1      33.097  15.353   9.475  0.00  0.00     0.170 C 
BRANCH  19  20
HETATM   20  O   UNK N   1      32.177  14.947  10.449  0.00  0.00    -0.391 OA
HETATM   21  H   UNK N   1      31.239  14.814  10.241  0.00  0.00     0.210 HD
ENDBRANCH  19  20
BRANCH  19  22
HETATM   22  C   UNK N   1      34.444  15.782  10.129  0.00  0.00     0.145 C 
HETATM   23  C   UNK N   1      35.718  15.162   9.575  0.00  0.00     0.042 C 
BRANCH  22  24
HETATM   24  O   UNK N   1      34.588  17.168  10.202  0.00  0.00    -0.393 OA
HETATM   25  H   UNK N   1      34.447  17.680  11.013  0.00  0.00     0.210 HD
ENDBRANCH  22  24
ENDBRANCH  19  22
ENDBRANCH  10  19
TORSDOF 4
ENDMDL
MODEL 5
REMARK VINA RESULT:      -5.9      2.363      5.245
REMARK  4 active torsions:
REMARK  status: ('A' for Active; 'I' for Inactive)
REMARK    1  A    between atoms: C_12  and  O_1 
REMARK    2  A    between atoms: C_13  and  O_2 
REMARK       I    between atoms: N_4  and  C_17 
REMARK    3  A    between atoms: C_12  and  C_13 
REMARK    4  A    between atoms: C_13  and  C_15 
ROOT
HETATM    1  O   UNK N   1      34.643  17.839   7.142  0.00  0.00    -0.265 OA
HETATM    2  N   UNK N   1      30.074  17.748   7.926  0.00  0.00    -0.234 N 
HETATM    3  N   UNK N   1      31.566  16.310   9.121  0.00  0.00    -0.175 N 
HETATM    4  N   UNK N   1      32.957  14.985  10.353  0.00  0.00    -0.372 N 
ATOM      5  HN  UNK N   1      32.128  14.570  10.777  1.00  0.00     0.161 HD
HETATM    6  N   UNK N   1      35.107  15.853   8.900  0.00  0.00    -0.374 N 
ATOM      7  HN  UNK N   1      35.902  16.291   8.434  1.00  0.00     0.160 HD
HETATM    8  N   UNK N   1      32.436  17.813   7.532  0.00  0.00    -0.154 N 
ATOM      9  HN  UNK N   1      32.283  18.558   6.852  1.00  0.00     0.187 HD
HETATM   10  C   UNK N   1      35.348  14.697   9.758  0.00  0.00     0.131 C 
HETATM   11  C   UNK N   1      34.264  14.594  10.835  0.00  0.00     0.149 C 
HETATM   12  C   UNK N   1      31.376  17.280   8.192  0.00  0.00     0.680 A 
HETATM   13  C   UNK N   1      32.811  15.843   9.407  0.00  0.00     0.149 A 
HETATM   14  C   UNK N   1      33.712  17.363   7.766  0.00  0.00     0.289 A 
HETATM   15  C   UNK N   1      33.924  16.344   8.707  0.00  0.00     0.142 A 
HETATM   16  H   UNK N   1      29.314  17.421   8.461  0.00  0.00     0.174 HD
HETATM   17  H   UNK N   1      29.924  18.401   7.205  0.00  0.00     0.174 HD
HETATM   18  H   UNK N   1      30.789  15.937   9.597  0.00  0.00     0.186 HD
ENDROOT
BRANCH  10  19
HETATM   19  C   UNK N   1      36.745  14.805  10.405  0.00  0.00     0.170 C 
BRANCH  19  20
HETATM   20  O   UNK N   1      36.983  16.110  10.852  0.00  0.00    -0.391 OA
HETATM   21  H   UNK N   1      37.723  16.638  10.516  0.00  0.00     0.210 HD
ENDBRANCH  19  20
BRANCH  19  22
HETATM   22  C   UNK N   1      37.985  14.242   9.649  0.00  0.00     0.145 C 
HETATM   23  C   UNK N   1      38.757  13.114  10.315  0.00  0.00     0.042 C 
BRANCH  22  24
HETATM   24  O   UNK N   1      37.696  13.899   8.327  0.00  0.00    -0.393 OA
HETATM   25  H   UNK N   1      36.857  14.111   7.889  0.00  0.00     0.210 HD
ENDBRANCH  22  24
ENDBRANCH  19  22
ENDBRANCH  10  19
TORSDOF 4
ENDMDL
MODEL 6
REMARK VINA RESULT:      -5.8      3.342      6.447
REMARK  4 active torsions:
REMARK  status: ('A' for Active; 'I' for Inactive)
REMARK    1  A    between atoms: C_12  and  O_1 
REMARK    2  A    between atoms: C_13  and  O_2 
REMARK       I    between atoms: N_4  and  C_17 
REMARK    3  A    between atoms: C_12  and  C_13 
REMARK    4  A    between atoms: C_13  and  C_15 
ROOT
HETATM    1  O   UNK N   1      33.228  13.804   9.233  0.00  0.00    -0.265 OA
HETATM    2  N   UNK N   1      34.734  18.174   8.858  0.00  0.00    -0.234 N 
HETATM    3  N   UNK N   1      35.394  16.788  10.693  0.00  0.00    -0.175 N 
HETATM    4  N   UNK N   1      36.126  15.477  12.411  0.00  0.00    -0.372 N 
ATOM      5  HN  UNK N   1      36.602  16.297  12.786  1.00  0.00     0.161 HD
HETATM    6  N   UNK N   1      34.509  13.435  11.572  0.00  0.00    -0.374 N 
ATOM      7  HN  UNK N   1      34.002  12.651  11.162  1.00  0.00     0.160 HD
HETATM    8  N   UNK N   1      33.970  15.910   9.037  0.00  0.00    -0.154 N 
ATOM      9  HN  UNK N   1      33.466  16.031   8.158  1.00  0.00     0.187 HD
HETATM   10  C   UNK N   1      35.100  13.271  12.897  0.00  0.00     0.131 C 
HETATM   11  C   UNK N   1      36.308  14.199  13.063  0.00  0.00     0.149 C 
HETATM   12  C   UNK N   1      34.693  16.942   9.541  0.00  0.00     0.680 A 
HETATM   13  C   UNK N   1      35.383  15.610  11.371  0.00  0.00     0.149 A 
HETATM   14  C   UNK N   1      33.906  14.705   9.693  0.00  0.00     0.289 A 
HETATM   15  C   UNK N   1      34.605  14.537  10.897  0.00  0.00     0.142 A 
HETATM   16  H   UNK N   1      35.322  18.896   9.178  0.00  0.00     0.174 HD
HETATM   17  H   UNK N   1      34.174  18.312   8.060  0.00  0.00     0.174 HD
HETATM   18  H   UNK N   1      35.919  17.542  11.044  0.00  0.00     0.186 HD
ENDROOT
BRANCH  10  19
HETATM   19  C   UNK N   1      35.514  11.800  13.110  0.00  0.00     0.170 C 
BRANCH  19  20
HETATM   20  O   UNK N   1      36.444  11.404  12.141  0.00  0.00    -0.391 OA
HETATM   21  H   UNK N   1      36.748  10.486  12.069  0.00  0.00     0.210 HD
ENDBRANCH  19  20
BRANCH  19  22
HETATM   22  C   UNK N   1      34.414  10.715  13.301  0.00  0.00     0.145 C 
HETATM   23  C   UNK N   1      33.591  10.771  14.578  0.00  0.00     0.042 C 
BRANCH  22  24
HETATM   24  O   UNK N   1      33.565  10.612  12.197  0.00  0.00    -0.393 OA
HETATM   25  H   UNK N   1      33.841  10.252  11.340  0.00  0.00     0.210 HD
ENDBRANCH  22  24
ENDBRANCH  19  22
ENDBRANCH  10  19
TORSDOF 4
ENDMDL
MODEL 7
REMARK VINA RESULT:      -5.6      1.917      2.175
REMARK  4 active torsions:
REMARK  status: ('A' for Active; 'I' for Inactive)
REMARK    1  A    between atoms: C_12  and  O_1 
REMARK    2  A    between atoms: C_13  and  O_2 
REMARK       I    between atoms: N_4  and  C_17 
REMARK    3  A    between atoms: C_12  and  C_13 
REMARK    4  A    between atoms: C_13  and  C_15 
ROOT
HETATM    1  O   UNK N   1      37.945  14.257   9.448  0.00  0.00    -0.265 OA
HETATM    2  N   UNK N   1      36.864  13.238  13.840  0.00  0.00    -0.234 N 
HETATM    3  N   UNK N   1      35.238  14.154  12.344  0.00  0.00    -0.175 N 
HETATM    4  N   UNK N   1      33.628  14.938  10.930  0.00  0.00    -0.372 N 
ATOM      5  HN  UNK N   1      32.992  14.966  11.727  1.00  0.00     0.161 HD
HETATM    6  N   UNK N   1      35.482  15.218   8.937  0.00  0.00    -0.374 N 
ATOM      7  HN  UNK N   1      36.162  15.185   8.178  1.00  0.00     0.160 HD
HETATM    8  N   UNK N   1      37.422  13.744  11.566  0.00  0.00    -0.154 N 
ATOM      9  HN  UNK N   1      38.365  13.396  11.740  1.00  0.00     0.187 HD
HETATM   10  C   UNK N   1      34.189  15.850   8.693  0.00  0.00     0.131 C 
HETATM   11  C   UNK N   1      33.119  15.256   9.614  0.00  0.00     0.149 C 
HETATM   12  C   UNK N   1      36.505  13.724  12.567  0.00  0.00     0.680 A 
HETATM   13  C   UNK N   1      34.858  14.620  11.125  0.00  0.00     0.149 A 
HETATM   14  C   UNK N   1      37.097  14.225  10.322  0.00  0.00     0.289 A 
HETATM   15  C   UNK N   1      35.798  14.695  10.080  0.00  0.00     0.142 A 
HETATM   16  H   UNK N   1      36.181  13.146  14.544  0.00  0.00     0.174 HD
HETATM   17  H   UNK N   1      37.798  12.990  14.026  0.00  0.00     0.174 HD
HETATM   18  H   UNK N   1      34.582  14.128  13.077  0.00  0.00     0.186 HD
ENDROOT
BRANCH  10  19
HETATM   19  C   UNK N   1      33.789  15.672   7.213  0.00  0.00     0.170 C 
BRANCH  19  20
HETATM   20  O   UNK N   1      34.331  14.491   6.693  0.00  0.00    -0.391 OA
HETATM   21  H   UNK N   1      35.129  14.493   6.143  0.00  0.00     0.210 HD
ENDBRANCH  19  20
BRANCH  19  22
HETATM   22  C   UNK N   1      33.982  16.856   6.220  0.00  0.00     0.145 C 
HETATM   23  C   UNK N   1      32.773  17.288   5.404  0.00  0.00     0.042 C 
BRANCH  22  24
HETATM   24  O   UNK N   1      34.567  17.971   6.822  0.00  0.00    -0.393 OA
HETATM   25  H   UNK N   1      34.777  18.789   6.345  0.00  0.00     0.210 HD
ENDBRANCH  22  24
ENDBRANCH  19  22
ENDBRANCH  10  19
TORSDOF 4
ENDMDL
MODEL 8
REMARK VINA RESULT:      -5.5     10.511     13.016
REMARK  4 active torsions:
REMARK  status: ('A' for Active; 'I' for Inactive)
REMARK    1  A    between atoms: C_12  and  O_1 
REMARK    2  A    between atoms: C_13  and  O_2 
REMARK       I    between atoms: N_4  and  C_17 
REMARK    3  A    between atoms: C_12  and  C_13 
REMARK    4  A    between atoms: C_13  and  C_15 
ROOT
HETATM    1  O   UNK N   1      22.632  21.372   2.766  0.00  0.00    -0.265 OA
HETATM    2  N   UNK N   1      18.800  18.781   2.444  0.00  0.00    -0.234 N 
HETATM    3  N   UNK N   1      20.833  17.884   3.331  0.00  0.00    -0.175 N 
HETATM    4  N   UNK N   1      22.720  17.010   4.270  0.00  0.00    -0.372 N 
ATOM      5  HN  UNK N   1      22.236  16.114   4.321  1.00  0.00     0.161 HD
HETATM    6  N   UNK N   1      24.083  19.322   3.738  0.00  0.00    -0.374 N 
ATOM      7  HN  UNK N   1      24.524  20.237   3.650  1.00  0.00     0.160 HD
HETATM    8  N   UNK N   1      20.772  20.130   2.627  0.00  0.00    -0.154 N 
ATOM      9  HN  UNK N   1      20.246  20.917   2.249  1.00  0.00     0.187 HD
HETATM   10  C   UNK N   1      24.900  18.186   4.149  0.00  0.00     0.131 C 
HETATM   11  C   UNK N   1      24.039  17.131   4.850  0.00  0.00     0.149 C 
HETATM   12  C   UNK N   1      20.155  18.933   2.800  0.00  0.00     0.680 A 
HETATM   13  C   UNK N   1      22.138  18.000   3.692  0.00  0.00     0.149 A 
HETATM   14  C   UNK N   1      22.095  20.296   2.955  0.00  0.00     0.289 A 
HETATM   15  C   UNK N   1      22.816  19.215   3.483  0.00  0.00     0.142 A 
HETATM   16  H   UNK N   1      18.329  17.940   2.644  0.00  0.00     0.174 HD
HETATM   17  H   UNK N   1      18.324  19.518   1.996  0.00  0.00     0.174 HD
HETATM   18  H   UNK N   1      20.371  17.023   3.456  0.00  0.00     0.186 HD
ENDROOT
BRANCH  10  19
HETATM   19  C   UNK N   1      26.035  18.663   5.079  0.00  0.00     0.170 C 
BRANCH  19  20
HETATM   20  O   UNK N   1      25.597  19.715   5.892  0.00  0.00    -0.391 OA
HETATM   21  H   UNK N   1      25.179  20.507   5.522  0.00  0.00     0.210 HD
ENDBRANCH  19  20
BRANCH  19  22
HETATM   22  C   UNK N   1      27.439  18.972   4.479  0.00  0.00     0.145 C 
HETATM   23  C   UNK N   1      28.290  17.788   4.048  0.00  0.00     0.042 C 
BRANCH  22  24
HETATM   24  O   UNK N   1      27.387  19.915   3.451  0.00  0.00    -0.393 OA
HETATM   25  H   UNK N   1      28.028  20.636   3.352  0.00  0.00     0.210 HD
ENDBRANCH  22  24
ENDBRANCH  19  22
ENDBRANCH  10  19
TORSDOF 4
ENDMDL
MODEL 9
REMARK VINA RESULT:      -5.3     13.920     16.361
REMARK  4 active torsions:
REMARK  status: ('A' for Active; 'I' for Inactive)
REMARK    1  A    between atoms: C_12  and  O_1 
REMARK    2  A    between atoms: C_13  and  O_2 
REMARK       I    between atoms: N_4  and  C_17 
REMARK    3  A    between atoms: C_12  and  C_13 
REMARK    4  A    between atoms: C_13  and  C_15 
ROOT
HETATM    1  O   UNK N   1      30.505  23.027  -1.479  0.00  0.00    -0.265 OA
HETATM    2  N   UNK N   1      32.350  19.813  -4.265  0.00  0.00    -0.234 N 
HETATM    3  N   UNK N   1      30.577  21.234  -5.015  0.00  0.00    -0.175 N 
HETATM    4  N   UNK N   1      28.953  22.627  -5.807  0.00  0.00    -0.372 N 
ATOM      5  HN  UNK N   1      28.957  22.083  -6.669  1.00  0.00     0.161 HD
HETATM    6  N   UNK N   1      28.711  23.785  -3.340  0.00  0.00    -0.374 N 
ATOM      7  HN  UNK N   1      28.737  24.285  -2.451  1.00  0.00     0.160 HD
HETATM    8  N   UNK N   1      31.414  21.486  -2.829  0.00  0.00    -0.154 N 
ATOM      9  HN  UNK N   1      32.075  21.208  -2.105  1.00  0.00     0.187 HD
HETATM   10  C   UNK N   1      27.662  24.114  -4.298  0.00  0.00     0.131 C 
HETATM   11  C   UNK N   1      28.126  23.811  -5.727  0.00  0.00     0.149 C 
HETATM   12  C   UNK N   1      31.430  20.855  -4.031  0.00  0.00     0.680 A 
HETATM   13  C   UNK N   1      29.685  22.241  -4.823  0.00  0.00     0.149 A 
HETATM   14  C   UNK N   1      30.517  22.495  -2.574  0.00  0.00     0.289 A 
HETATM   15  C   UNK N   1      29.613  22.884  -3.573  0.00  0.00     0.142 A 
HETATM   16  H   UNK N   1      32.419  19.409  -5.161  0.00  0.00     0.174 HD
HETATM   17  H   UNK N   1      32.923  19.489  -3.533  0.00  0.00     0.174 HD
HETATM   18  H   UNK N   1      30.605  20.771  -5.884  0.00  0.00     0.186 HD
ENDROOT
BRANCH  10  19
HETATM   19  C   UNK N   1      27.270  25.600  -4.160  0.00  0.00     0.170 C 
BRANCH  19  20
HETATM   20  O   UNK N   1      26.406  25.784  -3.075  0.00  0.00    -0.391 OA
HETATM   21  H   UNK N   1      25.745  26.493  -3.062  0.00  0.00     0.210 HD
ENDBRANCH  19  20
BRANCH  19  22
HETATM   22  C   UNK N   1      26.764  26.378  -5.411  0.00  0.00     0.145 C 
HETATM   23  C   UNK N   1      25.261  26.537  -5.575  0.00  0.00     0.042 C 
BRANCH  22  24
HETATM   24  O   UNK N   1      27.388  27.618  -5.561  0.00  0.00    -0.393 OA
HETATM   25  H   UNK N   1      27.637  28.186  -4.815  0.00  0.00     0.210 HD
ENDBRANCH  22  24
ENDBRANCH  19  22
ENDBRANCH  10  19
TORSDOF 4
ENDMDL
