REMARK  10 active torsions:
REMARK  status: ('A' for Active; 'I' for Inactive)
REMARK    1  A    between atoms: C_4  and  C_3 
REMARK    2  A    between atoms: C_9  and  C_5 
REMARK    3  A    between atoms: C_10  and  C_6 
REMARK    4  A    between atoms: C_12  and  C_6 
REMARK    5  A    between atoms: C_11  and  C_8 
REMARK    6  A    between atoms: C_14  and  C_9 
REMARK    7  A    between atoms: O_18  and  C_12 
REMARK    8  A    between atoms: C_13  and  C_15 
REMARK    9  A    between atoms: O_20  and  C_14 
REMARK   10  A    between atoms: O_22  and  C_15 
ROOT
HETATM    1  C   UNK N   1       1.434   0.462   0.361  0.00  0.00     0.124 C 
HETATM    2  C   UNK N   1      -0.606   0.609  -0.848  0.00  0.00     0.038 C 
HETATM    3  C   UNK N   1       0.238   1.385   0.148  0.00  0.00     0.038 C 
HETATM    4  C   UNK N   1      -0.232  -0.864  -0.604  0.00  0.00     0.180 C 
HETATM    5  N   UNK N   1       1.189  -0.825  -0.290  0.00  0.00    -0.407 N 
HETATM    6  H   UNK N   1       1.878  -1.551  -0.486  0.00  0.00     0.154 HD
ENDROOT
BRANCH   3   7
HETATM    7  C   UNK N   1       0.448   2.861  -0.300  0.00  0.00    -0.078 C 
HETATM    8  C   UNK N   1      -0.745   3.763  -0.245  0.00  0.00     0.044 C 
HETATM    9  C   UNK N   1       1.625   3.442  -0.659  0.00  0.00     0.003 C 
BRANCH   9  10
HETATM   10  C   UNK N   1       2.894   2.705  -0.661  0.00  0.00    -0.003 C 
HETATM   11  C   UNK N   1       3.962   3.265  -0.095  0.00  0.00    -0.012 C 
BRANCH  11  12
HETATM   12  C   UNK N   1       5.088   2.417   0.454  0.00  0.00     0.102 C 
HETATM   13  C   UNK N   1       6.471   2.903   0.078  0.00  0.00     0.025 C 
BRANCH  12  14
HETATM   14  C   UNK N   1       4.942   0.914   0.322  0.00  0.00     0.147 C 
HETATM   15  O   UNK N   1       5.330   0.333  -0.679  0.00  0.00    -0.650 OA
BRANCH  14  16
HETATM   16  O   UNK N   1       4.340   0.213   1.306  0.00  0.00    -0.776 OA
HETATM   17  H   UNK N   1       3.710   0.331   1.990  0.00  0.00     0.167 HD
ENDBRANCH  14  16
ENDBRANCH  12  14
ENDBRANCH  11  12
ENDBRANCH   9  10
ENDBRANCH   3   7
BRANCH   2  18
HETATM   18  C   UNK N   1      -2.096   1.004  -1.004  0.00  0.00     0.117 C 
BRANCH  18  19
HETATM   19  C   UNK N   1      -2.926   1.357   0.216  0.00  0.00     0.139 C 
HETATM   20  O   UNK N   1      -2.424   1.843   1.216  0.00  0.00    -0.650 OA
BRANCH  19  21
HETATM   21  O   UNK N   1      -4.262   1.238   0.152  0.00  0.00    -0.776 OA
HETATM   22  H   UNK N   1      -4.800   2.004   0.108  0.00  0.00     0.167 HD
ENDBRANCH  19  21
ENDBRANCH  18  19
ENDBRANCH   2  18
BRANCH   4  23
HETATM   23  C   UNK N   1      -0.940  -1.634   0.484  0.00  0.00     0.163 C 
HETATM   24  O   UNK N   1      -0.562  -2.769   0.750  0.00  0.00    -0.648 OA
BRANCH  23  25
HETATM   25  O   UNK N   1      -1.994  -1.127   1.138  0.00  0.00    -0.775 OA
HETATM   26  H   UNK N   1      -2.056  -0.312   1.595  0.00  0.00     0.167 HD
ENDBRANCH  23  25
ENDBRANCH   4  23
TORSDOF 10
