MODEL 1
REMARK VINA RESULT:      -8.3      0.000      0.000
REMARK  16 active torsions:
REMARK  status: ('A' for Active; 'I' for Inactive)
REMARK    1  A    between atoms: C_20  and  C_7 
REMARK    2  A    between atoms: C_21  and  C_8 
REMARK    3  A    between atoms: C_11  and  C_9 
REMARK    4  A    between atoms: C_22  and  C_9 
REMARK    5  A    between atoms: C_12  and  C_10 
REMARK    6  A    between atoms: C_23  and  C_10 
REMARK    7  A    between atoms: C_30  and  C_11 
REMARK    8  A    between atoms: C_31  and  C_12 
REMARK    9  A    between atoms: C_24  and  C_13 
REMARK   10  A    between atoms: C_25  and  C_14 
REMARK   11  A    between atoms: C_28  and  C_14 
REMARK   12  A    between atoms: C_27  and  C_15 
REMARK   13  A    between atoms: C_29  and  C_15 
REMARK   14  A    between atoms: O_41  and  C_30 
REMARK   15  A    between atoms: O_43  and  C_31 
REMARK   16  A    between atoms: O_44  and  C_32 
ROOT
HETATM    1  C   UNK N   1      28.293  19.450   4.953  0.00  0.00     0.051 C 
HETATM    2  C   UNK N   1      28.148  17.968   5.006  0.00  0.00    -0.023 A 
HETATM    3  C   UNK N   1      26.929  17.321   4.962  0.00  0.00    -0.002 A 
HETATM    4  C   UNK N   1      29.131  16.976   5.087  0.00  0.00     0.041 A 
HETATM    5  C   UNK N   1      27.208  15.961   5.033  0.00  0.00     0.045 A 
HETATM    6  N   UNK N   1      28.541  15.770   5.095  0.00  0.00    -0.355 N 
HETATM    7  H   UNK N   1      29.001  14.900   5.139  0.00  0.00     0.166 HD
ENDROOT
BRANCH   5   8
HETATM    8  C   UNK N   1      26.240  14.833   5.082  0.00  0.00     0.060 C 
BRANCH   8   9
HETATM    9  C   UNK N   1      25.334  14.658   4.104  0.00  0.00     0.041 A 
HETATM   10  C   UNK N   1      25.592  14.419   2.767  0.00  0.00    -0.023 A 
HETATM   11  C   UNK N   1      26.933  14.272   2.126  0.00  0.00     0.051 C 
HETATM   12  C   UNK N   1      24.365  14.345   2.130  0.00  0.00    -0.002 A 
HETATM   13  C   UNK N   1      23.402  14.528   3.130  0.00  0.00     0.045 A 
HETATM   14  N   UNK N   1      24.006  14.728   4.314  0.00  0.00    -0.355 N 
HETATM   15  H   UNK N   1      23.559  14.893   5.176  0.00  0.00     0.166 HD
BRANCH  12  16
HETATM   16  C   UNK N   1      24.213  14.106   0.676  0.00  0.00     0.004 C 
HETATM   17  C   UNK N   1      23.542  13.080   0.159  0.00  0.00     0.012 C 
ENDBRANCH  12  16
BRANCH  13  18
HETATM   18  C   UNK N   1      22.062  14.464   3.016  0.00  0.00     0.060 C 
BRANCH  18  19
HETATM   19  C   UNK N   1      21.272  15.557   2.392  0.00  0.00     0.043 A 
HETATM   20  C   UNK N   1      20.814  16.765   3.097  0.00  0.00    -0.023 A 
HETATM   21  C   UNK N   1      21.041  17.101   4.534  0.00  0.00     0.051 C 
HETATM   22  C   UNK N   1      20.236  17.543   2.187  0.00  0.00     0.018 A 
HETATM   23  C   UNK N   1      20.299  16.779   0.938  0.00  0.00     0.252 A 
HETATM   24  N   UNK N   1      20.955  15.622   1.148  0.00  0.00    -0.323 N 
HETATM   25  O   UNK N   1      19.837  17.109  -0.138  0.00  0.00    -0.268 OA
ATOM     26  HN  UNK N   1      21.164  14.917   0.441  1.00  0.00     0.169 HD
BRANCH  22  27
HETATM   27  C   UNK N   1      19.706  18.928   2.447  0.00  0.00     0.055 C 
BRANCH  27  28
HETATM   28  C   UNK N   1      20.762  20.017   2.318  0.00  0.00     0.115 C 
BRANCH  28  29
HETATM   29  C   UNK N   1      20.677  20.737   1.006  0.00  0.00     0.139 C 
HETATM   30  O   UNK N   1      20.660  21.958   0.958  0.00  0.00    -0.650 OA
BRANCH  29  31
HETATM   31  O   UNK N   1      20.630  20.027  -0.135  0.00  0.00    -0.776 OA
HETATM   32  H   UNK N   1      19.959  19.394  -0.298  0.00  0.00     0.167 HD
ENDBRANCH  29  31
ENDBRANCH  28  29
ENDBRANCH  27  28
ENDBRANCH  22  27
ENDBRANCH  18  19
ENDBRANCH  13  18
ENDBRANCH   8   9
ENDBRANCH   5   8
BRANCH   3  33
HETATM   33  C   UNK N   1      25.627  18.023   4.901  0.00  0.00     0.004 C 
HETATM   34  C   UNK N   1      24.962  18.248   3.772  0.00  0.00     0.012 C 
ENDBRANCH   3  33
BRANCH   4  35
HETATM   35  C   UNK N   1      30.618  17.058   5.172  0.00  0.00     0.060 C 
HETATM   36  C   UNK N   1      31.379  16.778   6.243  0.00  0.00     0.042 A 
HETATM   37  C   UNK N   1      32.845  16.838   6.314  0.00  0.00    -0.025 A 
HETATM   38  N   UNK N   1      30.904  16.331   7.487  0.00  0.00    -0.336 N 
HETATM   39  C   UNK N   1      33.794  17.250   5.234  0.00  0.00     0.051 C 
HETATM   40  C   UNK N   1      33.176  16.461   7.551  0.00  0.00     0.001 A 
HETATM   41  C   UNK N   1      31.913  16.145   8.248  0.00  0.00     0.147 A 
ATOM     42  HN  UNK N   1      29.926  16.182   7.737  1.00  0.00     0.168 HD
BRANCH  40  43
HETATM   43  C   UNK N   1      34.580  16.388   8.092  0.00  0.00     0.054 C 
BRANCH  43  44
HETATM   44  C   UNK N   1      34.793  17.303   9.292  0.00  0.00     0.115 C 
BRANCH  44  45
HETATM   45  C   UNK N   1      35.252  16.509  10.475  0.00  0.00     0.139 C 
HETATM   46  O   UNK N   1      36.428  16.526  10.803  0.00  0.00    -0.650 OA
BRANCH  45  47
HETATM   47  O   UNK N   1      34.371  15.775  11.179  0.00  0.00    -0.776 OA
HETATM   48  H   UNK N   1      33.486  15.737  11.483  0.00  0.00     0.167 HD
ENDBRANCH  45  47
ENDBRANCH  44  45
ENDBRANCH  43  44
ENDBRANCH  40  43
BRANCH  41  49
HETATM   49  O   UNK N   1      31.790  15.700   9.511  0.00  0.00    -0.346 OA
HETATM   50  H   UNK N   1      32.466  15.387  10.080  0.00  0.00     0.219 HD
ENDBRANCH  41  49
ENDBRANCH   4  35
TORSDOF 16
ENDMDL
MODEL 2
REMARK VINA RESULT:      -8.1      2.741     12.550
REMARK  16 active torsions:
REMARK  status: ('A' for Active; 'I' for Inactive)
REMARK    1  A    between atoms: C_20  and  C_7 
REMARK    2  A    between atoms: C_21  and  C_8 
REMARK    3  A    between atoms: C_11  and  C_9 
REMARK    4  A    between atoms: C_22  and  C_9 
REMARK    5  A    between atoms: C_12  and  C_10 
REMARK    6  A    between atoms: C_23  and  C_10 
REMARK    7  A    between atoms: C_30  and  C_11 
REMARK    8  A    between atoms: C_31  and  C_12 
REMARK    9  A    between atoms: C_24  and  C_13 
REMARK   10  A    between atoms: C_25  and  C_14 
REMARK   11  A    between atoms: C_28  and  C_14 
REMARK   12  A    between atoms: C_27  and  C_15 
REMARK   13  A    between atoms: C_29  and  C_15 
REMARK   14  A    between atoms: O_41  and  C_30 
REMARK   15  A    between atoms: O_43  and  C_31 
REMARK   16  A    between atoms: O_44  and  C_32 
ROOT
HETATM    1  C   UNK N   1      26.683  21.010   7.156  0.00  0.00     0.051 C 
HETATM    2  C   UNK N   1      27.062  19.728   6.498  0.00  0.00    -0.023 A 
HETATM    3  C   UNK N   1      28.065  18.900   6.964  0.00  0.00    -0.002 A 
HETATM    4  C   UNK N   1      26.522  19.112   5.364  0.00  0.00     0.041 A 
HETATM    5  C   UNK N   1      28.113  17.819   6.092  0.00  0.00     0.045 A 
HETATM    6  N   UNK N   1      27.168  17.955   5.140  0.00  0.00    -0.355 N 
HETATM    7  H   UNK N   1      26.983  17.320   4.411  0.00  0.00     0.166 HD
ENDROOT
BRANCH   5   8
HETATM    8  C   UNK N   1      29.060  16.672   6.114  0.00  0.00     0.060 C 
BRANCH   8   9
HETATM    9  C   UNK N   1      30.322  16.810   5.673  0.00  0.00     0.041 A 
HETATM   10  C   UNK N   1      30.775  16.614   4.381  0.00  0.00    -0.023 A 
HETATM   11  C   UNK N   1      29.955  16.238   3.191  0.00  0.00     0.051 C 
HETATM   12  C   UNK N   1      32.142  16.831   4.399  0.00  0.00    -0.002 A 
HETATM   13  C   UNK N   1      32.458  17.171   5.721  0.00  0.00     0.045 A 
HETATM   14  N   UNK N   1      31.348  17.142   6.478  0.00  0.00    -0.355 N 
HETATM   15  H   UNK N   1      31.295  17.330   7.443  0.00  0.00     0.166 HD
BRANCH  12  16
HETATM   16  C   UNK N   1      33.005  16.710   3.202  0.00  0.00     0.004 C 
HETATM   17  C   UNK N   1      33.583  15.576   2.815  0.00  0.00     0.012 C 
ENDBRANCH  12  16
BRANCH  13  18
HETATM   18  C   UNK N   1      33.651  17.546   6.221  0.00  0.00     0.060 C 
BRANCH  18  19
HETATM   19  C   UNK N   1      34.177  16.995   7.497  0.00  0.00     0.043 A 
HETATM   20  C   UNK N   1      34.681  15.623   7.671  0.00  0.00    -0.023 A 
HETATM   21  C   UNK N   1      34.740  14.555   6.628  0.00  0.00     0.051 C 
HETATM   22  C   UNK N   1      35.154  15.543   8.909  0.00  0.00     0.018 A 
HETATM   23  C   UNK N   1      34.890  16.856   9.504  0.00  0.00     0.252 A 
HETATM   24  N   UNK N   1      34.330  17.665   8.584  0.00  0.00    -0.323 N 
HETATM   25  O   UNK N   1      35.123  17.195  10.649  0.00  0.00    -0.268 OA
ATOM     26  HN  UNK N   1      34.071  18.641   8.725  1.00  0.00     0.169 HD
BRANCH  22  27
HETATM   27  C   UNK N   1      35.856  14.343   9.489  0.00  0.00     0.055 C 
BRANCH  27  28
HETATM   28  C   UNK N   1      35.116  13.716  10.664  0.00  0.00     0.115 C 
BRANCH  28  29
HETATM   29  C   UNK N   1      36.050  13.276  11.751  0.00  0.00     0.139 C 
HETATM   30  O   UNK N   1      35.793  12.303  12.445  0.00  0.00    -0.650 OA
BRANCH  29  31
HETATM   31  O   UNK N   1      37.193  13.954  11.955  0.00  0.00    -0.776 OA
HETATM   32  H   UNK N   1      38.008  13.519  12.110  0.00  0.00     0.167 HD
ENDBRANCH  29  31
ENDBRANCH  28  29
ENDBRANCH  27  28
ENDBRANCH  22  27
ENDBRANCH  18  19
ENDBRANCH  13  18
ENDBRANCH   8   9
ENDBRANCH   5   8
BRANCH   3  33
HETATM   33  C   UNK N   1      28.906  19.211   8.142  0.00  0.00     0.004 C 
HETATM   34  C   UNK N   1      28.902  18.494   9.261  0.00  0.00     0.012 C 
ENDBRANCH   3  33
BRANCH   4  35
HETATM   35  C   UNK N   1      25.431  19.525   4.435  0.00  0.00     0.060 C 
HETATM   36  C   UNK N   1      24.168  19.069   4.425  0.00  0.00     0.042 A 
HETATM   37  C   UNK N   1      23.091  19.498   3.521  0.00  0.00    -0.025 A 
HETATM   38  N   UNK N   1      23.635  18.123   5.314  0.00  0.00    -0.336 N 
HETATM   39  C   UNK N   1      23.175  20.496   2.411  0.00  0.00     0.051 C 
HETATM   40  C   UNK N   1      22.007  18.805   3.877  0.00  0.00     0.001 A 
HETATM   41  C   UNK N   1      22.403  17.956   5.019  0.00  0.00     0.147 A 
ATOM     42  HN  UNK N   1      24.142  17.652   6.064  1.00  0.00     0.168 HD
BRANCH  40  43
HETATM   43  C   UNK N   1      20.658  18.898   3.212  0.00  0.00     0.054 C 
BRANCH  43  44
HETATM   44  C   UNK N   1      20.307  17.645   2.420  0.00  0.00     0.115 C 
BRANCH  44  45
HETATM   45  C   UNK N   1      20.354  17.929   0.951  0.00  0.00     0.139 C 
HETATM   46  O   UNK N   1      20.284  17.013   0.149  0.00  0.00    -0.650 OA
BRANCH  45  47
HETATM   47  O   UNK N   1      20.473  19.196   0.513  0.00  0.00    -0.776 OA
HETATM   48  H   UNK N   1      20.931  19.753  -0.085  0.00  0.00     0.167 HD
ENDBRANCH  45  47
ENDBRANCH  44  45
ENDBRANCH  43  44
ENDBRANCH  40  43
BRANCH  41  49
HETATM   49  O   UNK N   1      21.605  17.117   5.702  0.00  0.00    -0.346 OA
HETATM   50  H   UNK N   1      20.757  17.292   6.061  0.00  0.00     0.219 HD
ENDBRANCH  41  49
ENDBRANCH   4  35
TORSDOF 16
ENDMDL
MODEL 3
REMARK VINA RESULT:      -8.0      4.203      6.073
REMARK  16 active torsions:
REMARK  status: ('A' for Active; 'I' for Inactive)
REMARK    1  A    between atoms: C_20  and  C_7 
REMARK    2  A    between atoms: C_21  and  C_8 
REMARK    3  A    between atoms: C_11  and  C_9 
REMARK    4  A    between atoms: C_22  and  C_9 
REMARK    5  A    between atoms: C_12  and  C_10 
REMARK    6  A    between atoms: C_23  and  C_10 
REMARK    7  A    between atoms: C_30  and  C_11 
REMARK    8  A    between atoms: C_31  and  C_12 
REMARK    9  A    between atoms: C_24  and  C_13 
REMARK   10  A    between atoms: C_25  and  C_14 
REMARK   11  A    between atoms: C_28  and  C_14 
REMARK   12  A    between atoms: C_27  and  C_15 
REMARK   13  A    between atoms: C_29  and  C_15 
REMARK   14  A    between atoms: O_41  and  C_30 
REMARK   15  A    between atoms: O_43  and  C_31 
REMARK   16  A    between atoms: O_44  and  C_32 
ROOT
HETATM    1  C   UNK N   1      28.122  19.934   5.272  0.00  0.00     0.051 C 
HETATM    2  C   UNK N   1      27.982  18.629   4.567  0.00  0.00    -0.023 A 
HETATM    3  C   UNK N   1      26.816  18.218   3.951  0.00  0.00    -0.002 A 
HETATM    4  C   UNK N   1      28.924  17.614   4.369  0.00  0.00     0.041 A 
HETATM    5  C   UNK N   1      27.081  16.964   3.413  0.00  0.00     0.045 A 
HETATM    6  N   UNK N   1      28.360  16.620   3.662  0.00  0.00    -0.355 N 
HETATM    7  H   UNK N   1      28.804  15.788   3.378  0.00  0.00     0.166 HD
ENDROOT
BRANCH   5   8
HETATM    8  C   UNK N   1      26.140  16.061   2.697  0.00  0.00     0.060 C 
BRANCH   8   9
HETATM    9  C   UNK N   1      25.352  15.208   3.373  0.00  0.00     0.041 A 
HETATM   10  C   UNK N   1      25.195  13.855   3.132  0.00  0.00    -0.023 A 
HETATM   11  C   UNK N   1      25.890  13.045   2.088  0.00  0.00     0.051 C 
HETATM   12  C   UNK N   1      24.263  13.392   4.045  0.00  0.00    -0.002 A 
HETATM   13  C   UNK N   1      23.905  14.501   4.823  0.00  0.00     0.045 A 
HETATM   14  N   UNK N   1      24.564  15.591   4.395  0.00  0.00    -0.355 N 
HETATM   15  H   UNK N   1      24.485  16.501   4.762  0.00  0.00     0.166 HD
BRANCH  12  16
HETATM   16  C   UNK N   1      23.812  11.983   4.108  0.00  0.00     0.004 C 
HETATM   17  C   UNK N   1      24.265  11.097   4.991  0.00  0.00     0.012 C 
ENDBRANCH  12  16
BRANCH  13  18
HETATM   18  C   UNK N   1      23.086  14.538   5.891  0.00  0.00     0.060 C 
BRANCH  18  19
HETATM   19  C   UNK N   1      23.474  13.956   7.201  0.00  0.00     0.043 A 
HETATM   20  C   UNK N   1      22.704  12.929   7.922  0.00  0.00    -0.023 A 
HETATM   21  C   UNK N   1      21.417  12.310   7.487  0.00  0.00     0.051 C 
HETATM   22  C   UNK N   1      23.419  12.595   8.991  0.00  0.00     0.018 A 
HETATM   23  C   UNK N   1      24.601  13.459   8.944  0.00  0.00     0.252 A 
HETATM   24  N   UNK N   1      24.564  14.218   7.833  0.00  0.00    -0.323 N 
HETATM   25  O   UNK N   1      25.495  13.511   9.768  0.00  0.00    -0.268 OA
ATOM     26  HN  UNK N   1      25.277  14.886   7.541  1.00  0.00     0.169 HD
BRANCH  22  27
HETATM   27  C   UNK N   1      23.055  11.506   9.966  0.00  0.00     0.055 C 
BRANCH  27  28
HETATM   28  C   UNK N   1      22.473  12.029  11.272  0.00  0.00     0.115 C 
BRANCH  28  29
HETATM   29  C   UNK N   1      23.455  11.948  12.402  0.00  0.00     0.139 C 
HETATM   30  O   UNK N   1      23.078  11.769  13.551  0.00  0.00    -0.650 OA
BRANCH  29  31
HETATM   31  O   UNK N   1      24.770  12.063  12.145  0.00  0.00    -0.776 OA
HETATM   32  H   UNK N   1      25.257  11.375  11.736  0.00  0.00     0.167 HD
ENDBRANCH  29  31
ENDBRANCH  28  29
ENDBRANCH  27  28
ENDBRANCH  22  27
ENDBRANCH  18  19
ENDBRANCH  13  18
ENDBRANCH   8   9
ENDBRANCH   5   8
BRANCH   3  33
HETATM   33  C   UNK N   1      25.562  19.005   3.956  0.00  0.00     0.004 C 
HETATM   34  C   UNK N   1      25.274  19.941   3.057  0.00  0.00     0.012 C 
ENDBRANCH   3  33
BRANCH   4  35
HETATM   35  C   UNK N   1      30.345  17.480   4.804  0.00  0.00     0.060 C 
HETATM   36  C   UNK N   1      30.795  17.410   6.067  0.00  0.00     0.042 A 
HETATM   37  C   UNK N   1      32.194  17.256   6.488  0.00  0.00    -0.025 A 
HETATM   38  N   UNK N   1      29.995  17.430   7.221  0.00  0.00    -0.336 N 
HETATM   39  C   UNK N   1      33.406  17.177   5.616  0.00  0.00     0.051 C 
HETATM   40  C   UNK N   1      32.180  17.211   7.822  0.00  0.00     0.001 A 
HETATM   41  C   UNK N   1      30.765  17.318   8.234  0.00  0.00     0.147 A 
ATOM     42  HN  UNK N   1      28.979  17.517   7.245  1.00  0.00     0.168 HD
BRANCH  40  43
HETATM   43  C   UNK N   1      33.397  17.080   8.702  0.00  0.00     0.054 C 
BRANCH  43  44
HETATM   44  C   UNK N   1      33.544  15.684   9.293  0.00  0.00     0.115 C 
BRANCH  44  45
HETATM   45  C   UNK N   1      34.261  15.749  10.605  0.00  0.00     0.139 C 
HETATM   46  O   UNK N   1      34.198  14.811  11.383  0.00  0.00    -0.650 OA
BRANCH  45  47
HETATM   47  O   UNK N   1      34.977  16.841  10.929  0.00  0.00    -0.776 OA
HETATM   48  H   UNK N   1      35.478  17.552  10.582  0.00  0.00     0.167 HD
ENDBRANCH  45  47
ENDBRANCH  44  45
ENDBRANCH  43  44
ENDBRANCH  40  43
BRANCH  41  49
HETATM   49  O   UNK N   1      30.299  17.289   9.495  0.00  0.00    -0.346 OA
HETATM   50  H   UNK N   1      29.780  17.935   9.932  0.00  0.00     0.219 HD
ENDBRANCH  41  49
ENDBRANCH   4  35
TORSDOF 16
ENDMDL
MODEL 4
REMARK VINA RESULT:      -7.9      4.460      8.806
REMARK  16 active torsions:
REMARK  status: ('A' for Active; 'I' for Inactive)
REMARK    1  A    between atoms: C_20  and  C_7 
REMARK    2  A    between atoms: C_21  and  C_8 
REMARK    3  A    between atoms: C_11  and  C_9 
REMARK    4  A    between atoms: C_22  and  C_9 
REMARK    5  A    between atoms: C_12  and  C_10 
REMARK    6  A    between atoms: C_23  and  C_10 
REMARK    7  A    between atoms: C_30  and  C_11 
REMARK    8  A    between atoms: C_31  and  C_12 
REMARK    9  A    between atoms: C_24  and  C_13 
REMARK   10  A    between atoms: C_25  and  C_14 
REMARK   11  A    between atoms: C_28  and  C_14 
REMARK   12  A    between atoms: C_27  and  C_15 
REMARK   13  A    between atoms: C_29  and  C_15 
REMARK   14  A    between atoms: O_41  and  C_30 
REMARK   15  A    between atoms: O_43  and  C_31 
REMARK   16  A    between atoms: O_44  and  C_32 
ROOT
HETATM    1  C   UNK N   1      36.206  13.173   9.940  0.00  0.00     0.051 C 
HETATM    2  C   UNK N   1      35.689  14.564  10.074  0.00  0.00    -0.023 A 
HETATM    3  C   UNK N   1      35.113  15.266   9.033  0.00  0.00    -0.002 A 
HETATM    4  C   UNK N   1      35.656  15.402  11.194  0.00  0.00     0.041 A 
HETATM    5  C   UNK N   1      34.763  16.508   9.547  0.00  0.00     0.045 A 
HETATM    6  N   UNK N   1      35.086  16.570  10.855  0.00  0.00    -0.355 N 
HETATM    7  H   UNK N   1      34.931  17.335  11.456  0.00  0.00     0.166 HD
ENDROOT
BRANCH   5   8
HETATM    8  C   UNK N   1      34.162  17.659   8.822  0.00  0.00     0.060 C 
BRANCH   8   9
HETATM    9  C   UNK N   1      33.034  17.511   8.106  0.00  0.00     0.041 A 
HETATM   10  C   UNK N   1      32.936  17.352   6.735  0.00  0.00    -0.023 A 
HETATM   11  C   UNK N   1      34.064  17.279   5.760  0.00  0.00     0.051 C 
HETATM   12  C   UNK N   1      31.586  17.276   6.437  0.00  0.00    -0.002 A 
HETATM   13  C   UNK N   1      30.917  17.377   7.663  0.00  0.00     0.045 A 
HETATM   14  N   UNK N   1      31.807  17.530   8.658  0.00  0.00    -0.355 N 
HETATM   15  H   UNK N   1      31.599  17.635   9.615  0.00  0.00     0.166 HD
BRANCH  12  16
HETATM   16  C   UNK N   1      31.062  17.111   5.062  0.00  0.00     0.004 C 
HETATM   17  C   UNK N   1      31.680  17.563   3.973  0.00  0.00     0.012 C 
ENDBRANCH  12  16
BRANCH  13  18
HETATM   18  C   UNK N   1      29.595  17.279   7.899  0.00  0.00     0.060 C 
BRANCH  18  19
HETATM   19  C   UNK N   1      28.608  18.164   7.228  0.00  0.00     0.043 A 
HETATM   20  C   UNK N   1      27.691  17.735   6.159  0.00  0.00    -0.023 A 
HETATM   21  C   UNK N   1      27.596  16.371   5.559  0.00  0.00     0.051 C 
HETATM   22  C   UNK N   1      26.903  18.770   5.892  0.00  0.00     0.018 A 
HETATM   23  C   UNK N   1      27.378  19.846   6.766  0.00  0.00     0.252 A 
HETATM   24  N   UNK N   1      28.378  19.389   7.544  0.00  0.00    -0.323 N 
HETATM   25  O   UNK N   1      26.960  20.988   6.805  0.00  0.00    -0.268 OA
ATOM     26  HN  UNK N   1      28.869  19.922   8.261  1.00  0.00     0.169 HD
BRANCH  22  27
HETATM   27  C   UNK N   1      25.748  18.749   4.926  0.00  0.00     0.055 C 
BRANCH  27  28
HETATM   28  C   UNK N   1      26.056  19.421   3.595  0.00  0.00     0.115 C 
BRANCH  28  29
HETATM   29  C   UNK N   1      24.850  20.087   3.004  0.00  0.00     0.139 C 
HETATM   30  O   UNK N   1      23.737  19.908   3.478  0.00  0.00    -0.650 OA
BRANCH  29  31
HETATM   31  O   UNK N   1      24.998  20.903   1.946  0.00  0.00    -0.776 OA
HETATM   32  H   UNK N   1      24.320  21.490   1.674  0.00  0.00     0.167 HD
ENDBRANCH  29  31
ENDBRANCH  28  29
ENDBRANCH  27  28
ENDBRANCH  22  27
ENDBRANCH  18  19
ENDBRANCH  13  18
ENDBRANCH   8   9
ENDBRANCH   5   8
BRANCH   3  33
HETATM   33  C   UNK N   1      34.981  14.734   7.657  0.00  0.00     0.004 C 
HETATM   34  C   UNK N   1      34.030  13.884   7.283  0.00  0.00     0.012 C 
ENDBRANCH   3  33
BRANCH   4  35
HETATM   35  C   UNK N   1      36.135  15.207  12.593  0.00  0.00     0.060 C 
HETATM   36  C   UNK N   1      35.792  14.214  13.429  0.00  0.00     0.042 A 
HETATM   37  C   UNK N   1      36.285  14.015  14.799  0.00  0.00    -0.025 A 
HETATM   38  N   UNK N   1      34.923  13.154  13.124  0.00  0.00    -0.336 N 
HETATM   39  C   UNK N   1      37.238  14.880  15.560  0.00  0.00     0.051 C 
HETATM   40  C   UNK N   1      35.701  12.902  15.249  0.00  0.00     0.001 A 
HETATM   41  C   UNK N   1      34.856  12.394  14.148  0.00  0.00     0.147 A 
ATOM     42  HN  UNK N   1      34.432  13.016  12.240  1.00  0.00     0.168 HD
BRANCH  40  43
HETATM   43  C   UNK N   1      35.892  12.313  16.622  0.00  0.00     0.054 C 
BRANCH  43  44
HETATM   44  C   UNK N   1      34.762  12.675  17.577  0.00  0.00     0.115 C 
BRANCH  44  45
HETATM   45  C   UNK N   1      35.287  13.491  18.717  0.00  0.00     0.139 C 
HETATM   46  O   UNK N   1      35.550  14.671  18.553  0.00  0.00    -0.650 OA
BRANCH  45  47
HETATM   47  O   UNK N   1      35.470  12.925  19.924  0.00  0.00    -0.776 OA
HETATM   48  H   UNK N   1      35.876  13.035  20.761  0.00  0.00     0.167 HD
ENDBRANCH  45  47
ENDBRANCH  44  45
ENDBRANCH  43  44
ENDBRANCH  40  43
BRANCH  41  49
HETATM   49  O   UNK N   1      34.111  11.275  14.169  0.00  0.00    -0.346 OA
HETATM   50  H   UNK N   1      34.379  10.408  14.406  0.00  0.00     0.219 HD
ENDBRANCH  41  49
ENDBRANCH   4  35
TORSDOF 16
ENDMDL
MODEL 5
REMARK VINA RESULT:      -7.9      3.967      6.198
REMARK  16 active torsions:
REMARK  status: ('A' for Active; 'I' for Inactive)
REMARK    1  A    between atoms: C_20  and  C_7 
REMARK    2  A    between atoms: C_21  and  C_8 
REMARK    3  A    between atoms: C_11  and  C_9 
REMARK    4  A    between atoms: C_22  and  C_9 
REMARK    5  A    between atoms: C_12  and  C_10 
REMARK    6  A    between atoms: C_23  and  C_10 
REMARK    7  A    between atoms: C_30  and  C_11 
REMARK    8  A    between atoms: C_31  and  C_12 
REMARK    9  A    between atoms: C_24  and  C_13 
REMARK   10  A    between atoms: C_25  and  C_14 
REMARK   11  A    between atoms: C_28  and  C_14 
REMARK   12  A    between atoms: C_27  and  C_15 
REMARK   13  A    between atoms: C_29  and  C_15 
REMARK   14  A    between atoms: O_41  and  C_30 
REMARK   15  A    between atoms: O_43  and  C_31 
REMARK   16  A    between atoms: O_44  and  C_32 
ROOT
HETATM    1  C   UNK N   1      27.272  20.949   5.165  0.00  0.00     0.051 C 
HETATM    2  C   UNK N   1      26.846  19.537   4.952  0.00  0.00    -0.023 A 
HETATM    3  C   UNK N   1      26.012  19.140   3.924  0.00  0.00    -0.002 A 
HETATM    4  C   UNK N   1      27.179  18.384   5.672  0.00  0.00     0.041 A 
HETATM    5  C   UNK N   1      25.853  17.766   4.061  0.00  0.00     0.045 A 
HETATM    6  N   UNK N   1      26.574  17.324   5.112  0.00  0.00    -0.355 N 
HETATM    7  H   UNK N   1      26.644  16.389   5.415  0.00  0.00     0.166 HD
ENDROOT
BRANCH   5   8
HETATM    8  C   UNK N   1      25.004  16.860   3.242  0.00  0.00     0.060 C 
BRANCH   8   9
HETATM    9  C   UNK N   1      23.998  16.165   3.801  0.00  0.00     0.041 A 
HETATM   10  C   UNK N   1      23.256  15.159   3.209  0.00  0.00    -0.023 A 
HETATM   11  C   UNK N   1      23.433  14.607   1.833  0.00  0.00     0.051 C 
HETATM   12  C   UNK N   1      22.311  14.760   4.138  0.00  0.00    -0.002 A 
HETATM   13  C   UNK N   1      22.537  15.544   5.277  0.00  0.00     0.045 A 
HETATM   14  N   UNK N   1      23.553  16.395   5.050  0.00  0.00    -0.355 N 
HETATM   15  H   UNK N   1      23.906  17.062   5.682  0.00  0.00     0.166 HD
BRANCH  12  16
HETATM   16  C   UNK N   1      21.310  13.699   3.881  0.00  0.00     0.004 C 
HETATM   17  C   UNK N   1      21.385  12.470   4.387  0.00  0.00     0.012 C 
ENDBRANCH  12  16
BRANCH  13  18
HETATM   18  C   UNK N   1      21.922  15.473   6.472  0.00  0.00     0.060 C 
BRANCH  18  19
HETATM   19  C   UNK N   1      22.385  14.553   7.542  0.00  0.00     0.043 A 
HETATM   20  C   UNK N   1      21.649  14.281   8.787  0.00  0.00    -0.023 A 
HETATM   21  C   UNK N   1      20.342  14.873   9.199  0.00  0.00     0.051 C 
HETATM   22  C   UNK N   1      22.327  13.339   9.434  0.00  0.00     0.018 A 
HETATM   23  C   UNK N   1      23.504  13.077   8.602  0.00  0.00     0.252 A 
HETATM   24  N   UNK N   1      23.444  13.826   7.485  0.00  0.00    -0.323 N 
HETATM   25  O   UNK N   1      24.417  12.312   8.855  0.00  0.00    -0.268 OA
ATOM     26  HN  UNK N   1      24.121  13.817   6.722  1.00  0.00     0.169 HD
BRANCH  22  27
HETATM   27  C   UNK N   1      21.885  12.684  10.716  0.00  0.00     0.055 C 
BRANCH  27  28
HETATM   28  C   UNK N   1      22.796  11.550  11.166  0.00  0.00     0.115 C 
BRANCH  28  29
HETATM   29  C   UNK N   1      23.787  11.995  12.199  0.00  0.00     0.139 C 
HETATM   30  O   UNK N   1      23.500  11.994  13.387  0.00  0.00    -0.650 OA
BRANCH  29  31
HETATM   31  O   UNK N   1      25.013  12.390  11.812  0.00  0.00    -0.776 OA
HETATM   32  H   UNK N   1      25.784  12.146  12.284  0.00  0.00     0.167 HD
ENDBRANCH  29  31
ENDBRANCH  28  29
ENDBRANCH  27  28
ENDBRANCH  22  27
ENDBRANCH  18  19
ENDBRANCH  13  18
ENDBRANCH   8   9
ENDBRANCH   5   8
BRANCH   3  33
HETATM   33  C   UNK N   1      25.413  20.074   2.945  0.00  0.00     0.004 C 
HETATM   34  C   UNK N   1      24.188  20.577   3.058  0.00  0.00     0.012 C 
ENDBRANCH   3  33
BRANCH   4  35
HETATM   35  C   UNK N   1      28.029  18.180   6.880  0.00  0.00     0.060 C 
HETATM   36  C   UNK N   1      29.246  17.614   6.920  0.00  0.00     0.042 A 
HETATM   37  C   UNK N   1      30.089  17.436   8.111  0.00  0.00    -0.025 A 
HETATM   38  N   UNK N   1      29.955  17.124   5.812  0.00  0.00    -0.336 N 
HETATM   39  C   UNK N   1      29.765  17.813   9.521  0.00  0.00     0.051 C 
HETATM   40  C   UNK N   1      31.213  16.853   7.690  0.00  0.00     0.001 A 
HETATM   41  C   UNK N   1      31.080  16.684   6.229  0.00  0.00     0.147 A 
ATOM     42  HN  UNK N   1      29.629  17.120   4.846  1.00  0.00     0.168 HD
BRANCH  40  43
HETATM   43  C   UNK N   1      32.370  16.457   8.570  0.00  0.00     0.054 C 
BRANCH  43  44
HETATM   44  C   UNK N   1      33.500  17.479   8.548  0.00  0.00     0.115 C 
BRANCH  44  45
HETATM   45  C   UNK N   1      34.645  17.005   9.387  0.00  0.00     0.139 C 
HETATM   46  O   UNK N   1      34.802  15.812   9.588  0.00  0.00    -0.650 OA
BRANCH  45  47
HETATM   47  O   UNK N   1      35.504  17.893   9.921  0.00  0.00    -0.776 OA
HETATM   48  H   UNK N   1      36.278  18.394   9.757  0.00  0.00     0.167 HD
ENDBRANCH  45  47
ENDBRANCH  44  45
ENDBRANCH  43  44
ENDBRANCH  40  43
BRANCH  41  49
HETATM   49  O   UNK N   1      32.001  16.159   5.401  0.00  0.00    -0.346 OA
HETATM   50  H   UNK N   1      31.877  15.501   4.745  0.00  0.00     0.219 HD
ENDBRANCH  41  49
ENDBRANCH   4  35
TORSDOF 16
ENDMDL
MODEL 6
REMARK VINA RESULT:      -7.8      4.122     10.464
REMARK  16 active torsions:
REMARK  status: ('A' for Active; 'I' for Inactive)
REMARK    1  A    between atoms: C_20  and  C_7 
REMARK    2  A    between atoms: C_21  and  C_8 
REMARK    3  A    between atoms: C_11  and  C_9 
REMARK    4  A    between atoms: C_22  and  C_9 
REMARK    5  A    between atoms: C_12  and  C_10 
REMARK    6  A    between atoms: C_23  and  C_10 
REMARK    7  A    between atoms: C_30  and  C_11 
REMARK    8  A    between atoms: C_31  and  C_12 
REMARK    9  A    between atoms: C_24  and  C_13 
REMARK   10  A    between atoms: C_25  and  C_14 
REMARK   11  A    between atoms: C_28  and  C_14 
REMARK   12  A    between atoms: C_27  and  C_15 
REMARK   13  A    between atoms: C_29  and  C_15 
REMARK   14  A    between atoms: O_41  and  C_30 
REMARK   15  A    between atoms: O_43  and  C_31 
REMARK   16  A    between atoms: O_44  and  C_32 
ROOT
HETATM    1  C   UNK N   1      22.620  12.937   3.259  0.00  0.00     0.051 C 
HETATM    2  C   UNK N   1      23.291  14.209   3.648  0.00  0.00    -0.023 A 
HETATM    3  C   UNK N   1      24.228  14.848   2.859  0.00  0.00    -0.002 A 
HETATM    4  C   UNK N   1      23.127  14.992   4.796  0.00  0.00     0.041 A 
HETATM    5  C   UNK N   1      24.614  15.986   3.556  0.00  0.00     0.045 A 
HETATM    6  N   UNK N   1      23.931  16.065   4.716  0.00  0.00    -0.355 N 
HETATM    7  H   UNK N   1      24.008  16.782   5.387  0.00  0.00     0.166 HD
ENDROOT
BRANCH   5   8
HETATM    8  C   UNK N   1      25.644  16.987   3.170  0.00  0.00     0.060 C 
BRANCH   8   9
HETATM    9  C   UNK N   1      26.306  17.691   4.104  0.00  0.00     0.041 A 
HETATM   10  C   UNK N   1      26.436  19.067   4.168  0.00  0.00    -0.023 A 
HETATM   11  C   UNK N   1      25.842  20.067   3.233  0.00  0.00     0.051 C 
HETATM   12  C   UNK N   1      27.229  19.342   5.270  0.00  0.00    -0.002 A 
HETATM   13  C   UNK N   1      27.535  18.100   5.842  0.00  0.00     0.045 A 
HETATM   14  N   UNK N   1      26.979  17.114   5.117  0.00  0.00    -0.355 N 
HETATM   15  H   UNK N   1      27.049  16.148   5.296  0.00  0.00     0.166 HD
BRANCH  12  16
HETATM   16  C   UNK N   1      27.611  20.713   5.679  0.00  0.00     0.004 C 
HETATM   17  C   UNK N   1      26.929  21.441   6.559  0.00  0.00     0.012 C 
ENDBRANCH  12  16
BRANCH  13  18
HETATM   18  C   UNK N   1      28.217  17.852   6.976  0.00  0.00     0.060 C 
BRANCH  18  19
HETATM   19  C   UNK N   1      29.680  17.591   6.973  0.00  0.00     0.043 A 
HETATM   20  C   UNK N   1      30.601  17.985   8.051  0.00  0.00    -0.023 A 
HETATM   21  C   UNK N   1      30.248  18.711   9.307  0.00  0.00     0.051 C 
HETATM   22  C   UNK N   1      31.793  17.491   7.734  0.00  0.00     0.018 A 
HETATM   23  C   UNK N   1      31.604  16.841   6.435  0.00  0.00     0.252 A 
HETATM   24  N   UNK N   1      30.310  16.928   6.070  0.00  0.00    -0.323 N 
HETATM   25  O   UNK N   1      32.461  16.302   5.761  0.00  0.00    -0.268 OA
ATOM     26  HN  UNK N   1      29.901  16.534   5.223  1.00  0.00     0.169 HD
BRANCH  22  27
HETATM   27  C   UNK N   1      33.019  17.571   8.605  0.00  0.00     0.055 C 
BRANCH  27  28
HETATM   28  C   UNK N   1      33.730  16.235   8.778  0.00  0.00     0.115 C 
BRANCH  28  29
HETATM   29  C   UNK N   1      34.910  16.336   9.697  0.00  0.00     0.139 C 
HETATM   30  O   UNK N   1      35.916  15.669   9.504  0.00  0.00    -0.650 OA
BRANCH  29  31
HETATM   31  O   UNK N   1      34.864  17.182  10.742  0.00  0.00    -0.776 OA
HETATM   32  H   UNK N   1      35.351  17.981  10.754  0.00  0.00     0.167 HD
ENDBRANCH  29  31
ENDBRANCH  28  29
ENDBRANCH  27  28
ENDBRANCH  22  27
ENDBRANCH  18  19
ENDBRANCH  13  18
ENDBRANCH   8   9
ENDBRANCH   5   8
BRANCH   3  33
HETATM   33  C   UNK N   1      24.704  14.321   1.559  0.00  0.00     0.004 C 
HETATM   34  C   UNK N   1      23.923  14.167   0.494  0.00  0.00     0.012 C 
ENDBRANCH   3  33
BRANCH   4  35
HETATM   35  C   UNK N   1      22.269  14.816   6.002  0.00  0.00     0.060 C 
HETATM   36  C   UNK N   1      22.618  14.229   7.159  0.00  0.00     0.042 A 
HETATM   37  C   UNK N   1      21.775  14.078   8.353  0.00  0.00    -0.025 A 
HETATM   38  N   UNK N   1      23.880  13.686   7.450  0.00  0.00    -0.336 N 
HETATM   39  C   UNK N   1      20.354  14.511   8.525  0.00  0.00     0.051 C 
HETATM   40  C   UNK N   1      22.526  13.460   9.266  0.00  0.00     0.001 A 
HETATM   41  C   UNK N   1      23.850  13.241   8.647  0.00  0.00     0.147 A 
ATOM     42  HN  UNK N   1      24.679  13.654   6.817  1.00  0.00     0.168 HD
BRANCH  40  43
HETATM   43  C   UNK N   1      22.072  13.074  10.650  0.00  0.00     0.054 C 
BRANCH  43  44
HETATM   44  C   UNK N   1      22.623  11.724  11.092  0.00  0.00     0.115 C 
BRANCH  44  45
HETATM   45  C   UNK N   1      23.528  11.894  12.272  0.00  0.00     0.139 C 
HETATM   46  O   UNK N   1      23.104  11.702  13.399  0.00  0.00    -0.650 OA
BRANCH  45  47
HETATM   47  O   UNK N   1      24.811  12.259  12.091  0.00  0.00    -0.776 OA
HETATM   48  H   UNK N   1      25.377  12.846  11.629  0.00  0.00     0.167 HD
ENDBRANCH  45  47
ENDBRANCH  44  45
ENDBRANCH  43  44
ENDBRANCH  40  43
BRANCH  41  49
HETATM   49  O   UNK N   1      24.917  12.670   9.232  0.00  0.00    -0.346 OA
HETATM   50  H   UNK N   1      25.099  12.591  10.148  0.00  0.00     0.219 HD
ENDBRANCH  41  49
ENDBRANCH   4  35
TORSDOF 16
ENDMDL
MODEL 7
REMARK VINA RESULT:      -7.8      2.098      3.055
REMARK  16 active torsions:
REMARK  status: ('A' for Active; 'I' for Inactive)
REMARK    1  A    between atoms: C_20  and  C_7 
REMARK    2  A    between atoms: C_21  and  C_8 
REMARK    3  A    between atoms: C_11  and  C_9 
REMARK    4  A    between atoms: C_22  and  C_9 
REMARK    5  A    between atoms: C_12  and  C_10 
REMARK    6  A    between atoms: C_23  and  C_10 
REMARK    7  A    between atoms: C_30  and  C_11 
REMARK    8  A    between atoms: C_31  and  C_12 
REMARK    9  A    between atoms: C_24  and  C_13 
REMARK   10  A    between atoms: C_25  and  C_14 
REMARK   11  A    between atoms: C_28  and  C_14 
REMARK   12  A    between atoms: C_27  and  C_15 
REMARK   13  A    between atoms: C_29  and  C_15 
REMARK   14  A    between atoms: O_41  and  C_30 
REMARK   15  A    between atoms: O_43  and  C_31 
REMARK   16  A    between atoms: O_44  and  C_32 
ROOT
HETATM    1  C   UNK N   1      29.410  18.909   8.973  0.00  0.00     0.051 C 
HETATM    2  C   UNK N   1      29.345  18.170   7.681  0.00  0.00    -0.023 A 
HETATM    3  C   UNK N   1      28.536  18.548   6.627  0.00  0.00    -0.002 A 
HETATM    4  C   UNK N   1      30.042  17.030   7.267  0.00  0.00     0.041 A 
HETATM    5  C   UNK N   1      28.756  17.621   5.616  0.00  0.00     0.045 A 
HETATM    6  N   UNK N   1      29.676  16.719   6.013  0.00  0.00    -0.355 N 
HETATM    7  H   UNK N   1      30.020  15.966   5.479  0.00  0.00     0.166 HD
ENDROOT
BRANCH   5   8
HETATM    8  C   UNK N   1      28.087  17.542   4.289  0.00  0.00     0.060 C 
BRANCH   8   9
HETATM    9  C   UNK N   1      27.066  16.694   4.081  0.00  0.00     0.041 A 
HETATM   10  C   UNK N   1      27.025  15.653   3.171  0.00  0.00    -0.023 A 
HETATM   11  C   UNK N   1      28.118  15.227   2.247  0.00  0.00     0.051 C 
HETATM   12  C   UNK N   1      25.769  15.078   3.278  0.00  0.00    -0.002 A 
HETATM   13  C   UNK N   1      25.101  15.799   4.276  0.00  0.00     0.045 A 
HETATM   14  N   UNK N   1      25.896  16.778   4.741  0.00  0.00    -0.355 N 
HETATM   15  H   UNK N   1      25.665  17.435   5.438  0.00  0.00     0.166 HD
BRANCH  12  16
HETATM   16  C   UNK N   1      25.326  13.928   2.458  0.00  0.00     0.004 C 
HETATM   17  C   UNK N   1      24.638  14.045   1.325  0.00  0.00     0.012 C 
ENDBRANCH  12  16
BRANCH  13  18
HETATM   18  C   UNK N   1      23.879  15.569   4.792  0.00  0.00     0.060 C 
BRANCH  18  19
HETATM   19  C   UNK N   1      22.814  16.604   4.784  0.00  0.00     0.043 A 
HETATM   20  C   UNK N   1      21.830  16.783   3.704  0.00  0.00    -0.023 A 
HETATM   21  C   UNK N   1      21.732  15.987   2.444  0.00  0.00     0.051 C 
HETATM   22  C   UNK N   1      20.989  17.730   4.105  0.00  0.00     0.018 A 
HETATM   23  C   UNK N   1      21.497  18.162   5.411  0.00  0.00     0.252 A 
HETATM   24  N   UNK N   1      22.570  17.421   5.747  0.00  0.00    -0.323 N 
HETATM   25  O   UNK N   1      21.046  19.053   6.107  0.00  0.00    -0.268 OA
ATOM     26  HN  UNK N   1      23.098  17.494   6.616  1.00  0.00     0.169 HD
BRANCH  22  27
HETATM   27  C   UNK N   1      19.763  18.172   3.352  0.00  0.00     0.055 C 
BRANCH  27  28
HETATM   28  C   UNK N   1      20.049  19.218   2.283  0.00  0.00     0.115 C 
BRANCH  28  29
HETATM   29  C   UNK N   1      20.779  20.406   2.835  0.00  0.00     0.139 C 
HETATM   30  O   UNK N   1      21.853  20.757   2.367  0.00  0.00    -0.650 OA
BRANCH  29  31
HETATM   31  O   UNK N   1      20.239  21.100   3.852  0.00  0.00    -0.776 OA
HETATM   32  H   UNK N   1      19.392  20.896   4.196  0.00  0.00     0.167 HD
ENDBRANCH  29  31
ENDBRANCH  28  29
ENDBRANCH  27  28
ENDBRANCH  22  27
ENDBRANCH  18  19
ENDBRANCH  13  18
ENDBRANCH   8   9
ENDBRANCH   5   8
BRANCH   3  33
HETATM   33  C   UNK N   1      27.612  19.704   6.674  0.00  0.00     0.004 C 
HETATM   34  C   UNK N   1      27.783  20.816   5.966  0.00  0.00     0.012 C 
ENDBRANCH   3  33
BRANCH   4  35
HETATM   35  C   UNK N   1      31.043  16.171   7.966  0.00  0.00     0.060 C 
HETATM   36  C   UNK N   1      32.295  16.513   8.309  0.00  0.00     0.042 A 
HETATM   37  C   UNK N   1      33.268  15.670   9.017  0.00  0.00    -0.025 A 
HETATM   38  N   UNK N   1      32.889  17.766   8.087  0.00  0.00    -0.336 N 
HETATM   39  C   UNK N   1      33.090  14.258   9.474  0.00  0.00     0.051 C 
HETATM   40  C   UNK N   1      34.367  16.413   9.167  0.00  0.00     0.001 A 
HETATM   41  C   UNK N   1      34.072  17.731   8.569  0.00  0.00     0.147 A 
ATOM     42  HN  UNK N   1      32.452  18.563   7.624  1.00  0.00     0.168 HD
BRANCH  40  43
HETATM   43  C   UNK N   1      35.644  15.956   9.825  0.00  0.00     0.054 C 
BRANCH  43  44
HETATM   44  C   UNK N   1      35.640  16.182  11.331  0.00  0.00     0.115 C 
BRANCH  44  45
HETATM   45  C   UNK N   1      35.941  14.903  12.048  0.00  0.00     0.139 C 
HETATM   46  O   UNK N   1      35.421  13.861  11.683  0.00  0.00    -0.650 OA
BRANCH  45  47
HETATM   47  O   UNK N   1      36.785  14.899  13.096  0.00  0.00    -0.776 OA
HETATM   48  H   UNK N   1      37.350  15.432  13.619  0.00  0.00     0.167 HD
ENDBRANCH  45  47
ENDBRANCH  44  45
ENDBRANCH  43  44
ENDBRANCH  40  43
BRANCH  41  49
HETATM   49  O   UNK N   1      34.899  18.790   8.527  0.00  0.00    -0.346 OA
HETATM   50  H   UNK N   1      34.711  19.678   8.763  0.00  0.00     0.219 HD
ENDBRANCH  41  49
ENDBRANCH   4  35
TORSDOF 16
ENDMDL
MODEL 8
REMARK VINA RESULT:      -7.7      4.198      9.803
REMARK  16 active torsions:
REMARK  status: ('A' for Active; 'I' for Inactive)
REMARK    1  A    between atoms: C_20  and  C_7 
REMARK    2  A    between atoms: C_21  and  C_8 
REMARK    3  A    between atoms: C_11  and  C_9 
REMARK    4  A    between atoms: C_22  and  C_9 
REMARK    5  A    between atoms: C_12  and  C_10 
REMARK    6  A    between atoms: C_23  and  C_10 
REMARK    7  A    between atoms: C_30  and  C_11 
REMARK    8  A    between atoms: C_31  and  C_12 
REMARK    9  A    between atoms: C_24  and  C_13 
REMARK   10  A    between atoms: C_25  and  C_14 
REMARK   11  A    between atoms: C_28  and  C_14 
REMARK   12  A    between atoms: C_27  and  C_15 
REMARK   13  A    between atoms: C_29  and  C_15 
REMARK   14  A    between atoms: O_41  and  C_30 
REMARK   15  A    between atoms: O_43  and  C_31 
REMARK   16  A    between atoms: O_44  and  C_32 
ROOT
HETATM    1  C   UNK N   1      21.962  17.905   5.928  0.00  0.00     0.051 C 
HETATM    2  C   UNK N   1      22.947  17.086   5.167  0.00  0.00    -0.023 A 
HETATM    3  C   UNK N   1      23.836  17.619   4.253  0.00  0.00    -0.002 A 
HETATM    4  C   UNK N   1      23.190  15.709   5.213  0.00  0.00     0.041 A 
HETATM    5  C   UNK N   1      24.577  16.550   3.764  0.00  0.00     0.045 A 
HETATM    6  N   UNK N   1      24.184  15.407   4.362  0.00  0.00    -0.355 N 
HETATM    7  H   UNK N   1      24.559  14.511   4.204  0.00  0.00     0.166 HD
ENDROOT
BRANCH   5   8
HETATM    8  C   UNK N   1      25.628  16.576   2.711  0.00  0.00     0.060 C 
BRANCH   8   9
HETATM    9  C   UNK N   1      26.878  16.157   2.975  0.00  0.00     0.041 A 
HETATM   10  C   UNK N   1      27.362  14.867   2.857  0.00  0.00    -0.023 A 
HETATM   11  C   UNK N   1      26.610  13.668   2.381  0.00  0.00     0.051 C 
HETATM   12  C   UNK N   1      28.684  14.897   3.268  0.00  0.00    -0.002 A 
HETATM   13  C   UNK N   1      28.950  16.230   3.607  0.00  0.00     0.045 A 
HETATM   14  N   UNK N   1      27.844  16.974   3.434  0.00  0.00    -0.355 N 
HETATM   15  H   UNK N   1      27.757  17.939   3.610  0.00  0.00     0.166 HD
BRANCH  12  16
HETATM   16  C   UNK N   1      29.558  13.702   3.298  0.00  0.00     0.004 C 
HETATM   17  C   UNK N   1      30.301  13.300   2.269  0.00  0.00     0.012 C 
ENDBRANCH  12  16
BRANCH  13  18
HETATM   18  C   UNK N   1      30.120  16.774   3.990  0.00  0.00     0.060 C 
BRANCH  18  19
HETATM   19  C   UNK N   1      30.552  16.790   5.411  0.00  0.00     0.043 A 
HETATM   20  C   UNK N   1      31.822  16.234   5.906  0.00  0.00    -0.023 A 
HETATM   21  C   UNK N   1      32.876  15.556   5.095  0.00  0.00     0.051 C 
HETATM   22  C   UNK N   1      31.891  16.530   7.200  0.00  0.00     0.018 A 
HETATM   23  C   UNK N   1      30.635  17.223   7.500  0.00  0.00     0.252 A 
HETATM   24  N   UNK N   1      29.911  17.356   6.372  0.00  0.00    -0.323 N 
HETATM   25  O   UNK N   1      30.270  17.624   8.589  0.00  0.00    -0.268 OA
ATOM     26  HN  UNK N   1      29.009  17.825   6.293  1.00  0.00     0.169 HD
BRANCH  22  27
HETATM   27  C   UNK N   1      33.070  16.236   8.090  0.00  0.00     0.055 C 
BRANCH  27  28
HETATM   28  C   UNK N   1      33.575  17.455   8.851  0.00  0.00     0.115 C 
BRANCH  28  29
HETATM   29  C   UNK N   1      34.516  18.285   8.030  0.00  0.00     0.139 C 
HETATM   30  O   UNK N   1      35.101  19.241   8.518  0.00  0.00    -0.650 OA
BRANCH  29  31
HETATM   31  O   UNK N   1      34.728  17.964   6.741  0.00  0.00    -0.776 OA
HETATM   32  H   UNK N   1      34.649  17.084   6.430  0.00  0.00     0.167 HD
ENDBRANCH  29  31
ENDBRANCH  28  29
ENDBRANCH  27  28
ENDBRANCH  22  27
ENDBRANCH  18  19
ENDBRANCH  13  18
ENDBRANCH   8   9
ENDBRANCH   5   8
BRANCH   3  33
HETATM   33  C   UNK N   1      23.883  19.054   3.894  0.00  0.00     0.004 C 
HETATM   34  C   UNK N   1      24.999  19.776   3.884  0.00  0.00     0.012 C 
ENDBRANCH   3  33
BRANCH   4  35
HETATM   35  C   UNK N   1      22.548  14.614   5.997  0.00  0.00     0.060 C 
HETATM   36  C   UNK N   1      23.052  13.998   7.079  0.00  0.00     0.042 A 
HETATM   37  C   UNK N   1      22.405  12.935   7.860  0.00  0.00    -0.025 A 
HETATM   38  N   UNK N   1      24.283  14.292   7.686  0.00  0.00    -0.336 N 
HETATM   39  C   UNK N   1      21.077  12.296   7.606  0.00  0.00     0.051 C 
HETATM   40  C   UNK N   1      23.247  12.634   8.851  0.00  0.00     0.001 A 
HETATM   41  C   UNK N   1      24.415  13.525   8.699  0.00  0.00     0.147 A 
ATOM     42  HN  UNK N   1      24.953  14.995   7.373  1.00  0.00     0.168 HD
BRANCH  40  43
HETATM   43  C   UNK N   1      23.014  11.578   9.900  0.00  0.00     0.054 C 
BRANCH  43  44
HETATM   44  C   UNK N   1      22.519  12.161  11.218  0.00  0.00     0.115 C 
BRANCH  44  45
HETATM   45  C   UNK N   1      23.555  11.984  12.285  0.00  0.00     0.139 C 
HETATM   46  O   UNK N   1      23.218  11.692  13.421  0.00  0.00    -0.650 OA
BRANCH  45  47
HETATM   47  O   UNK N   1      24.858  12.146  11.993  0.00  0.00    -0.776 OA
HETATM   48  H   UNK N   1      25.699  12.349  12.355  0.00  0.00     0.167 HD
ENDBRANCH  45  47
ENDBRANCH  44  45
ENDBRANCH  43  44
ENDBRANCH  40  43
BRANCH  41  49
HETATM   49  O   UNK N   1      25.491  13.573   9.504  0.00  0.00    -0.346 OA
HETATM   50  H   UNK N   1      25.911  12.861   9.947  0.00  0.00     0.219 HD
ENDBRANCH  41  49
ENDBRANCH   4  35
TORSDOF 16
ENDMDL
MODEL 9
REMARK VINA RESULT:      -7.7      4.232     10.943
REMARK  16 active torsions:
REMARK  status: ('A' for Active; 'I' for Inactive)
REMARK    1  A    between atoms: C_20  and  C_7 
REMARK    2  A    between atoms: C_21  and  C_8 
REMARK    3  A    between atoms: C_11  and  C_9 
REMARK    4  A    between atoms: C_22  and  C_9 
REMARK    5  A    between atoms: C_12  and  C_10 
REMARK    6  A    between atoms: C_23  and  C_10 
REMARK    7  A    between atoms: C_30  and  C_11 
REMARK    8  A    between atoms: C_31  and  C_12 
REMARK    9  A    between atoms: C_24  and  C_13 
REMARK   10  A    between atoms: C_25  and  C_14 
REMARK   11  A    between atoms: C_28  and  C_14 
REMARK   12  A    between atoms: C_27  and  C_15 
REMARK   13  A    between atoms: C_29  and  C_15 
REMARK   14  A    between atoms: O_41  and  C_30 
REMARK   15  A    between atoms: O_43  and  C_31 
REMARK   16  A    between atoms: O_44  and  C_32 
ROOT
HETATM    1  C   UNK N   1      23.525  14.423   3.157  0.00  0.00     0.051 C 
HETATM    2  C   UNK N   1      24.241  15.483   3.922  0.00  0.00    -0.023 A 
HETATM    3  C   UNK N   1      25.340  16.163   3.435  0.00  0.00    -0.002 A 
HETATM    4  C   UNK N   1      23.975  16.001   5.194  0.00  0.00     0.041 A 
HETATM    5  C   UNK N   1      25.715  17.059   4.428  0.00  0.00     0.045 A 
HETATM    6  N   UNK N   1      24.874  16.958   5.478  0.00  0.00    -0.355 N 
HETATM    7  H   UNK N   1      24.912  17.491   6.305  0.00  0.00     0.166 HD
ENDROOT
BRANCH   5   8
HETATM    8  C   UNK N   1      26.877  17.987   4.428  0.00  0.00     0.060 C 
BRANCH   8   9
HETATM    9  C   UNK N   1      28.038  17.640   5.009  0.00  0.00     0.041 A 
HETATM   10  C   UNK N   1      28.515  18.075   6.233  0.00  0.00    -0.023 A 
HETATM   11  C   UNK N   1      27.829  18.998   7.185  0.00  0.00     0.051 C 
HETATM   12  C   UNK N   1      29.758  17.491   6.408  0.00  0.00    -0.002 A 
HETATM   13  C   UNK N   1      29.975  16.702   5.270  0.00  0.00     0.045 A 
HETATM   14  N   UNK N   1      28.931  16.815   4.432  0.00  0.00    -0.355 N 
HETATM   15  H   UNK N   1      28.835  16.373   3.557  0.00  0.00     0.166 HD
BRANCH  12  16
HETATM   16  C   UNK N   1      30.605  17.715   7.601  0.00  0.00     0.004 C 
HETATM   17  C   UNK N   1      30.364  17.177   8.794  0.00  0.00     0.012 C 
ENDBRANCH  12  16
BRANCH  13  18
HETATM   18  C   UNK N   1      31.010  15.881   5.012  0.00  0.00     0.060 C 
BRANCH  18  19
HETATM   19  C   UNK N   1      31.882  15.351   6.091  0.00  0.00     0.043 A 
HETATM   20  C   UNK N   1      33.171  15.938   6.490  0.00  0.00    -0.023 A 
HETATM   21  C   UNK N   1      33.829  17.137   5.889  0.00  0.00     0.051 C 
HETATM   22  C   UNK N   1      33.595  15.252   7.545  0.00  0.00     0.018 A 
HETATM   23  C   UNK N   1      32.584  14.212   7.754  0.00  0.00     0.252 A 
HETATM   24  N   UNK N   1      31.589  14.362   6.860  0.00  0.00    -0.323 N 
HETATM   25  O   UNK N   1      32.611  13.331   8.594  0.00  0.00    -0.268 OA
ATOM     26  HN  UNK N   1      30.746  13.791   6.802  1.00  0.00     0.169 HD
BRANCH  22  27
HETATM   27  C   UNK N   1      34.832  15.571   8.342  0.00  0.00     0.055 C 
BRANCH  27  28
HETATM   28  C   UNK N   1      34.544  16.316   9.639  0.00  0.00     0.115 C 
BRANCH  28  29
HETATM   29  C   UNK N   1      34.472  15.392  10.818  0.00  0.00     0.139 C 
HETATM   30  O   UNK N   1      35.477  15.097  11.449  0.00  0.00    -0.650 OA
BRANCH  29  31
HETATM   31  O   UNK N   1      33.282  14.891  11.194  0.00  0.00    -0.776 OA
HETATM   32  H   UNK N   1      33.200  14.038  11.571  0.00  0.00     0.167 HD
ENDBRANCH  29  31
ENDBRANCH  28  29
ENDBRANCH  27  28
ENDBRANCH  22  27
ENDBRANCH  18  19
ENDBRANCH  13  18
ENDBRANCH   8   9
ENDBRANCH   5   8
BRANCH   3  33
HETATM   33  C   UNK N   1      25.959  15.888   2.118  0.00  0.00     0.004 C 
HETATM   34  C   UNK N   1      26.995  15.074   1.944  0.00  0.00     0.012 C 
ENDBRANCH   3  33
BRANCH   4  35
HETATM   35  C   UNK N   1      22.930  15.664   6.204  0.00  0.00     0.060 C 
HETATM   36  C   UNK N   1      23.048  14.796   7.222  0.00  0.00     0.042 A 
HETATM   37  C   UNK N   1      22.022  14.486   8.228  0.00  0.00    -0.025 A 
HETATM   38  N   UNK N   1      24.198  14.055   7.535  0.00  0.00    -0.336 N 
HETATM   39  C   UNK N   1      20.635  15.036   8.316  0.00  0.00     0.051 C 
HETATM   40  C   UNK N   1      22.569  13.593   9.056  0.00  0.00     0.001 A 
HETATM   41  C   UNK N   1      23.947  13.361   8.577  0.00  0.00     0.147 A 
ATOM     42  HN  UNK N   1      25.079  14.069   7.020  1.00  0.00     0.168 HD
BRANCH  40  43
HETATM   43  C   UNK N   1      21.878  12.965  10.239  0.00  0.00     0.054 C 
BRANCH  43  44
HETATM   44  C   UNK N   1      22.557  11.682  10.701  0.00  0.00     0.115 C 
BRANCH  44  45
HETATM   45  C   UNK N   1      23.280  11.913  11.991  0.00  0.00     0.139 C 
HETATM   46  O   UNK N   1      22.712  11.720  13.053  0.00  0.00    -0.650 OA
BRANCH  45  47
HETATM   47  O   UNK N   1      24.558  12.334  11.982  0.00  0.00    -0.776 OA
HETATM   48  H   UNK N   1      25.118  13.061  11.791  0.00  0.00     0.167 HD
ENDBRANCH  45  47
ENDBRANCH  44  45
ENDBRANCH  43  44
ENDBRANCH  40  43
BRANCH  41  49
HETATM   49  O   UNK N   1      24.860  12.549   9.141  0.00  0.00    -0.346 OA
HETATM   50  H   UNK N   1      25.462  12.751   9.830  0.00  0.00     0.219 HD
ENDBRANCH  41  49
ENDBRANCH   4  35
TORSDOF 16
ENDMDL
