MODEL 1
REMARK VINA RESULT:      -8.6      0.000      0.000
REMARK  26 active torsions:
REMARK  status: ('A' for Active; 'I' for Inactive)
REMARK    1  A    between atoms: C_8  and  C_7 
REMARK    2  A    between atoms: C_19  and  C_7 
REMARK    3  A    between atoms: C_22  and  C_8 
REMARK    4  A    between atoms: C_14  and  C_10 
REMARK    5  A    between atoms: C_30  and  C_10 
REMARK    6  A    between atoms: C_21  and  C_11 
REMARK    7  A    between atoms: N_33  and  C_11 
REMARK    8  A    between atoms: C_20  and  C_12 
REMARK    9  A    between atoms: O_53  and  C_12 
REMARK   10  A    between atoms: C_30  and  C_13 
REMARK   11  A    between atoms: N_33  and  C_13 
REMARK   12  A    between atoms: C_25  and  C_15 
REMARK   13  A    between atoms: C_30  and  C_16 
REMARK   14  A    between atoms: C_28  and  C_19 
REMARK   15  A    between atoms: C_19  and  N_34 
REMARK   16  A    between atoms: C_21  and  O_40 
REMARK   17  A    between atoms: O_42  and  C_22 
REMARK   18  A    between atoms: C_23  and  O_43 
REMARK   19  A    between atoms: C_24  and  O_44 
REMARK       I    between atoms: N_34  and  C_25 
REMARK   20  A    between atoms: O_46  and  C_26 
REMARK   21  A    between atoms: C_27  and  N_36 
REMARK   22  A    between atoms: O_48  and  C_28 
REMARK       I    between atoms: N_31  and  C_29 
REMARK   23  A    between atoms: C_30  and  O_49 
REMARK   24  A    between atoms: P_55  and  O_50 
REMARK   25  A    between atoms: P_55  and  O_51 
REMARK   26  A    between atoms: P_55  and  O_53 
ROOT
HETATM    1  C   UNK N   1      25.247  15.610   5.232  0.00  0.00     0.104 C 
ENDROOT
BRANCH   1   2
HETATM    2  C   UNK N   1      24.224  14.543   5.655  0.00  0.00     0.083 C 
BRANCH   2   3
HETATM    3  C   UNK N   1      24.112  14.112   7.089  0.00  0.00    -0.054 A 
HETATM    4  C   UNK N   1      25.230  13.723   7.848  0.00  0.00     0.009 A 
HETATM    5  C   UNK N   1      25.060  13.191   9.136  0.00  0.00     0.031 A 
HETATM    6  C   UNK N   1      23.770  13.005   9.648  0.00  0.00     0.063 A 
HETATM    7  C   UNK N   1      22.652  13.377   8.880  0.00  0.00     0.043 A 
HETATM    8  N   UNK N   1      23.588  12.442  10.873  0.00  0.00    -0.191 N 
HETATM    9  C   UNK N   1      22.831  13.932   7.611  0.00  0.00     0.025 A 
HETATM   10  C   UNK N   1      21.376  13.154   9.403  0.00  0.00     0.167 A 
HETATM   11  N   UNK N   1      21.244  12.585  10.630  0.00  0.00    -0.170 N 
HETATM   12  C   UNK N   1      22.335  12.230  11.361  0.00  0.00     0.678 A 
ATOM     13  HN  UNK N   1      20.311  12.420  11.009  1.00  0.00     0.186 HD
HETATM   14  N   UNK N   1      22.181  11.685  12.508  0.00  0.00    -0.234 N 
HETATM   15  H   UNK N   1      22.946  11.523  13.105  0.00  0.00     0.174 HD
ATOM     16  HN  UNK N   1      21.245  11.414  12.810  1.00  0.00     0.174 HD
HETATM   17  H   UNK N   1      24.370  12.185  11.413  0.00  0.00     0.184 HD
BRANCH  10  18
HETATM   18  O   UNK N   1      20.279  13.483   8.698  0.00  0.00    -0.345 OA
HETATM   19  H   UNK N   1      20.232  14.309   8.258  0.00  0.00     0.219 HD
ENDBRANCH  10  18
ENDBRANCH   2   3
ENDBRANCH   1   2
BRANCH   1  20
HETATM   20  C   UNK N   1      25.799  15.043   3.902  0.00  0.00     0.157 C 
BRANCH  20  21
HETATM   21  N   UNK N   1      27.254  14.828   3.790  0.00  0.00    -0.411 N 
HETATM   22  H   UNK N   1      27.724  14.016   4.189  0.00  0.00     0.153 HD
BRANCH  21  23
HETATM   23  C   UNK N   1      27.969  15.878   3.057  0.00  0.00     0.198 C 
BRANCH  23  24
HETATM   24  C   UNK N   1      28.937  16.649   3.885  0.00  0.00     0.131 C 
HETATM   25  N   UNK N   1      28.646  16.857   5.127  0.00  0.00    -0.344 N 
ATOM     26  HN  UNK N   1      27.739  16.506   5.432  1.00  0.00     0.164 HD
BRANCH  25  27
HETATM   27  C   UNK N   1      29.440  17.523   6.153  0.00  0.00     0.254 C 
HETATM   28  C   UNK N   1      28.915  17.478   7.575  0.00  0.00     0.198 C 
HETATM   29  C   UNK N   1      30.130  17.880   8.362  0.00  0.00     0.182 C 
HETATM   30  C   UNK N   1      31.276  17.498   7.399  0.00  0.00     0.180 C 
HETATM   31  O   UNK N   1      30.707  16.922   6.239  0.00  0.00    -0.354 OA
BRANCH  28  32
HETATM   32  O   UNK N   1      27.825  18.329   7.787  0.00  0.00    -0.389 OA
HETATM   33  H   UNK N   1      27.641  18.680   8.673  0.00  0.00     0.210 HD
ENDBRANCH  28  32
BRANCH  29  34
HETATM   34  O   UNK N   1      30.158  17.189   9.580  0.00  0.00    -0.390 OA
HETATM   35  H   UNK N   1      30.147  16.311   9.994  0.00  0.00     0.210 HD
ENDBRANCH  29  34
BRANCH  30  36
HETATM   36  C   UNK N   1      32.315  16.578   8.022  0.00  0.00     0.215 C 
BRANCH  36  37
HETATM   37  O   UNK N   1      32.953  17.218   9.088  0.00  0.00    -0.294 OA
BRANCH  37  38
HETATM   38  P   UNK N   1      34.594  17.463   8.564  0.00  0.00     0.390 P 
HETATM   39  O   UNK N   1      35.541  16.960   9.688  0.00  0.00    -0.632 OA
BRANCH  38  40
HETATM   40  O   UNK N   1      34.928  19.153   8.357  0.00  0.00    -0.307 OA
HETATM   41  H   UNK N   1      35.407  19.689   9.008  0.00  0.00     0.222 HD
ENDBRANCH  38  40
BRANCH  38  42
HETATM   42  O   UNK N   1      34.961  16.571   7.120  0.00  0.00    -0.307 OA
HETATM   43  H   UNK N   1      35.630  15.872   7.059  0.00  0.00     0.222 HD
ENDBRANCH  38  42
ENDBRANCH  37  38
ENDBRANCH  36  37
ENDBRANCH  30  36
ENDBRANCH  25  27
BRANCH  24  44
HETATM   44  O   UNK N   1      30.088  17.076   3.334  0.00  0.00    -0.348 OA
HETATM   45  H   UNK N   1      30.579  16.931   2.549  0.00  0.00     0.219 HD
ENDBRANCH  24  44
ENDBRANCH  23  24
ENDBRANCH  21  23
ENDBRANCH  20  21
ENDBRANCH   1  20
BRANCH   1  46
HETATM   46  C   UNK N   1      24.615  16.965   4.977  0.00  0.00    -0.022 A 
HETATM   47  C   UNK N   1      25.322  17.882   4.193  0.00  0.00     0.011 A 
HETATM   48  C   UNK N   1      24.699  18.990   3.652  0.00  0.00     0.017 A 
HETATM   49  C   UNK N   1      23.354  19.239   3.915  0.00  0.00     0.032 A 
HETATM   50  C   UNK N   1      22.649  18.383   4.777  0.00  0.00     0.017 A 
HETATM   51  C   UNK N   1      23.270  17.230   5.284  0.00  0.00     0.011 A 
BRANCH  49  52
HETATM   52  C   UNK N   1      22.696  20.362   3.220  0.00  0.00     0.252 C 
HETATM   53  N   UNK N   1      21.349  20.503   3.248  0.00  0.00    -0.343 N 
HETATM   54  H   UNK N   1      20.960  20.883   4.069  0.00  0.00     0.163 HD
HETATM   55  O   UNK N   1      23.382  21.290   2.814  0.00  0.00    -0.268 OA
BRANCH  53  56
HETATM   56  C   UNK N   1      20.420  20.150   2.188  0.00  0.00     0.183 C 
BRANCH  56  57
HETATM   57  C   UNK N   1      20.488  18.653   1.899  0.00  0.00     0.046 C 
BRANCH  57  58
HETATM   58  C   UNK N   1      19.594  17.867   2.856  0.00  0.00     0.112 C 
BRANCH  58  59
HETATM   59  C   UNK N   1      20.054  16.446   2.977  0.00  0.00     0.139 C 
HETATM   60  O   UNK N   1      21.112  16.091   2.482  0.00  0.00    -0.650 OA
BRANCH  59  61
HETATM   61  O   UNK N   1      19.289  15.552   3.626  0.00  0.00    -0.776 OA
HETATM   62  H   UNK N   1      18.357  15.480   3.555  0.00  0.00     0.167 HD
ENDBRANCH  59  61
ENDBRANCH  58  59
ENDBRANCH  57  58
ENDBRANCH  56  57
BRANCH  56  63
HETATM   63  C   UNK N   1      20.567  20.932   0.906  0.00  0.00     0.163 C 
HETATM   64  O   UNK N   1      20.621  22.151   0.902  0.00  0.00    -0.648 OA
BRANCH  63  65
HETATM   65  O   UNK N   1      20.615  20.266  -0.264  0.00  0.00    -0.775 OA
HETATM   66  H   UNK N   1      20.668  19.356  -0.484  0.00  0.00     0.167 HD
ENDBRANCH  63  65
ENDBRANCH  56  63
ENDBRANCH  53  56
ENDBRANCH  49  52
ENDBRANCH   1  46
BRANCH   1  67
HETATM   67  O   UNK N   1      26.279  15.728   6.169  0.00  0.00    -0.383 OA
HETATM   68  H   UNK N   1      27.134  15.299   6.336  0.00  0.00     0.211 HD
ENDBRANCH   1  67
TORSDOF 26
ENDMDL
MODEL 2
REMARK VINA RESULT:      -8.6      1.530      2.588
REMARK  26 active torsions:
REMARK  status: ('A' for Active; 'I' for Inactive)
REMARK    1  A    between atoms: C_8  and  C_7 
REMARK    2  A    between atoms: C_19  and  C_7 
REMARK    3  A    between atoms: C_22  and  C_8 
REMARK    4  A    between atoms: C_14  and  C_10 
REMARK    5  A    between atoms: C_30  and  C_10 
REMARK    6  A    between atoms: C_21  and  C_11 
REMARK    7  A    between atoms: N_33  and  C_11 
REMARK    8  A    between atoms: C_20  and  C_12 
REMARK    9  A    between atoms: O_53  and  C_12 
REMARK   10  A    between atoms: C_30  and  C_13 
REMARK   11  A    between atoms: N_33  and  C_13 
REMARK   12  A    between atoms: C_25  and  C_15 
REMARK   13  A    between atoms: C_30  and  C_16 
REMARK   14  A    between atoms: C_28  and  C_19 
REMARK   15  A    between atoms: C_19  and  N_34 
REMARK   16  A    between atoms: C_21  and  O_40 
REMARK   17  A    between atoms: O_42  and  C_22 
REMARK   18  A    between atoms: C_23  and  O_43 
REMARK   19  A    between atoms: C_24  and  O_44 
REMARK       I    between atoms: N_34  and  C_25 
REMARK   20  A    between atoms: O_46  and  C_26 
REMARK   21  A    between atoms: C_27  and  N_36 
REMARK   22  A    between atoms: O_48  and  C_28 
REMARK       I    between atoms: N_31  and  C_29 
REMARK   23  A    between atoms: C_30  and  O_49 
REMARK   24  A    between atoms: P_55  and  O_50 
REMARK   25  A    between atoms: P_55  and  O_51 
REMARK   26  A    between atoms: P_55  and  O_53 
ROOT
HETATM    1  C   UNK N   1      25.608  15.794   5.617  0.00  0.00     0.104 C 
ENDROOT
BRANCH   1   2
HETATM    2  C   UNK N   1      24.843  14.471   5.795  0.00  0.00     0.083 C 
BRANCH   2   3
HETATM    3  C   UNK N   1      24.364  14.039   7.151  0.00  0.00    -0.054 A 
HETATM    4  C   UNK N   1      25.214  13.431   8.092  0.00  0.00     0.009 A 
HETATM    5  C   UNK N   1      24.690  12.913   9.287  0.00  0.00     0.031 A 
HETATM    6  C   UNK N   1      23.311  12.961   9.522  0.00  0.00     0.063 A 
HETATM    7  C   UNK N   1      22.460  13.552   8.572  0.00  0.00     0.043 A 
HETATM    8  N   UNK N   1      22.783  12.417  10.652  0.00  0.00    -0.191 N 
HETATM    9  C   UNK N   1      22.991  14.091   7.398  0.00  0.00     0.025 A 
HETATM   10  C   UNK N   1      21.085  13.562   8.818  0.00  0.00     0.167 A 
HETATM   11  N   UNK N   1      20.604  13.002   9.959  0.00  0.00    -0.170 N 
HETATM   12  C   UNK N   1      21.439  12.434  10.869  0.00  0.00     0.678 A 
ATOM     13  HN  UNK N   1      19.598  13.007  10.135  1.00  0.00     0.186 HD
HETATM   14  N   UNK N   1      20.958  11.903  11.929  0.00  0.00    -0.234 N 
HETATM   15  H   UNK N   1      21.542  11.587  12.655  0.00  0.00     0.174 HD
ATOM     16  HN  UNK N   1      19.947  11.806  12.023  1.00  0.00     0.174 HD
HETATM   17  H   UNK N   1      23.378  12.006  11.320  0.00  0.00     0.184 HD
BRANCH  10  18
HETATM   18  O   UNK N   1      20.233  14.106   7.931  0.00  0.00    -0.345 OA
HETATM   19  H   UNK N   1      19.468  14.559   8.228  0.00  0.00     0.219 HD
ENDBRANCH  10  18
ENDBRANCH   2   3
ENDBRANCH   1   2
BRANCH   1  20
HETATM   20  C   UNK N   1      26.906  15.341   4.906  0.00  0.00     0.157 C 
BRANCH  20  21
HETATM   21  N   UNK N   1      28.157  15.324   5.688  0.00  0.00    -0.411 N 
HETATM   22  H   UNK N   1      28.353  14.621   6.400  0.00  0.00     0.153 HD
BRANCH  21  23
HETATM   23  C   UNK N   1      29.095  16.401   5.357  0.00  0.00     0.198 C 
BRANCH  23  24
HETATM   24  C   UNK N   1      30.492  16.152   5.806  0.00  0.00     0.131 C 
HETATM   25  N   UNK N   1      30.914  14.931   5.840  0.00  0.00    -0.344 N 
ATOM     26  HN  UNK N   1      30.225  14.220   5.593  1.00  0.00     0.164 HD
BRANCH  25  27
HETATM   27  C   UNK N   1      32.240  14.429   6.180  0.00  0.00     0.254 C 
HETATM   28  C   UNK N   1      33.342  14.631   5.157  0.00  0.00     0.198 C 
HETATM   29  C   UNK N   1      34.573  14.377   5.981  0.00  0.00     0.182 C 
HETATM   30  C   UNK N   1      34.070  14.680   7.410  0.00  0.00     0.180 C 
HETATM   31  O   UNK N   1      32.716  15.085   7.328  0.00  0.00    -0.354 OA
BRANCH  28  32
HETATM   32  O   UNK N   1      33.238  13.772   4.058  0.00  0.00    -0.389 OA
HETATM   33  H   UNK N   1      33.964  13.167   3.838  0.00  0.00     0.210 HD
ENDBRANCH  28  32
BRANCH  29  34
HETATM   34  O   UNK N   1      35.611  15.216   5.556  0.00  0.00    -0.390 OA
HETATM   35  H   UNK N   1      35.824  16.041   5.091  0.00  0.00     0.210 HD
ENDBRANCH  29  34
BRANCH  30  36
HETATM   36  C   UNK N   1      34.912  15.710   8.148  0.00  0.00     0.215 C 
BRANCH  36  37
HETATM   37  O   UNK N   1      34.092  16.561   8.894  0.00  0.00    -0.294 OA
BRANCH  37  38
HETATM   38  P   UNK N   1      34.088  18.072   8.032  0.00  0.00     0.390 P 
HETATM   39  O   UNK N   1      32.708  18.752   8.253  0.00  0.00    -0.632 OA
BRANCH  38  40
HETATM   40  O   UNK N   1      34.240  17.806   6.325  0.00  0.00    -0.307 OA
HETATM   41  H   UNK N   1      33.642  17.237   5.815  0.00  0.00     0.222 HD
ENDBRANCH  38  40
BRANCH  38  42
HETATM   42  O   UNK N   1      35.314  19.158   8.608  0.00  0.00    -0.307 OA
HETATM   43  H   UNK N   1      36.256  19.097   8.383  0.00  0.00     0.222 HD
ENDBRANCH  38  42
ENDBRANCH  37  38
ENDBRANCH  36  37
ENDBRANCH  30  36
ENDBRANCH  25  27
BRANCH  24  44
HETATM   44  O   UNK N   1      31.281  17.194   6.130  0.00  0.00    -0.348 OA
HETATM   45  H   UNK N   1      31.189  18.114   6.277  0.00  0.00     0.219 HD
ENDBRANCH  24  44
ENDBRANCH  23  24
ENDBRANCH  21  23
ENDBRANCH  20  21
ENDBRANCH   1  20
BRANCH   1  46
HETATM   46  C   UNK N   1      24.873  16.786   4.738  0.00  0.00    -0.022 A 
HETATM   47  C   UNK N   1      23.519  17.017   4.999  0.00  0.00     0.011 A 
HETATM   48  C   UNK N   1      22.866  18.116   4.473  0.00  0.00     0.017 A 
HETATM   49  C   UNK N   1      23.540  18.997   3.629  0.00  0.00     0.032 A 
HETATM   50  C   UNK N   1      24.873  18.731   3.277  0.00  0.00     0.017 A 
HETATM   51  C   UNK N   1      25.549  17.644   3.854  0.00  0.00     0.011 A 
BRANCH  49  52
HETATM   52  C   UNK N   1      22.844  20.221   3.189  0.00  0.00     0.252 C 
HETATM   53  N   UNK N   1      21.498  20.332   3.297  0.00  0.00    -0.343 N 
HETATM   54  H   UNK N   1      21.142  20.543   4.191  0.00  0.00     0.163 HD
HETATM   55  O   UNK N   1      23.505  21.219   2.940  0.00  0.00    -0.268 OA
BRANCH  53  56
HETATM   56  C   UNK N   1      20.527  20.172   2.229  0.00  0.00     0.183 C 
BRANCH  56  57
HETATM   57  C   UNK N   1      20.434  18.708   1.810  0.00  0.00     0.046 C 
BRANCH  57  58
HETATM   58  C   UNK N   1      19.600  17.904   2.804  0.00  0.00     0.112 C 
BRANCH  58  59
HETATM   59  C   UNK N   1      20.036  16.471   2.838  0.00  0.00     0.139 C 
HETATM   60  O   UNK N   1      21.007  16.101   2.197  0.00  0.00    -0.650 OA
BRANCH  59  61
HETATM   61  O   UNK N   1      19.343  15.581   3.570  0.00  0.00    -0.776 OA
HETATM   62  H   UNK N   1      18.465  15.302   3.399  0.00  0.00     0.167 HD
ENDBRANCH  59  61
ENDBRANCH  58  59
ENDBRANCH  57  58
ENDBRANCH  56  57
BRANCH  56  63
HETATM   63  C   UNK N   1      20.744  21.045   1.017  0.00  0.00     0.163 C 
HETATM   64  O   UNK N   1      21.152  20.586  -0.038  0.00  0.00    -0.648 OA
BRANCH  63  65
HETATM   65  O   UNK N   1      20.505  22.367   1.113  0.00  0.00    -0.775 OA
HETATM   66  H   UNK N   1      20.587  23.081   0.510  0.00  0.00     0.167 HD
ENDBRANCH  63  65
ENDBRANCH  56  63
ENDBRANCH  53  56
ENDBRANCH  49  52
ENDBRANCH   1  46
BRANCH   1  67
HETATM   67  O   UNK N   1      25.916  16.376   6.851  0.00  0.00    -0.383 OA
HETATM   68  H   UNK N   1      26.140  17.262   7.178  0.00  0.00     0.211 HD
ENDBRANCH   1  67
TORSDOF 26
ENDMDL
MODEL 3
REMARK VINA RESULT:      -8.6      3.490     11.516
REMARK  26 active torsions:
REMARK  status: ('A' for Active; 'I' for Inactive)
REMARK    1  A    between atoms: C_8  and  C_7 
REMARK    2  A    between atoms: C_19  and  C_7 
REMARK    3  A    between atoms: C_22  and  C_8 
REMARK    4  A    between atoms: C_14  and  C_10 
REMARK    5  A    between atoms: C_30  and  C_10 
REMARK    6  A    between atoms: C_21  and  C_11 
REMARK    7  A    between atoms: N_33  and  C_11 
REMARK    8  A    between atoms: C_20  and  C_12 
REMARK    9  A    between atoms: O_53  and  C_12 
REMARK   10  A    between atoms: C_30  and  C_13 
REMARK   11  A    between atoms: N_33  and  C_13 
REMARK   12  A    between atoms: C_25  and  C_15 
REMARK   13  A    between atoms: C_30  and  C_16 
REMARK   14  A    between atoms: C_28  and  C_19 
REMARK   15  A    between atoms: C_19  and  N_34 
REMARK   16  A    between atoms: C_21  and  O_40 
REMARK   17  A    between atoms: O_42  and  C_22 
REMARK   18  A    between atoms: C_23  and  O_43 
REMARK   19  A    between atoms: C_24  and  O_44 
REMARK       I    between atoms: N_34  and  C_25 
REMARK   20  A    between atoms: O_46  and  C_26 
REMARK   21  A    between atoms: C_27  and  N_36 
REMARK   22  A    between atoms: O_48  and  C_28 
REMARK       I    between atoms: N_31  and  C_29 
REMARK   23  A    between atoms: C_30  and  O_49 
REMARK   24  A    between atoms: P_55  and  O_50 
REMARK   25  A    between atoms: P_55  and  O_51 
REMARK   26  A    between atoms: P_55  and  O_53 
ROOT
HETATM    1  C   UNK N   1      28.018  17.443   5.900  0.00  0.00     0.104 C 
ENDROOT
BRANCH   1   2
HETATM    2  C   UNK N   1      27.630  17.402   4.412  0.00  0.00     0.083 C 
BRANCH   2   3
HETATM    3  C   UNK N   1      26.530  18.276   3.881  0.00  0.00    -0.054 A 
HETATM    4  C   UNK N   1      26.752  19.606   3.481  0.00  0.00     0.009 A 
HETATM    5  C   UNK N   1      25.669  20.428   3.130  0.00  0.00     0.031 A 
HETATM    6  C   UNK N   1      24.362  19.936   3.221  0.00  0.00     0.063 A 
HETATM    7  C   UNK N   1      24.140  18.612   3.640  0.00  0.00     0.043 A 
HETATM    8  N   UNK N   1      23.301  20.737   2.934  0.00  0.00    -0.191 N 
HETATM    9  C   UNK N   1      25.224  17.791   3.961  0.00  0.00     0.025 A 
HETATM   10  C   UNK N   1      22.825  18.155   3.750  0.00  0.00     0.167 A 
HETATM   11  N   UNK N   1      21.797  18.994   3.456  0.00  0.00    -0.170 N 
HETATM   12  C   UNK N   1      22.027  20.272   3.052  0.00  0.00     0.678 A 
ATOM     13  HN  UNK N   1      20.836  18.659   3.540  1.00  0.00     0.186 HD
HETATM   14  N   UNK N   1      21.039  21.043   2.794  0.00  0.00    -0.234 N 
HETATM   15  H   UNK N   1      21.175  21.932   2.393  0.00  0.00     0.174 HD
ATOM     16  HN  UNK N   1      20.092  20.730   3.007  1.00  0.00     0.174 HD
HETATM   17  H   UNK N   1      23.454  21.663   2.637  0.00  0.00     0.184 HD
BRANCH  10  18
HETATM   18  O   UNK N   1      22.567  16.899   4.158  0.00  0.00    -0.345 OA
HETATM   19  H   UNK N   1      23.221  16.234   4.076  0.00  0.00     0.219 HD
ENDBRANCH  10  18
ENDBRANCH   2   3
ENDBRANCH   1   2
BRANCH   1  20
HETATM   20  C   UNK N   1      27.542  16.063   6.412  0.00  0.00     0.157 C 
BRANCH  20  21
HETATM   21  N   UNK N   1      26.278  16.002   7.171  0.00  0.00    -0.411 N 
HETATM   22  H   UNK N   1      25.878  16.813   7.643  0.00  0.00     0.153 HD
BRANCH  21  23
HETATM   23  C   UNK N   1      25.644  14.680   7.191  0.00  0.00     0.198 C 
BRANCH  23  24
HETATM   24  C   UNK N   1      24.268  14.655   6.623  0.00  0.00     0.131 C 
HETATM   25  N   UNK N   1      23.272  14.569   7.442  0.00  0.00    -0.344 N 
ATOM     26  HN  UNK N   1      23.519  14.479   8.427  1.00  0.00     0.164 HD
BRANCH  25  27
HETATM   27  C   UNK N   1      21.844  14.586   7.150  0.00  0.00     0.254 C 
HETATM   28  C   UNK N   1      21.201  15.938   6.904  0.00  0.00     0.198 C 
HETATM   29  C   UNK N   1      19.899  15.545   6.265  0.00  0.00     0.182 C 
HETATM   30  C   UNK N   1      20.234  14.153   5.686  0.00  0.00     0.180 C 
HETATM   31  O   UNK N   1      21.591  13.869   5.969  0.00  0.00    -0.354 OA
BRANCH  28  32
HETATM   32  O   UNK N   1      21.028  16.687   8.073  0.00  0.00    -0.389 OA
HETATM   33  H   UNK N   1      21.174  16.280   8.942  0.00  0.00     0.210 HD
ENDBRANCH  28  32
BRANCH  29  34
HETATM   34  O   UNK N   1      19.540  16.491   5.297  0.00  0.00    -0.390 OA
HETATM   35  H   UNK N   1      18.910  16.701   4.590  0.00  0.00     0.210 HD
ENDBRANCH  29  34
BRANCH  30  36
HETATM   36  C   UNK N   1      19.940  14.024   4.199  0.00  0.00     0.215 C 
BRANCH  36  37
HETATM   37  O   UNK N   1      21.009  14.521   3.448  0.00  0.00    -0.294 OA
BRANCH  37  38
HETATM   38  P   UNK N   1      20.289  15.246   2.041  0.00  0.00     0.390 P 
HETATM   39  O   UNK N   1      19.997  16.738   2.360  0.00  0.00    -0.632 OA
BRANCH  38  40
HETATM   40  O   UNK N   1      18.759  14.509   1.684  0.00  0.00    -0.307 OA
HETATM   41  H   UNK N   1      18.592  13.979   0.888  0.00  0.00     0.222 HD
ENDBRANCH  38  40
BRANCH  38  42
HETATM   42  O   UNK N   1      21.345  15.194   0.663  0.00  0.00    -0.307 OA
HETATM   43  H   UNK N   1      21.337  14.498  -0.012  0.00  0.00     0.222 HD
ENDBRANCH  38  42
ENDBRANCH  37  38
ENDBRANCH  36  37
ENDBRANCH  30  36
ENDBRANCH  25  27
BRANCH  24  44
HETATM   44  O   UNK N   1      24.098  14.754   5.291  0.00  0.00    -0.348 OA
HETATM   45  H   UNK N   1      23.396  14.691   4.675  0.00  0.00     0.219 HD
ENDBRANCH  24  44
ENDBRANCH  23  24
ENDBRANCH  21  23
ENDBRANCH  20  21
ENDBRANCH   1  20
BRANCH   1  46
HETATM   46  C   UNK N   1      29.513  17.572   6.116  0.00  0.00    -0.022 A 
HETATM   47  C   UNK N   1      29.989  17.572   7.431  0.00  0.00     0.011 A 
HETATM   48  C   UNK N   1      31.327  17.362   7.707  0.00  0.00     0.017 A 
HETATM   49  C   UNK N   1      32.241  17.190   6.670  0.00  0.00     0.032 A 
HETATM   50  C   UNK N   1      31.800  17.282   5.340  0.00  0.00     0.017 A 
HETATM   51  C   UNK N   1      30.433  17.443   5.061  0.00  0.00     0.011 A 
BRANCH  49  52
HETATM   52  C   UNK N   1      33.635  16.848   7.009  0.00  0.00     0.252 C 
HETATM   53  N   UNK N   1      33.972  15.587   7.371  0.00  0.00    -0.343 N 
HETATM   54  H   UNK N   1      34.067  14.928   6.646  0.00  0.00     0.163 HD
HETATM   55  O   UNK N   1      34.522  17.646   6.742  0.00  0.00    -0.268 OA
BRANCH  53  56
HETATM   56  C   UNK N   1      34.207  15.107   8.722  0.00  0.00     0.183 C 
BRANCH  56  57
HETATM   57  C   UNK N   1      35.214  13.961   8.711  0.00  0.00     0.046 C 
BRANCH  57  58
HETATM   58  C   UNK N   1      36.613  14.454   9.074  0.00  0.00     0.112 C 
BRANCH  58  59
HETATM   59  C   UNK N   1      36.681  14.869  10.512  0.00  0.00     0.139 C 
HETATM   60  O   UNK N   1      36.589  14.039  11.403  0.00  0.00    -0.650 OA
BRANCH  59  61
HETATM   61  O   UNK N   1      36.831  16.168  10.824  0.00  0.00    -0.776 OA
HETATM   62  H   UNK N   1      36.683  16.545  11.669  0.00  0.00     0.167 HD
ENDBRANCH  59  61
ENDBRANCH  58  59
ENDBRANCH  57  58
ENDBRANCH  56  57
BRANCH  56  63
HETATM   63  C   UNK N   1      32.974  14.706   9.494  0.00  0.00     0.163 C 
HETATM   64  O   UNK N   1      32.025  14.166   8.950  0.00  0.00    -0.648 OA
BRANCH  63  65
HETATM   65  O   UNK N   1      32.912  14.975  10.813  0.00  0.00    -0.775 OA
HETATM   66  H   UNK N   1      32.919  15.772  11.307  0.00  0.00     0.167 HD
ENDBRANCH  63  65
ENDBRANCH  56  63
ENDBRANCH  53  56
ENDBRANCH  49  52
ENDBRANCH   1  46
BRANCH   1  67
HETATM   67  O   UNK N   1      27.342  18.465   6.576  0.00  0.00    -0.383 OA
HETATM   68  H   UNK N   1      26.963  18.597   7.459  0.00  0.00     0.211 HD
ENDBRANCH   1  67
TORSDOF 26
ENDMDL
MODEL 4
REMARK VINA RESULT:      -8.6      3.710      9.431
REMARK  26 active torsions:
REMARK  status: ('A' for Active; 'I' for Inactive)
REMARK    1  A    between atoms: C_8  and  C_7 
REMARK    2  A    between atoms: C_19  and  C_7 
REMARK    3  A    between atoms: C_22  and  C_8 
REMARK    4  A    between atoms: C_14  and  C_10 
REMARK    5  A    between atoms: C_30  and  C_10 
REMARK    6  A    between atoms: C_21  and  C_11 
REMARK    7  A    between atoms: N_33  and  C_11 
REMARK    8  A    between atoms: C_20  and  C_12 
REMARK    9  A    between atoms: O_53  and  C_12 
REMARK   10  A    between atoms: C_30  and  C_13 
REMARK   11  A    between atoms: N_33  and  C_13 
REMARK   12  A    between atoms: C_25  and  C_15 
REMARK   13  A    between atoms: C_30  and  C_16 
REMARK   14  A    between atoms: C_28  and  C_19 
REMARK   15  A    between atoms: C_19  and  N_34 
REMARK   16  A    between atoms: C_21  and  O_40 
REMARK   17  A    between atoms: O_42  and  C_22 
REMARK   18  A    between atoms: C_23  and  O_43 
REMARK   19  A    between atoms: C_24  and  O_44 
REMARK       I    between atoms: N_34  and  C_25 
REMARK   20  A    between atoms: O_46  and  C_26 
REMARK   21  A    between atoms: C_27  and  N_36 
REMARK   22  A    between atoms: O_48  and  C_28 
REMARK       I    between atoms: N_31  and  C_29 
REMARK   23  A    between atoms: C_30  and  O_49 
REMARK   24  A    between atoms: P_55  and  O_50 
REMARK   25  A    between atoms: P_55  and  O_51 
REMARK   26  A    between atoms: P_55  and  O_53 
ROOT
HETATM    1  C   UNK N   1      27.005  16.444   5.112  0.00  0.00     0.104 C 
ENDROOT
BRANCH   1   2
HETATM    2  C   UNK N   1      28.305  15.631   5.236  0.00  0.00     0.083 C 
BRANCH   2   3
HETATM    3  C   UNK N   1      29.609  16.311   5.540  0.00  0.00    -0.054 A 
HETATM    4  C   UNK N   1      30.649  16.402   4.597  0.00  0.00     0.009 A 
HETATM    5  C   UNK N   1      31.900  16.916   4.973  0.00  0.00     0.031 A 
HETATM    6  C   UNK N   1      32.127  17.298   6.301  0.00  0.00     0.063 A 
HETATM    7  C   UNK N   1      31.092  17.189   7.246  0.00  0.00     0.043 A 
HETATM    8  N   UNK N   1      33.350  17.750   6.690  0.00  0.00    -0.191 N 
HETATM    9  C   UNK N   1      29.841  16.703   6.859  0.00  0.00     0.025 A 
HETATM   10  C   UNK N   1      31.353  17.550   8.570  0.00  0.00     0.167 A 
HETATM   11  N   UNK N   1      32.592  17.992   8.913  0.00  0.00    -0.170 N 
HETATM   12  C   UNK N   1      33.583  18.092   7.987  0.00  0.00     0.678 A 
ATOM     13  HN  UNK N   1      32.782  18.251   9.882  1.00  0.00     0.186 HD
HETATM   14  N   UNK N   1      34.743  18.499   8.341  0.00  0.00    -0.234 N 
HETATM   15  H   UNK N   1      35.444  18.689   7.676  0.00  0.00     0.174 HD
ATOM     16  HN  UNK N   1      34.946  18.630   9.332  1.00  0.00     0.174 HD
HETATM   17  H   UNK N   1      34.074  17.831   6.029  0.00  0.00     0.184 HD
BRANCH  10  18
HETATM   18  O   UNK N   1      30.396  17.450   9.510  0.00  0.00    -0.345 OA
HETATM   19  H   UNK N   1      30.036  18.223   9.899  0.00  0.00     0.219 HD
ENDBRANCH  10  18
ENDBRANCH   2   3
ENDBRANCH   1   2
BRANCH   1  20
HETATM   20  C   UNK N   1      27.336  17.441   3.977  0.00  0.00     0.157 C 
BRANCH  20  21
HETATM   21  N   UNK N   1      27.338  18.882   4.297  0.00  0.00    -0.411 N 
HETATM   22  H   UNK N   1      27.987  19.297   4.966  0.00  0.00     0.153 HD
BRANCH  21  23
HETATM   23  C   UNK N   1      26.334  19.667   3.573  0.00  0.00     0.198 C 
BRANCH  23  24
HETATM   24  C   UNK N   1      24.955  19.547   4.121  0.00  0.00     0.131 C 
HETATM   25  N   UNK N   1      23.963  19.831   3.342  0.00  0.00    -0.344 N 
ATOM     26  HN  UNK N   1      24.215  20.165   2.412  1.00  0.00     0.164 HD
BRANCH  25  27
HETATM   27  C   UNK N   1      22.533  19.738   3.612  0.00  0.00     0.254 C 
HETATM   28  C   UNK N   1      21.593  20.357   2.594  0.00  0.00     0.198 C 
HETATM   29  C   UNK N   1      20.279  19.737   2.976  0.00  0.00     0.182 C 
HETATM   30  C   UNK N   1      20.731  18.447   3.695  0.00  0.00     0.180 C 
HETATM   31  O   UNK N   1      22.144  18.390   3.658  0.00  0.00    -0.354 OA
BRANCH  28  32
HETATM   32  O   UNK N   1      21.569  21.755   2.645  0.00  0.00    -0.389 OA
HETATM   33  H   UNK N   1      21.309  22.212   3.461  0.00  0.00     0.210 HD
ENDBRANCH  28  32
BRANCH  29  34
HETATM   34  O   UNK N   1      19.510  19.507   1.828  0.00  0.00    -0.390 OA
HETATM   35  H   UNK N   1      19.543  19.341   0.873  0.00  0.00     0.210 HD
ENDBRANCH  29  34
BRANCH  30  36
HETATM   36  C   UNK N   1      20.110  17.181   3.125  0.00  0.00     0.215 C 
BRANCH  36  37
HETATM   37  O   UNK N   1      20.739  16.830   1.927  0.00  0.00    -0.294 OA
BRANCH  37  38
HETATM   38  P   UNK N   1      19.887  15.425   1.353  0.00  0.00     0.390 P 
HETATM   39  O   UNK N   1      20.925  14.448   0.735  0.00  0.00    -0.632 OA
BRANCH  38  40
HETATM   40  O   UNK N   1      18.789  15.851   0.079  0.00  0.00    -0.307 OA
HETATM   41  H   UNK N   1      18.327  15.198  -0.471  0.00  0.00     0.222 HD
ENDBRANCH  38  40
BRANCH  38  42
HETATM   42  O   UNK N   1      19.066  14.588   2.633  0.00  0.00    -0.307 OA
HETATM   43  H   UNK N   1      18.390  13.905   2.502  0.00  0.00     0.222 HD
ENDBRANCH  38  42
ENDBRANCH  37  38
ENDBRANCH  36  37
ENDBRANCH  30  36
ENDBRANCH  25  27
BRANCH  24  44
HETATM   44  O   UNK N   1      24.778  19.119   5.385  0.00  0.00    -0.348 OA
HETATM   45  H   UNK N   1      24.075  19.042   5.999  0.00  0.00     0.219 HD
ENDBRANCH  24  44
ENDBRANCH  23  24
ENDBRANCH  21  23
ENDBRANCH  20  21
ENDBRANCH   1  20
BRANCH   1  46
HETATM   46  C   UNK N   1      25.816  15.596   4.706  0.00  0.00    -0.022 A 
HETATM   47  C   UNK N   1      25.393  14.595   5.587  0.00  0.00     0.011 A 
HETATM   48  C   UNK N   1      24.151  14.003   5.453  0.00  0.00     0.017 A 
HETATM   49  C   UNK N   1      23.309  14.364   4.403  0.00  0.00     0.032 A 
HETATM   50  C   UNK N   1      23.753  15.298   3.453  0.00  0.00     0.017 A 
HETATM   51  C   UNK N   1      24.993  15.936   3.619  0.00  0.00     0.011 A 
BRANCH  49  52
HETATM   52  C   UNK N   1      21.946  13.800   4.367  0.00  0.00     0.252 C 
HETATM   53  N   UNK N   1      20.935  14.382   5.054  0.00  0.00    -0.343 N 
HETATM   54  H   UNK N   1      20.530  15.186   4.652  0.00  0.00     0.163 HD
HETATM   55  O   UNK N   1      21.683  12.943   3.535  0.00  0.00    -0.268 OA
BRANCH  53  56
HETATM   56  C   UNK N   1      20.386  13.942   6.325  0.00  0.00     0.183 C 
BRANCH  56  57
HETATM   57  C   UNK N   1      20.501  15.052   7.366  0.00  0.00     0.046 C 
BRANCH  57  58
HETATM   58  C   UNK N   1      20.846  16.387   6.711  0.00  0.00     0.112 C 
BRANCH  58  59
HETATM   59  C   UNK N   1      20.632  17.524   7.663  0.00  0.00     0.139 C 
HETATM   60  O   UNK N   1      20.266  17.316   8.808  0.00  0.00    -0.650 OA
BRANCH  59  61
HETATM   61  O   UNK N   1      20.834  18.787   7.247  0.00  0.00    -0.776 OA
HETATM   62  H   UNK N   1      21.660  19.151   6.996  0.00  0.00     0.167 HD
ENDBRANCH  59  61
ENDBRANCH  58  59
ENDBRANCH  57  58
ENDBRANCH  56  57
BRANCH  56  63
HETATM   63  C   UNK N   1      20.959  12.657   6.871  0.00  0.00     0.163 C 
HETATM   64  O   UNK N   1      21.762  12.653   7.789  0.00  0.00    -0.648 OA
BRANCH  63  65
HETATM   65  O   UNK N   1      20.591  11.488   6.311  0.00  0.00    -0.775 OA
HETATM   66  H   UNK N   1      19.759  11.101   6.120  0.00  0.00     0.167 HD
ENDBRANCH  63  65
ENDBRANCH  56  63
ENDBRANCH  53  56
ENDBRANCH  49  52
ENDBRANCH   1  46
BRANCH   1  67
HETATM   67  O   UNK N   1      26.723  17.138   6.294  0.00  0.00    -0.383 OA
HETATM   68  H   UNK N   1      25.946  17.291   6.854  0.00  0.00     0.211 HD
ENDBRANCH   1  67
TORSDOF 26
ENDMDL
MODEL 5
REMARK VINA RESULT:      -8.5      3.710     10.770
REMARK  26 active torsions:
REMARK  status: ('A' for Active; 'I' for Inactive)
REMARK    1  A    between atoms: C_8  and  C_7 
REMARK    2  A    between atoms: C_19  and  C_7 
REMARK    3  A    between atoms: C_22  and  C_8 
REMARK    4  A    between atoms: C_14  and  C_10 
REMARK    5  A    between atoms: C_30  and  C_10 
REMARK    6  A    between atoms: C_21  and  C_11 
REMARK    7  A    between atoms: N_33  and  C_11 
REMARK    8  A    between atoms: C_20  and  C_12 
REMARK    9  A    between atoms: O_53  and  C_12 
REMARK   10  A    between atoms: C_30  and  C_13 
REMARK   11  A    between atoms: N_33  and  C_13 
REMARK   12  A    between atoms: C_25  and  C_15 
REMARK   13  A    between atoms: C_30  and  C_16 
REMARK   14  A    between atoms: C_28  and  C_19 
REMARK   15  A    between atoms: C_19  and  N_34 
REMARK   16  A    between atoms: C_21  and  O_40 
REMARK   17  A    between atoms: O_42  and  C_22 
REMARK   18  A    between atoms: C_23  and  O_43 
REMARK   19  A    between atoms: C_24  and  O_44 
REMARK       I    between atoms: N_34  and  C_25 
REMARK   20  A    between atoms: O_46  and  C_26 
REMARK   21  A    between atoms: C_27  and  N_36 
REMARK   22  A    between atoms: O_48  and  C_28 
REMARK       I    between atoms: N_31  and  C_29 
REMARK   23  A    between atoms: C_30  and  O_49 
REMARK   24  A    between atoms: P_55  and  O_50 
REMARK   25  A    between atoms: P_55  and  O_51 
REMARK   26  A    between atoms: P_55  and  O_53 
ROOT
HETATM    1  C   UNK N   1      28.590  17.010   5.440  0.00  0.00     0.104 C 
ENDROOT
BRANCH   1   2
HETATM    2  C   UNK N   1      28.133  18.477   5.516  0.00  0.00     0.083 C 
BRANCH   2   3
HETATM    3  C   UNK N   1      27.002  18.974   4.661  0.00  0.00    -0.054 A 
HETATM    4  C   UNK N   1      27.163  20.017   3.732  0.00  0.00     0.009 A 
HETATM    5  C   UNK N   1      26.048  20.545   3.063  0.00  0.00     0.031 A 
HETATM    6  C   UNK N   1      24.766  20.061   3.354  0.00  0.00     0.063 A 
HETATM    7  C   UNK N   1      24.605  19.031   4.297  0.00  0.00     0.043 A 
HETATM    8  N   UNK N   1      23.672  20.599   2.751  0.00  0.00    -0.191 N 
HETATM    9  C   UNK N   1      25.723  18.492   4.939  0.00  0.00     0.025 A 
HETATM   10  C   UNK N   1      23.314  18.587   4.591  0.00  0.00     0.167 A 
HETATM   11  N   UNK N   1      22.250  19.158   3.966  0.00  0.00    -0.170 N 
HETATM   12  C   UNK N   1      22.422  20.153   3.056  0.00  0.00     0.678 A 
ATOM     13  HN  UNK N   1      21.307  18.834   4.185  1.00  0.00     0.186 HD
HETATM   14  N   UNK N   1      21.402  20.680   2.492  0.00  0.00    -0.234 N 
HETATM   15  H   UNK N   1      21.499  21.320   1.750  0.00  0.00     0.174 HD
ATOM     16  HN  UNK N   1      20.467  20.432   2.817  1.00  0.00     0.174 HD
HETATM   17  H   UNK N   1      23.783  21.317   2.088  0.00  0.00     0.184 HD
BRANCH  10  18
HETATM   18  O   UNK N   1      23.113  17.612   5.496  0.00  0.00    -0.345 OA
HETATM   19  H   UNK N   1      22.402  17.672   6.103  0.00  0.00     0.219 HD
ENDBRANCH  10  18
ENDBRANCH   2   3
ENDBRANCH   1   2
BRANCH   1  20
HETATM   20  C   UNK N   1      28.611  16.740   3.916  0.00  0.00     0.157 C 
BRANCH  20  21
HETATM   21  N   UNK N   1      28.003  15.490   3.424  0.00  0.00    -0.411 N 
HETATM   22  H   UNK N   1      28.408  14.571   3.605  0.00  0.00     0.153 HD
BRANCH  21  23
HETATM   23  C   UNK N   1      26.770  15.675   2.653  0.00  0.00     0.198 C 
BRANCH  23  24
HETATM   24  C   UNK N   1      25.530  15.302   3.387  0.00  0.00     0.131 C 
HETATM   25  N   UNK N   1      25.633  14.482   4.381  0.00  0.00    -0.344 N 
ATOM     26  HN  UNK N   1      26.569  14.117   4.555  1.00  0.00     0.164 HD
BRANCH  25  27
HETATM   27  C   UNK N   1      24.594  14.009   5.289  0.00  0.00     0.254 C 
HETATM   28  C   UNK N   1      24.320  14.844   6.525  0.00  0.00     0.198 C 
HETATM   29  C   UNK N   1      22.990  14.303   6.969  0.00  0.00     0.182 C 
HETATM   30  C   UNK N   1      22.425  13.724   5.654  0.00  0.00     0.180 C 
HETATM   31  O   UNK N   1      23.360  13.972   4.621  0.00  0.00    -0.354 OA
BRANCH  28  32
HETATM   32  O   UNK N   1      25.311  14.720   7.504  0.00  0.00    -0.389 OA
HETATM   33  H   UNK N   1      26.059  15.337   7.526  0.00  0.00     0.210 HD
ENDBRANCH  28  32
BRANCH  29  34
HETATM   34  O   UNK N   1      22.215  15.335   7.514  0.00  0.00    -0.390 OA
HETATM   35  H   UNK N   1      21.318  15.697   7.590  0.00  0.00     0.210 HD
ENDBRANCH  29  34
BRANCH  30  36
HETATM   36  C   UNK N   1      21.047  14.258   5.294  0.00  0.00     0.215 C 
BRANCH  36  37
HETATM   37  O   UNK N   1      21.104  15.637   5.075  0.00  0.00    -0.294 OA
BRANCH  37  38
HETATM   38  P   UNK N   1      20.298  15.897   3.555  0.00  0.00     0.390 P 
HETATM   39  O   UNK N   1      21.334  16.469   2.549  0.00  0.00    -0.632 OA
BRANCH  38  40
HETATM   40  O   UNK N   1      19.053  17.094   3.716  0.00  0.00    -0.307 OA
HETATM   41  H   UNK N   1      18.715  17.405   4.571  0.00  0.00     0.222 HD
ENDBRANCH  38  40
BRANCH  38  42
HETATM   42  O   UNK N   1      19.666  14.423   2.888  0.00  0.00    -0.307 OA
HETATM   43  H   UNK N   1      18.761  14.102   3.019  0.00  0.00     0.222 HD
ENDBRANCH  38  42
ENDBRANCH  37  38
ENDBRANCH  36  37
ENDBRANCH  30  36
ENDBRANCH  25  27
BRANCH  24  44
HETATM   44  O   UNK N   1      24.353  15.845   3.023  0.00  0.00    -0.348 OA
HETATM   45  H   UNK N   1      23.981  16.700   2.935  0.00  0.00     0.219 HD
ENDBRANCH  24  44
ENDBRANCH  23  24
ENDBRANCH  21  23
ENDBRANCH  20  21
ENDBRANCH   1  20
BRANCH   1  46
HETATM   46  C   UNK N   1      29.978  16.794   6.008  0.00  0.00    -0.022 A 
HETATM   47  C   UNK N   1      31.031  16.590   5.110  0.00  0.00     0.011 A 
HETATM   48  C   UNK N   1      32.348  16.707   5.513  0.00  0.00     0.017 A 
HETATM   49  C   UNK N   1      32.654  16.989   6.842  0.00  0.00     0.032 A 
HETATM   50  C   UNK N   1      31.616  17.104   7.780  0.00  0.00     0.017 A 
HETATM   51  C   UNK N   1      30.278  17.036   7.360  0.00  0.00     0.011 A 
BRANCH  49  52
HETATM   52  C   UNK N   1      34.064  17.226   7.205  0.00  0.00     0.252 C 
HETATM   53  N   UNK N   1      34.916  16.190   7.397  0.00  0.00    -0.343 N 
HETATM   54  H   UNK N   1      35.276  15.757   6.589  0.00  0.00     0.163 HD
HETATM   55  O   UNK N   1      34.518  18.358   7.106  0.00  0.00    -0.268 OA
BRANCH  53  56
HETATM   56  C   UNK N   1      35.352  15.654   8.675  0.00  0.00     0.183 C 
BRANCH  56  57
HETATM   57  C   UNK N   1      35.037  14.163   8.760  0.00  0.00     0.046 C 
BRANCH  57  58
HETATM   58  C   UNK N   1      34.268  13.692   7.528  0.00  0.00     0.112 C 
BRANCH  58  59
HETATM   59  C   UNK N   1      32.805  13.561   7.824  0.00  0.00     0.139 C 
HETATM   60  O   UNK N   1      31.991  13.499   6.917  0.00  0.00    -0.650 OA
BRANCH  59  61
HETATM   61  O   UNK N   1      32.385  13.524   9.100  0.00  0.00    -0.776 OA
HETATM   62  H   UNK N   1      32.565  14.173   9.751  0.00  0.00     0.167 HD
ENDBRANCH  59  61
ENDBRANCH  58  59
ENDBRANCH  57  58
ENDBRANCH  56  57
BRANCH  56  63
HETATM   63  C   UNK N   1      34.821  16.366   9.895  0.00  0.00     0.163 C 
HETATM   64  O   UNK N   1      35.382  17.344  10.360  0.00  0.00    -0.648 OA
BRANCH  63  65
HETATM   65  O   UNK N   1      33.713  15.892  10.498  0.00  0.00    -0.775 OA
HETATM   66  H   UNK N   1      33.573  15.310  11.219  0.00  0.00     0.167 HD
ENDBRANCH  63  65
ENDBRANCH  56  63
ENDBRANCH  53  56
ENDBRANCH  49  52
ENDBRANCH   1  46
BRANCH   1  67
HETATM   67  O   UNK N   1      27.674  16.157   6.065  0.00  0.00    -0.383 OA
HETATM   68  H   UNK N   1      26.872  15.674   5.811  0.00  0.00     0.211 HD
ENDBRANCH   1  67
TORSDOF 26
ENDMDL
MODEL 6
REMARK VINA RESULT:      -8.5      6.414     11.046
REMARK  26 active torsions:
REMARK  status: ('A' for Active; 'I' for Inactive)
REMARK    1  A    between atoms: C_8  and  C_7 
REMARK    2  A    between atoms: C_19  and  C_7 
REMARK    3  A    between atoms: C_22  and  C_8 
REMARK    4  A    between atoms: C_14  and  C_10 
REMARK    5  A    between atoms: C_30  and  C_10 
REMARK    6  A    between atoms: C_21  and  C_11 
REMARK    7  A    between atoms: N_33  and  C_11 
REMARK    8  A    between atoms: C_20  and  C_12 
REMARK    9  A    between atoms: O_53  and  C_12 
REMARK   10  A    between atoms: C_30  and  C_13 
REMARK   11  A    between atoms: N_33  and  C_13 
REMARK   12  A    between atoms: C_25  and  C_15 
REMARK   13  A    between atoms: C_30  and  C_16 
REMARK   14  A    between atoms: C_28  and  C_19 
REMARK   15  A    between atoms: C_19  and  N_34 
REMARK   16  A    between atoms: C_21  and  O_40 
REMARK   17  A    between atoms: O_42  and  C_22 
REMARK   18  A    between atoms: C_23  and  O_43 
REMARK   19  A    between atoms: C_24  and  O_44 
REMARK       I    between atoms: N_34  and  C_25 
REMARK   20  A    between atoms: O_46  and  C_26 
REMARK   21  A    between atoms: C_27  and  N_36 
REMARK   22  A    between atoms: O_48  and  C_28 
REMARK       I    between atoms: N_31  and  C_29 
REMARK   23  A    between atoms: C_30  and  O_49 
REMARK   24  A    between atoms: P_55  and  O_50 
REMARK   25  A    between atoms: P_55  and  O_51 
REMARK   26  A    between atoms: P_55  and  O_53 
ROOT
HETATM    1  C   UNK N   1      34.977  14.604  10.688  0.00  0.00     0.104 C 
ENDROOT
BRANCH   1   2
HETATM    2  C   UNK N   1      36.012  13.764  11.454  0.00  0.00     0.083 C 
BRANCH   2   3
HETATM    3  C   UNK N   1      35.794  13.403  12.895  0.00  0.00    -0.054 A 
HETATM    4  C   UNK N   1      34.872  12.419  13.294  0.00  0.00     0.009 A 
HETATM    5  C   UNK N   1      34.597  12.218  14.656  0.00  0.00     0.031 A 
HETATM    6  C   UNK N   1      35.208  13.032  15.617  0.00  0.00     0.063 A 
HETATM    7  C   UNK N   1      36.115  14.028  15.216  0.00  0.00     0.043 A 
HETATM    8  N   UNK N   1      34.912  12.883  16.937  0.00  0.00    -0.191 N 
HETATM    9  C   UNK N   1      36.406  14.203  13.861  0.00  0.00     0.025 A 
HETATM   10  C   UNK N   1      36.689  14.845  16.193  0.00  0.00     0.167 A 
HETATM   11  N   UNK N   1      36.359  14.662  17.499  0.00  0.00    -0.170 N 
HETATM   12  C   UNK N   1      35.480  13.694  17.872  0.00  0.00     0.678 A 
ATOM     13  HN  UNK N   1      36.777  15.262  18.211  1.00  0.00     0.186 HD
HETATM   14  N   UNK N   1      35.178  13.552  19.107  0.00  0.00    -0.234 N 
HETATM   15  H   UNK N   1      34.636  12.791  19.418  0.00  0.00     0.174 HD
ATOM     16  HN  UNK N   1      35.506  14.241  19.783  1.00  0.00     0.174 HD
HETATM   17  H   UNK N   1      34.280  12.184  17.219  0.00  0.00     0.184 HD
BRANCH  10  18
HETATM   18  O   UNK N   1      37.553  15.819  15.853  0.00  0.00    -0.345 OA
HETATM   19  H   UNK N   1      38.451  15.765  16.116  0.00  0.00     0.219 HD
ENDBRANCH  10  18
ENDBRANCH   2   3
ENDBRANCH   1   2
BRANCH   1  20
HETATM   20  C   UNK N   1      35.666  15.986  10.592  0.00  0.00     0.157 C 
BRANCH  20  21
HETATM   21  N   UNK N   1      34.812  17.178  10.424  0.00  0.00    -0.411 N 
HETATM   22  H   UNK N   1      34.341  17.633  11.206  0.00  0.00     0.153 HD
BRANCH  21  23
HETATM   23  C   UNK N   1      34.697  17.654   9.042  0.00  0.00     0.198 C 
BRANCH  23  24
HETATM   24  C   UNK N   1      33.439  17.246   8.359  0.00  0.00     0.131 C 
HETATM   25  N   UNK N   1      32.351  17.206   9.056  0.00  0.00    -0.344 N 
ATOM     26  HN  UNK N   1      32.456  17.420  10.048  1.00  0.00     0.164 HD
BRANCH  25  27
HETATM   27  C   UNK N   1      30.995  16.901   8.619  0.00  0.00     0.254 C 
HETATM   28  C   UNK N   1      29.858  17.597   9.343  0.00  0.00     0.198 C 
HETATM   29  C   UNK N   1      28.710  17.368   8.400  0.00  0.00     0.182 C 
HETATM   30  C   UNK N   1      29.439  17.147   7.056  0.00  0.00     0.180 C 
HETATM   31  O   UNK N   1      30.830  17.283   7.277  0.00  0.00    -0.354 OA
BRANCH  28  32
HETATM   32  O   UNK N   1      29.622  17.083  10.622  0.00  0.00    -0.389 OA
HETATM   33  H   UNK N   1      28.727  16.814  10.884  0.00  0.00     0.210 HD
ENDBRANCH  28  32
BRANCH  29  34
HETATM   34  O   UNK N   1      27.859  18.480   8.408  0.00  0.00    -0.390 OA
HETATM   35  H   UNK N   1      26.936  18.773   8.336  0.00  0.00     0.210 HD
ENDBRANCH  29  34
BRANCH  30  36
HETATM   36  C   UNK N   1      28.962  18.069   5.945  0.00  0.00     0.215 C 
BRANCH  36  37
HETATM   37  O   UNK N   1      27.782  17.578   5.379  0.00  0.00    -0.294 OA
BRANCH  37  38
HETATM   38  P   UNK N   1      26.880  18.985   4.895  0.00  0.00     0.390 P 
HETATM   39  O   UNK N   1      25.618  18.509   4.124  0.00  0.00    -0.632 OA
BRANCH  38  40
HETATM   40  O   UNK N   1      27.800  19.953   3.788  0.00  0.00    -0.307 OA
HETATM   41  H   UNK N   1      28.727  19.775   3.562  0.00  0.00     0.222 HD
ENDBRANCH  38  40
BRANCH  38  42
HETATM   42  O   UNK N   1      26.350  19.923   6.256  0.00  0.00    -0.307 OA
HETATM   43  H   UNK N   1      26.552  19.716   7.181  0.00  0.00     0.222 HD
ENDBRANCH  38  42
ENDBRANCH  37  38
ENDBRANCH  36  37
ENDBRANCH  30  36
ENDBRANCH  25  27
BRANCH  24  44
HETATM   44  O   UNK N   1      33.460  16.963   7.043  0.00  0.00    -0.348 OA
HETATM   45  H   UNK N   1      33.065  17.285   6.257  0.00  0.00     0.219 HD
ENDBRANCH  24  44
ENDBRANCH  23  24
ENDBRANCH  21  23
ENDBRANCH  20  21
ENDBRANCH   1  20
BRANCH   1  46
HETATM   46  C   UNK N   1      34.707  14.078   9.292  0.00  0.00    -0.022 A 
HETATM   47  C   UNK N   1      33.392  13.734   8.963  0.00  0.00     0.011 A 
HETATM   48  C   UNK N   1      33.007  13.559   7.647  0.00  0.00     0.017 A 
HETATM   49  C   UNK N   1      33.939  13.679   6.619  0.00  0.00     0.032 A 
HETATM   50  C   UNK N   1      35.285  13.930   6.933  0.00  0.00     0.017 A 
HETATM   51  C   UNK N   1      35.664  14.159   8.266  0.00  0.00     0.011 A 
BRANCH  49  52
HETATM   52  C   UNK N   1      33.464  13.606   5.224  0.00  0.00     0.252 C 
HETATM   53  N   UNK N   1      33.396  14.719   4.454  0.00  0.00    -0.343 N 
HETATM   54  H   UNK N   1      34.242  15.043   4.068  0.00  0.00     0.163 HD
HETATM   55  O   UNK N   1      33.350  12.509   4.695  0.00  0.00    -0.268 OA
BRANCH  53  56
HETATM   56  C   UNK N   1      32.200  15.482   4.140  0.00  0.00     0.183 C 
BRANCH  56  57
HETATM   57  C   UNK N   1      31.312  14.704   3.174  0.00  0.00     0.046 C 
BRANCH  57  58
HETATM   58  C   UNK N   1      29.859  14.701   3.643  0.00  0.00     0.112 C 
BRANCH  58  59
HETATM   59  C   UNK N   1      28.997  15.520   2.732  0.00  0.00     0.139 C 
HETATM   60  O   UNK N   1      28.236  14.979   1.945  0.00  0.00    -0.650 OA
BRANCH  59  61
HETATM   61  O   UNK N   1      29.072  16.861   2.771  0.00  0.00    -0.776 OA
HETATM   62  H   UNK N   1      28.376  17.438   3.017  0.00  0.00     0.167 HD
ENDBRANCH  59  61
ENDBRANCH  58  59
ENDBRANCH  57  58
ENDBRANCH  56  57
BRANCH  56  63
HETATM   63  C   UNK N   1      32.439  16.877   3.616  0.00  0.00     0.163 C 
HETATM   64  O   UNK N   1      32.964  17.738   4.303  0.00  0.00    -0.648 OA
BRANCH  63  65
HETATM   65  O   UNK N   1      32.038  17.183   2.366  0.00  0.00    -0.775 OA
HETATM   66  H   UNK N   1      31.552  16.716   1.715  0.00  0.00     0.167 HD
ENDBRANCH  63  65
ENDBRANCH  56  63
ENDBRANCH  53  56
ENDBRANCH  49  52
ENDBRANCH   1  46
BRANCH   1  67
HETATM   67  O   UNK N   1      33.779  14.714  11.403  0.00  0.00    -0.383 OA
HETATM   68  H   UNK N   1      33.501  14.646  12.330  0.00  0.00     0.211 HD
ENDBRANCH   1  67
TORSDOF 26
ENDMDL
MODEL 7
REMARK VINA RESULT:      -8.4      3.668      9.427
REMARK  26 active torsions:
REMARK  status: ('A' for Active; 'I' for Inactive)
REMARK    1  A    between atoms: C_8  and  C_7 
REMARK    2  A    between atoms: C_19  and  C_7 
REMARK    3  A    between atoms: C_22  and  C_8 
REMARK    4  A    between atoms: C_14  and  C_10 
REMARK    5  A    between atoms: C_30  and  C_10 
REMARK    6  A    between atoms: C_21  and  C_11 
REMARK    7  A    between atoms: N_33  and  C_11 
REMARK    8  A    between atoms: C_20  and  C_12 
REMARK    9  A    between atoms: O_53  and  C_12 
REMARK   10  A    between atoms: C_30  and  C_13 
REMARK   11  A    between atoms: N_33  and  C_13 
REMARK   12  A    between atoms: C_25  and  C_15 
REMARK   13  A    between atoms: C_30  and  C_16 
REMARK   14  A    between atoms: C_28  and  C_19 
REMARK   15  A    between atoms: C_19  and  N_34 
REMARK   16  A    between atoms: C_21  and  O_40 
REMARK   17  A    between atoms: O_42  and  C_22 
REMARK   18  A    between atoms: C_23  and  O_43 
REMARK   19  A    between atoms: C_24  and  O_44 
REMARK       I    between atoms: N_34  and  C_25 
REMARK   20  A    between atoms: O_46  and  C_26 
REMARK   21  A    between atoms: C_27  and  N_36 
REMARK   22  A    between atoms: O_48  and  C_28 
REMARK       I    between atoms: N_31  and  C_29 
REMARK   23  A    between atoms: C_30  and  O_49 
REMARK   24  A    between atoms: P_55  and  O_50 
REMARK   25  A    between atoms: P_55  and  O_51 
REMARK   26  A    between atoms: P_55  and  O_53 
ROOT
HETATM    1  C   UNK N   1      25.179  17.044   4.188  0.00  0.00     0.104 C 
ENDROOT
BRANCH   1   2
HETATM    2  C   UNK N   1      26.033  18.259   4.588  0.00  0.00     0.083 C 
BRANCH   2   3
HETATM    3  C   UNK N   1      27.367  18.075   5.251  0.00  0.00    -0.054 A 
HETATM    4  C   UNK N   1      28.533  17.768   4.527  0.00  0.00     0.009 A 
HETATM    5  C   UNK N   1      29.725  17.462   5.202  0.00  0.00     0.031 A 
HETATM    6  C   UNK N   1      29.741  17.418   6.602  0.00  0.00     0.063 A 
HETATM    7  C   UNK N   1      28.571  17.706   7.324  0.00  0.00     0.043 A 
HETATM    8  N   UNK N   1      30.876  17.072   7.268  0.00  0.00    -0.191 N 
HETATM    9  C   UNK N   1      27.395  18.037   6.646  0.00  0.00     0.025 A 
HETATM   10  C   UNK N   1      28.607  17.626   8.718  0.00  0.00     0.167 A 
HETATM   11  N   UNK N   1      29.763  17.272   9.340  0.00  0.00    -0.170 N 
HETATM   12  C   UNK N   1      30.887  16.997   8.627  0.00  0.00     0.678 A 
ATOM     13  HN  UNK N   1      29.786  17.212  10.359  1.00  0.00     0.186 HD
HETATM   14  N   UNK N   1      31.958  16.654   9.238  0.00  0.00    -0.234 N 
HETATM   15  H   UNK N   1      32.813  16.559   8.760  0.00  0.00     0.174 HD
ATOM     16  HN  UNK N   1      31.925  16.476  10.242  1.00  0.00     0.174 HD
HETATM   17  H   UNK N   1      31.697  16.874   6.764  0.00  0.00     0.184 HD
BRANCH  10  18
HETATM   18  O   UNK N   1      27.507  17.882   9.449  0.00  0.00    -0.345 OA
HETATM   19  H   UNK N   1      27.100  18.725   9.410  0.00  0.00     0.219 HD
ENDBRANCH  10  18
ENDBRANCH   2   3
ENDBRANCH   1   2
BRANCH   1  20
HETATM   20  C   UNK N   1      26.240  16.036   3.686  0.00  0.00     0.157 C 
BRANCH  20  21
HETATM   21  N   UNK N   1      26.131  15.546   2.299  0.00  0.00    -0.411 N 
HETATM   22  H   UNK N   1      26.523  16.050   1.504  0.00  0.00     0.153 HD
BRANCH  21  23
HETATM   23  C   UNK N   1      25.413  14.276   2.156  0.00  0.00     0.198 C 
BRANCH  23  24
HETATM   24  C   UNK N   1      23.985  14.423   1.763  0.00  0.00     0.131 C 
HETATM   25  N   UNK N   1      23.107  14.574   2.699  0.00  0.00    -0.344 N 
ATOM     26  HN  UNK N   1      23.468  14.535   3.652  1.00  0.00     0.164 HD
BRANCH  25  27
HETATM   27  C   UNK N   1      21.670  14.796   2.580  0.00  0.00     0.254 C 
HETATM   28  C   UNK N   1      20.833  14.611   3.831  0.00  0.00     0.198 C 
HETATM   29  C   UNK N   1      19.550  15.289   3.442  0.00  0.00     0.182 C 
HETATM   30  C   UNK N   1      20.023  16.263   2.341  0.00  0.00     0.180 C 
HETATM   31  O   UNK N   1      21.425  16.125   2.198  0.00  0.00    -0.354 OA
BRANCH  28  32
HETATM   32  O   UNK N   1      20.653  13.269   4.181  0.00  0.00    -0.389 OA
HETATM   33  H   UNK N   1      19.762  12.917   4.335  0.00  0.00     0.210 HD
ENDBRANCH  28  32
BRANCH  29  34
HETATM   34  O   UNK N   1      18.989  15.924   4.558  0.00  0.00    -0.390 OA
HETATM   35  H   UNK N   1      18.837  15.857   5.514  0.00  0.00     0.210 HD
ENDBRANCH  29  34
BRANCH  30  36
HETATM   36  C   UNK N   1      19.633  17.711   2.597  0.00  0.00     0.215 C 
BRANCH  36  37
HETATM   37  O   UNK N   1      20.371  18.231   3.663  0.00  0.00    -0.294 OA
BRANCH  37  38
HETATM   38  P   UNK N   1      21.052  19.719   3.072  0.00  0.00     0.390 P 
HETATM   39  O   UNK N   1      20.854  19.763   1.531  0.00  0.00    -0.632 OA
BRANCH  38  40
HETATM   40  O   UNK N   1      22.763  19.767   3.352  0.00  0.00    -0.307 OA
HETATM   41  H   UNK N   1      23.286  20.583   3.339  0.00  0.00     0.222 HD
ENDBRANCH  38  40
BRANCH  38  42
HETATM   42  O   UNK N   1      20.268  21.113   3.748  0.00  0.00    -0.307 OA
HETATM   43  H   UNK N   1      19.312  21.276   3.721  0.00  0.00     0.222 HD
ENDBRANCH  38  42
ENDBRANCH  37  38
ENDBRANCH  36  37
ENDBRANCH  30  36
ENDBRANCH  25  27
BRANCH  24  44
HETATM   44  O   UNK N   1      23.652  14.427   0.459  0.00  0.00    -0.348 OA
HETATM   45  H   UNK N   1      23.160  13.895  -0.134  0.00  0.00     0.219 HD
ENDBRANCH  24  44
ENDBRANCH  23  24
ENDBRANCH  21  23
ENDBRANCH  20  21
ENDBRANCH   1  20
BRANCH   1  46
HETATM   46  C   UNK N   1      24.427  16.442   5.358  0.00  0.00    -0.022 A 
HETATM   47  C   UNK N   1      23.159  16.953   5.657  0.00  0.00     0.011 A 
HETATM   48  C   UNK N   1      22.287  16.265   6.479  0.00  0.00     0.017 A 
HETATM   49  C   UNK N   1      22.673  15.063   7.066  0.00  0.00     0.032 A 
HETATM   50  C   UNK N   1      23.975  14.580   6.857  0.00  0.00     0.017 A 
HETATM   51  C   UNK N   1      24.842  15.252   5.980  0.00  0.00     0.011 A 
BRANCH  49  52
HETATM   52  C   UNK N   1      21.672  14.301   7.837  0.00  0.00     0.252 C 
HETATM   53  N   UNK N   1      21.760  14.202   9.185  0.00  0.00    -0.343 N 
HETATM   54  H   UNK N   1      21.457  14.981   9.707  0.00  0.00     0.163 HD
HETATM   55  O   UNK N   1      20.639  13.953   7.282  0.00  0.00    -0.268 OA
BRANCH  53  56
HETATM   56  C   UNK N   1      22.256  13.065   9.939  0.00  0.00     0.183 C 
BRANCH  56  57
HETATM   57  C   UNK N   1      22.748  11.973   8.992  0.00  0.00     0.046 C 
BRANCH  57  58
HETATM   58  C   UNK N   1      24.226  11.671   9.221  0.00  0.00     0.112 C 
BRANCH  58  59
HETATM   59  C   UNK N   1      24.821  12.619  10.218  0.00  0.00     0.139 C 
HETATM   60  O   UNK N   1      25.334  13.665   9.852  0.00  0.00    -0.650 OA
BRANCH  59  61
HETATM   61  O   UNK N   1      24.802  12.308  11.526  0.00  0.00    -0.776 OA
HETATM   62  H   UNK N   1      25.081  11.493  11.895  0.00  0.00     0.167 HD
ENDBRANCH  59  61
ENDBRANCH  58  59
ENDBRANCH  57  58
ENDBRANCH  56  57
BRANCH  56  63
HETATM   63  C   UNK N   1      21.295  12.483  10.946  0.00  0.00     0.163 C 
HETATM   64  O   UNK N   1      20.091  12.656  10.857  0.00  0.00    -0.648 OA
BRANCH  63  65
HETATM   65  O   UNK N   1      21.784  11.775  11.983  0.00  0.00    -0.775 OA
HETATM   66  H   UNK N   1      22.534  11.221  12.087  0.00  0.00     0.167 HD
ENDBRANCH  63  65
ENDBRANCH  56  63
ENDBRANCH  53  56
ENDBRANCH  49  52
ENDBRANCH   1  46
BRANCH   1  67
HETATM   67  O   UNK N   1      24.291  17.361   3.154  0.00  0.00    -0.383 OA
HETATM   68  H   UNK N   1      23.330  17.425   3.044  0.00  0.00     0.211 HD
ENDBRANCH   1  67
TORSDOF 26
ENDMDL
MODEL 8
REMARK VINA RESULT:      -8.4      3.335      9.920
REMARK  26 active torsions:
REMARK  status: ('A' for Active; 'I' for Inactive)
REMARK    1  A    between atoms: C_8  and  C_7 
REMARK    2  A    between atoms: C_19  and  C_7 
REMARK    3  A    between atoms: C_22  and  C_8 
REMARK    4  A    between atoms: C_14  and  C_10 
REMARK    5  A    between atoms: C_30  and  C_10 
REMARK    6  A    between atoms: C_21  and  C_11 
REMARK    7  A    between atoms: N_33  and  C_11 
REMARK    8  A    between atoms: C_20  and  C_12 
REMARK    9  A    between atoms: O_53  and  C_12 
REMARK   10  A    between atoms: C_30  and  C_13 
REMARK   11  A    between atoms: N_33  and  C_13 
REMARK   12  A    between atoms: C_25  and  C_15 
REMARK   13  A    between atoms: C_30  and  C_16 
REMARK   14  A    between atoms: C_28  and  C_19 
REMARK   15  A    between atoms: C_19  and  N_34 
REMARK   16  A    between atoms: C_21  and  O_40 
REMARK   17  A    between atoms: O_42  and  C_22 
REMARK   18  A    between atoms: C_23  and  O_43 
REMARK   19  A    between atoms: C_24  and  O_44 
REMARK       I    between atoms: N_34  and  C_25 
REMARK   20  A    between atoms: O_46  and  C_26 
REMARK   21  A    between atoms: C_27  and  N_36 
REMARK   22  A    between atoms: O_48  and  C_28 
REMARK       I    between atoms: N_31  and  C_29 
REMARK   23  A    between atoms: C_30  and  O_49 
REMARK   24  A    between atoms: P_55  and  O_50 
REMARK   25  A    between atoms: P_55  and  O_51 
REMARK   26  A    between atoms: P_55  and  O_53 
ROOT
HETATM    1  C   UNK N   1      27.560  17.473   5.363  0.00  0.00     0.104 C 
ENDROOT
BRANCH   1   2
HETATM    2  C   UNK N   1      29.057  17.253   5.084  0.00  0.00     0.083 C 
BRANCH   2   3
HETATM    3  C   UNK N   1      30.032  17.089   6.214  0.00  0.00    -0.054 A 
HETATM    4  C   UNK N   1      29.622  16.998   7.556  0.00  0.00     0.009 A 
HETATM    5  C   UNK N   1      30.574  16.993   8.588  0.00  0.00     0.031 A 
HETATM    6  C   UNK N   1      31.934  17.124   8.281  0.00  0.00     0.063 A 
HETATM    7  C   UNK N   1      32.342  17.234   6.940  0.00  0.00     0.043 A 
HETATM    8  N   UNK N   1      32.864  17.172   9.273  0.00  0.00    -0.191 N 
HETATM    9  C   UNK N   1      31.390  17.210   5.917  0.00  0.00     0.025 A 
HETATM   10  C   UNK N   1      33.701  17.392   6.663  0.00  0.00     0.167 A 
HETATM   11  N   UNK N   1      34.593  17.439   7.689  0.00  0.00    -0.170 N 
HETATM   12  C   UNK N   1      34.184  17.332   8.981  0.00  0.00     0.678 A 
ATOM     13  HN  UNK N   1      35.586  17.559   7.485  1.00  0.00     0.186 HD
HETATM   14  N   UNK N   1      35.044  17.391   9.926  0.00  0.00    -0.234 N 
HETATM   15  H   UNK N   1      34.793  17.204  10.859  0.00  0.00     0.174 HD
ATOM     16  HN  UNK N   1      36.009  17.638   9.708  1.00  0.00     0.174 HD
HETATM   17  H   UNK N   1      32.580  17.091  10.212  0.00  0.00     0.184 HD
BRANCH  10  18
HETATM   18  O   UNK N   1      34.135  17.513   5.396  0.00  0.00    -0.345 OA
HETATM   19  H   UNK N   1      34.527  16.782   4.960  0.00  0.00     0.219 HD
ENDBRANCH  10  18
ENDBRANCH   2   3
ENDBRANCH   1   2
BRANCH   1  20
HETATM   20  C   UNK N   1      27.047  18.046   4.021  0.00  0.00     0.157 C 
BRANCH  20  21
HETATM   21  N   UNK N   1      27.134  19.505   3.810  0.00  0.00    -0.411 N 
HETATM   22  H   UNK N   1      27.924  20.062   4.132  0.00  0.00     0.153 HD
BRANCH  21  23
HETATM   23  C   UNK N   1      25.990  20.085   3.100  0.00  0.00     0.198 C 
BRANCH  23  24
HETATM   24  C   UNK N   1      24.676  19.839   3.754  0.00  0.00     0.131 C 
HETATM   25  N   UNK N   1      23.604  20.024   3.056  0.00  0.00    -0.344 N 
ATOM     26  HN  UNK N   1      23.749  20.373   2.109  1.00  0.00     0.164 HD
BRANCH  25  27
HETATM   27  C   UNK N   1      22.214  19.798   3.437  0.00  0.00     0.254 C 
HETATM   28  C   UNK N   1      21.151  20.120   2.404  0.00  0.00     0.198 C 
HETATM   29  C   UNK N   1      19.952  19.411   2.971  0.00  0.00     0.182 C 
HETATM   30  C   UNK N   1      20.609  18.323   3.849  0.00  0.00     0.180 C 
HETATM   31  O   UNK N   1      22.014  18.438   3.722  0.00  0.00    -0.354 OA
BRANCH  28  32
HETATM   32  O   UNK N   1      20.941  21.492   2.238  0.00  0.00    -0.389 OA
HETATM   33  H   UNK N   1      20.491  22.007   2.926  0.00  0.00     0.210 HD
ENDBRANCH  28  32
BRANCH  29  34
HETATM   34  O   UNK N   1      19.165  18.901   1.930  0.00  0.00    -0.390 OA
HETATM   35  H   UNK N   1      19.182  18.518   1.039  0.00  0.00     0.210 HD
ENDBRANCH  29  34
BRANCH  30  36
HETATM   36  C   UNK N   1      20.137  16.913   3.529  0.00  0.00     0.215 C 
BRANCH  36  37
HETATM   37  O   UNK N   1      19.271  16.454   4.525  0.00  0.00    -0.294 OA
BRANCH  37  38
HETATM   38  P   UNK N   1      20.302  15.882   5.806  0.00  0.00     0.390 P 
HETATM   39  O   UNK N   1      19.779  14.493   6.264  0.00  0.00    -0.632 OA
BRANCH  38  40
HETATM   40  O   UNK N   1      20.204  16.928   7.186  0.00  0.00    -0.307 OA
HETATM   41  H   UNK N   1      20.842  16.913   7.917  0.00  0.00     0.222 HD
ENDBRANCH  38  40
BRANCH  38  42
HETATM   42  O   UNK N   1      21.947  15.687   5.284  0.00  0.00    -0.307 OA
HETATM   43  H   UNK N   1      22.214  15.390   4.401  0.00  0.00     0.222 HD
ENDBRANCH  38  42
ENDBRANCH  37  38
ENDBRANCH  36  37
ENDBRANCH  30  36
ENDBRANCH  25  27
BRANCH  24  44
HETATM   44  O   UNK N   1      24.640  19.404   5.027  0.00  0.00    -0.348 OA
HETATM   45  H   UNK N   1      24.087  18.871   5.563  0.00  0.00     0.219 HD
ENDBRANCH  24  44
ENDBRANCH  23  24
ENDBRANCH  21  23
ENDBRANCH  20  21
ENDBRANCH   1  20
BRANCH   1  46
HETATM   46  C   UNK N   1      26.823  16.185   5.674  0.00  0.00    -0.022 A 
HETATM   47  C   UNK N   1      26.586  15.873   7.016  0.00  0.00     0.011 A 
HETATM   48  C   UNK N   1      25.662  14.910   7.374  0.00  0.00     0.017 A 
HETATM   49  C   UNK N   1      24.975  14.196   6.395  0.00  0.00     0.032 A 
HETATM   50  C   UNK N   1      25.266  14.427   5.041  0.00  0.00     0.017 A 
HETATM   51  C   UNK N   1      26.168  15.441   4.679  0.00  0.00     0.011 A 
BRANCH  49  52
HETATM   52  C   UNK N   1      23.910  13.266   6.817  0.00  0.00     0.252 C 
HETATM   53  N   UNK N   1      22.823  13.714   7.489  0.00  0.00    -0.343 N 
HETATM   54  H   UNK N   1      22.122  14.154   6.955  0.00  0.00     0.163 HD
HETATM   55  O   UNK N   1      23.900  12.132   6.360  0.00  0.00    -0.268 OA
BRANCH  53  56
HETATM   56  C   UNK N   1      22.586  13.612   8.919  0.00  0.00     0.183 C 
BRANCH  56  57
HETATM   57  C   UNK N   1      22.903  12.203   9.411  0.00  0.00     0.046 C 
BRANCH  57  58
HETATM   58  C   UNK N   1      23.882  12.237  10.582  0.00  0.00     0.112 C 
BRANCH  58  59
HETATM   59  C   UNK N   1      23.180  11.967  11.878  0.00  0.00     0.139 C 
HETATM   60  O   UNK N   1      23.792  11.992  12.934  0.00  0.00    -0.650 OA
BRANCH  59  61
HETATM   61  O   UNK N   1      21.866  11.682  11.876  0.00  0.00    -0.776 OA
HETATM   62  H   UNK N   1      21.239  12.010  11.263  0.00  0.00     0.167 HD
ENDBRANCH  59  61
ENDBRANCH  58  59
ENDBRANCH  57  58
ENDBRANCH  56  57
BRANCH  56  63
HETATM   63  C   UNK N   1      21.210  14.025   9.381  0.00  0.00     0.163 C 
HETATM   64  O   UNK N   1      20.865  15.195   9.401  0.00  0.00    -0.648 OA
BRANCH  63  65
HETATM   65  O   UNK N   1      20.352  13.076   9.805  0.00  0.00    -0.775 OA
HETATM   66  H   UNK N   1      19.942  12.903  10.631  0.00  0.00     0.167 HD
ENDBRANCH  63  65
ENDBRANCH  56  63
ENDBRANCH  53  56
ENDBRANCH  49  52
ENDBRANCH   1  46
BRANCH   1  67
HETATM   67  O   UNK N   1      27.364  18.403   6.389  0.00  0.00    -0.383 OA
HETATM   68  H   UNK N   1      26.749  18.516   7.131  0.00  0.00     0.211 HD
ENDBRANCH   1  67
TORSDOF 26
ENDMDL
MODEL 9
REMARK VINA RESULT:      -8.3      3.021      7.258
REMARK  26 active torsions:
REMARK  status: ('A' for Active; 'I' for Inactive)
REMARK    1  A    between atoms: C_8  and  C_7 
REMARK    2  A    between atoms: C_19  and  C_7 
REMARK    3  A    between atoms: C_22  and  C_8 
REMARK    4  A    between atoms: C_14  and  C_10 
REMARK    5  A    between atoms: C_30  and  C_10 
REMARK    6  A    between atoms: C_21  and  C_11 
REMARK    7  A    between atoms: N_33  and  C_11 
REMARK    8  A    between atoms: C_20  and  C_12 
REMARK    9  A    between atoms: O_53  and  C_12 
REMARK   10  A    between atoms: C_30  and  C_13 
REMARK   11  A    between atoms: N_33  and  C_13 
REMARK   12  A    between atoms: C_25  and  C_15 
REMARK   13  A    between atoms: C_30  and  C_16 
REMARK   14  A    between atoms: C_28  and  C_19 
REMARK   15  A    between atoms: C_19  and  N_34 
REMARK   16  A    between atoms: C_21  and  O_40 
REMARK   17  A    between atoms: O_42  and  C_22 
REMARK   18  A    between atoms: C_23  and  O_43 
REMARK   19  A    between atoms: C_24  and  O_44 
REMARK       I    between atoms: N_34  and  C_25 
REMARK   20  A    between atoms: O_46  and  C_26 
REMARK   21  A    between atoms: C_27  and  N_36 
REMARK   22  A    between atoms: O_48  and  C_28 
REMARK       I    between atoms: N_31  and  C_29 
REMARK   23  A    between atoms: C_30  and  O_49 
REMARK   24  A    between atoms: P_55  and  O_50 
REMARK   25  A    between atoms: P_55  and  O_51 
REMARK   26  A    between atoms: P_55  and  O_53 
ROOT
HETATM    1  C   UNK N   1      28.458  16.889   5.384  0.00  0.00     0.104 C 
ENDROOT
BRANCH   1   2
HETATM    2  C   UNK N   1      27.951  18.331   5.559  0.00  0.00     0.083 C 
BRANCH   2   3
HETATM    3  C   UNK N   1      26.856  18.870   4.683  0.00  0.00    -0.054 A 
HETATM    4  C   UNK N   1      27.062  19.941   3.794  0.00  0.00     0.009 A 
HETATM    5  C   UNK N   1      25.977  20.505   3.105  0.00  0.00     0.031 A 
HETATM    6  C   UNK N   1      24.680  20.030   3.338  0.00  0.00     0.063 A 
HETATM    7  C   UNK N   1      24.474  18.973   4.241  0.00  0.00     0.043 A 
HETATM    8  N   UNK N   1      23.614  20.602   2.716  0.00  0.00    -0.191 N 
HETATM    9  C   UNK N   1      25.562  18.398   4.903  0.00  0.00     0.025 A 
HETATM   10  C   UNK N   1      23.168  18.538   4.477  0.00  0.00     0.167 A 
HETATM   11  N   UNK N   1      22.133  19.143   3.835  0.00  0.00    -0.170 N 
HETATM   12  C   UNK N   1      22.349  20.164   2.964  0.00  0.00     0.678 A 
ATOM     13  HN  UNK N   1      21.179  18.825   4.012  1.00  0.00     0.186 HD
HETATM   14  N   UNK N   1      21.355  20.723   2.383  0.00  0.00    -0.234 N 
HETATM   15  H   UNK N   1      21.486  21.385   1.667  0.00  0.00     0.174 HD
ATOM     16  HN  UNK N   1      20.407  20.478   2.669  1.00  0.00     0.174 HD
HETATM   17  H   UNK N   1      23.757  21.339   2.080  0.00  0.00     0.184 HD
BRANCH  10  18
HETATM   18  O   UNK N   1      22.923  17.537   5.342  0.00  0.00    -0.345 OA
HETATM   19  H   UNK N   1      22.079  17.454   5.740  0.00  0.00     0.219 HD
ENDBRANCH  10  18
ENDBRANCH   2   3
ENDBRANCH   1   2
BRANCH   1  20
HETATM   20  C   UNK N   1      29.536  16.774   6.488  0.00  0.00     0.157 C 
BRANCH  20  21
HETATM   21  N   UNK N   1      29.668  17.886   7.449  0.00  0.00    -0.411 N 
HETATM   22  H   UNK N   1      29.299  18.819   7.266  0.00  0.00     0.153 HD
BRANCH  21  23
HETATM   23  C   UNK N   1      30.373  17.540   8.687  0.00  0.00     0.198 C 
BRANCH  23  24
HETATM   24  C   UNK N   1      31.829  17.291   8.511  0.00  0.00     0.131 C 
HETATM   25  N   UNK N   1      32.385  16.382   9.242  0.00  0.00    -0.344 N 
ATOM     26  HN  UNK N   1      31.776  15.932   9.925  1.00  0.00     0.164 HD
BRANCH  25  27
HETATM   27  C   UNK N   1      33.765  15.909   9.223  0.00  0.00     0.254 C 
HETATM   28  C   UNK N   1      34.810  16.790   9.881  0.00  0.00     0.198 C 
HETATM   29  C   UNK N   1      35.965  15.839  10.022  0.00  0.00     0.182 C 
HETATM   30  C   UNK N   1      35.254  14.468  10.017  0.00  0.00     0.180 C 
HETATM   31  O   UNK N   1      33.860  14.691   9.916  0.00  0.00    -0.354 OA
BRANCH  28  32
HETATM   32  O   UNK N   1      35.129  17.924   9.126  0.00  0.00    -0.389 OA
HETATM   33  H   UNK N   1      34.563  18.711   9.161  0.00  0.00     0.210 HD
ENDBRANCH  28  32
BRANCH  29  34
HETATM   34  O   UNK N   1      36.663  16.112  11.205  0.00  0.00    -0.390 OA
HETATM   35  H   UNK N   1      36.579  16.413  12.124  0.00  0.00     0.210 HD
ENDBRANCH  29  34
BRANCH  30  36
HETATM   36  C   UNK N   1      35.591  13.601  11.220  0.00  0.00     0.215 C 
BRANCH  36  37
HETATM   37  O   UNK N   1      34.924  14.068  12.356  0.00  0.00    -0.294 OA
BRANCH  37  38
HETATM   38  P   UNK N   1      35.990  13.728  13.689  0.00  0.00     0.390 P 
HETATM   39  O   UNK N   1      35.122  13.298  14.905  0.00  0.00    -0.632 OA
BRANCH  38  40
HETATM   40  O   UNK N   1      36.845  15.157  14.173  0.00  0.00    -0.307 OA
HETATM   41  H   UNK N   1      36.413  16.008  14.346  0.00  0.00     0.222 HD
ENDBRANCH  38  40
BRANCH  38  42
HETATM   42  O   UNK N   1      37.088  12.431  13.335  0.00  0.00    -0.307 OA
HETATM   43  H   UNK N   1      37.893  12.237  13.839  0.00  0.00     0.222 HD
ENDBRANCH  38  42
ENDBRANCH  37  38
ENDBRANCH  36  37
ENDBRANCH  30  36
ENDBRANCH  25  27
BRANCH  24  44
HETATM   44  O   UNK N   1      32.515  17.986   7.584  0.00  0.00    -0.348 OA
HETATM   45  H   UNK N   1      32.362  18.703   7.000  0.00  0.00     0.219 HD
ENDBRANCH  24  44
ENDBRANCH  23  24
ENDBRANCH  21  23
ENDBRANCH  20  21
ENDBRANCH   1  20
BRANCH   1  46
HETATM   46  C   UNK N   1      27.379  15.852   5.624  0.00  0.00    -0.022 A 
HETATM   47  C   UNK N   1      26.742  15.843   6.869  0.00  0.00     0.011 A 
HETATM   48  C   UNK N   1      25.553  15.164   7.059  0.00  0.00     0.017 A 
HETATM   49  C   UNK N   1      24.987  14.432   6.017  0.00  0.00     0.032 A 
HETATM   50  C   UNK N   1      25.659  14.349   4.787  0.00  0.00     0.017 A 
HETATM   51  C   UNK N   1      26.839  15.081   4.580  0.00  0.00     0.011 A 
BRANCH  49  52
HETATM   52  C   UNK N   1      23.659  13.824   6.225  0.00  0.00     0.252 C 
HETATM   53  N   UNK N   1      22.569  14.596   6.450  0.00  0.00    -0.343 N 
HETATM   54  H   UNK N   1      22.163  15.030   5.664  0.00  0.00     0.163 HD
HETATM   55  O   UNK N   1      23.504  12.639   5.965  0.00  0.00    -0.268 OA
BRANCH  53  56
HETATM   56  C   UNK N   1      21.937  14.849   7.733  0.00  0.00     0.183 C 
BRANCH  56  57
HETATM   57  C   UNK N   1      21.500  13.537   8.378  0.00  0.00     0.046 C 
BRANCH  57  58
HETATM   58  C   UNK N   1      21.813  13.528   9.872  0.00  0.00     0.112 C 
BRANCH  58  59
HETATM   59  C   UNK N   1      22.239  12.165  10.325  0.00  0.00     0.139 C 
HETATM   60  O   UNK N   1      22.882  11.437   9.585  0.00  0.00    -0.650 OA
BRANCH  59  61
HETATM   61  O   UNK N   1      21.899  11.735  11.553  0.00  0.00    -0.776 OA
HETATM   62  H   UNK N   1      21.025  11.579  11.851  0.00  0.00     0.167 HD
ENDBRANCH  59  61
ENDBRANCH  58  59
ENDBRANCH  57  58
ENDBRANCH  56  57
BRANCH  56  63
HETATM   63  C   UNK N   1      20.785  15.824   7.709  0.00  0.00     0.163 C 
HETATM   64  O   UNK N   1      19.626  15.447   7.771  0.00  0.00    -0.648 OA
BRANCH  63  65
HETATM   65  O   UNK N   1      21.045  17.141   7.592  0.00  0.00    -0.775 OA
HETATM   66  H   UNK N   1      21.716  17.626   7.153  0.00  0.00     0.167 HD
ENDBRANCH  63  65
ENDBRANCH  56  63
ENDBRANCH  53  56
ENDBRANCH  49  52
ENDBRANCH   1  46
BRANCH   1  67
HETATM   67  O   UNK N   1      29.038  16.701   4.125  0.00  0.00    -0.383 OA
HETATM   68  H   UNK N   1      29.699  17.154   3.577  0.00  0.00     0.211 HD
ENDBRANCH   1  67
TORSDOF 26
ENDMDL
