MODEL 1
REMARK VINA RESULT:      -9.6      0.000      0.000
REMARK  7 active torsions:
REMARK  status: ('A' for Active; 'I' for Inactive)
REMARK       I    between atoms: N_1  and  C_2 
REMARK       I    between atoms: C_2  and  N_3 
REMARK    1  A    between atoms: C_6  and  C_9 
REMARK    2  A    between atoms: C_9  and  N_10 
REMARK       I    between atoms: N_10  and  C_11 
REMARK    3  A    between atoms: C_13  and  C_11 
REMARK    4  A    between atoms: N_18  and  S_23 
REMARK    5  A    between atoms: S_23  and  C_26 
REMARK    6  A    between atoms: C_26  and  C_27 
REMARK    7  A    between atoms: N_33  and  O_35 
ROOT
HETATM    1  C   UNK N   1      33.793  15.444   7.128  0.00  0.00     0.179 C 
HETATM    2  C   UNK N   1      32.460  14.846   7.571  0.00  0.00     0.037 C 
HETATM    3  C   UNK N   1      32.269  15.327   9.021  0.00  0.00     0.029 C 
HETATM    4  C   UNK N   1      33.659  15.713   9.516  0.00  0.00     0.102 C 
HETATM    5  C   UNK N   1      34.062  14.838  10.705  0.00  0.00     0.133 C 
HETATM    6  N   UNK N   1      35.481  15.059  10.978  0.00  0.00    -0.200 NA
HETATM    7  C   UNK N   1      36.346  14.646   9.845  0.00  0.00     0.210 C 
HETATM    8  C   UNK N   1      35.709  14.834   8.500  0.00  0.00     0.235 C 
HETATM    9  O   UNK N   1      36.273  14.372   7.521  0.00  0.00    -0.272 OA
HETATM   10  N   UNK N   1      34.497  15.450   8.376  0.00  0.00    -0.332 N 
ENDROOT
BRANCH   1  11
HETATM   11  C   UNK N   1      33.544  16.839   6.530  0.00  0.00     0.240 C 
HETATM   12  N   UNK N   1      32.576  17.120   5.614  0.00  0.00    -0.359 N 
HETATM   13  H   UNK N   1      32.435  18.071   5.405  0.00  0.00     0.162 HD
HETATM   14  O   UNK N   1      34.228  17.768   6.932  0.00  0.00    -0.271 OA
BRANCH  12  15
HETATM   15  C   UNK N   1      31.732  16.178   4.917  0.00  0.00     0.127 C 
BRANCH  15  16
HETATM   16  C   UNK N   1      30.253  16.509   4.954  0.00  0.00     0.006 C 
HETATM   17  C   UNK N   1      29.476  15.906   6.140  0.00  0.00     0.027 C 
HETATM   18  C   UNK N   1      28.815  16.923   7.096  0.00  0.00     0.141 C 
HETATM   19  N   UNK N   1      28.417  18.183   6.469  0.00  0.00    -0.216 N 
HETATM   20  C   UNK N   1      27.893  19.285   7.231  0.00  0.00     0.693 C 
HETATM   21  C   UNK N   1      28.672  18.384   5.064  0.00  0.00     0.141 C 
HETATM   22  N   UNK N   1      27.730  20.541   6.599  0.00  0.00    -0.233 N 
HETATM   23  N   UNK N   1      27.559  19.183   8.476  0.00  0.00    -0.099 N 
HETATM   24  H   UNK N   1      27.276  21.277   7.070  0.00  0.00     0.174 HD
HETATM   25  H   UNK N   1      28.069  20.679   5.685  0.00  0.00     0.174 HD
ATOM     26  HN  UNK N   1      27.212  20.014   8.955  1.00  0.00     0.213 HD
HETATM   27  C   UNK N   1      30.108  18.018   4.800  0.00  0.00     0.027 C 
BRANCH  23  28
HETATM   28  O   UNK N   1      27.646  18.059   9.155  0.00  0.00    -0.276 OA
HETATM   29  H   UNK N   1      27.179  17.300   8.869  0.00  0.00     0.245 HD
ENDBRANCH  23  28
ENDBRANCH  15  16
ENDBRANCH  12  15
ENDBRANCH   1  11
BRANCH   6  30
HETATM   30  S   UNK N   1      35.926  14.462  12.633  0.00  0.00     0.216 S 
HETATM   31  O   UNK N   1      34.550  13.784  12.480  0.00  0.00    -0.211 OA
HETATM   32  O   UNK N   1      36.923  13.653  11.794  0.00  0.00    -0.211 OA
BRANCH  30  33
HETATM   33  C   UNK N   1      35.678  12.724  13.330  0.00  0.00     0.196 C 
BRANCH  33  34
HETATM   34  C   UNK N   1      35.672  12.394  14.822  0.00  0.00    -0.043 A 
HETATM   35  C   UNK N   1      36.310  11.233  15.272  0.00  0.00     0.008 A 
HETATM   36  C   UNK N   1      36.287  10.900  16.631  0.00  0.00     0.001 A 
HETATM   37  C   UNK N   1      35.620  11.724  17.542  0.00  0.00     0.000 A 
HETATM   38  C   UNK N   1      34.985  12.888  17.098  0.00  0.00     0.001 A 
HETATM   39  C   UNK N   1      35.014  13.225  15.742  0.00  0.00     0.008 A 
ENDBRANCH  33  34
ENDBRANCH  30  33
ENDBRANCH   6  30
TORSDOF 7
ENDMDL
MODEL 2
REMARK VINA RESULT:      -9.6      1.996      3.062
REMARK  7 active torsions:
REMARK  status: ('A' for Active; 'I' for Inactive)
REMARK       I    between atoms: N_1  and  C_2 
REMARK       I    between atoms: C_2  and  N_3 
REMARK    1  A    between atoms: C_6  and  C_9 
REMARK    2  A    between atoms: C_9  and  N_10 
REMARK       I    between atoms: N_10  and  C_11 
REMARK    3  A    between atoms: C_13  and  C_11 
REMARK    4  A    between atoms: N_18  and  S_23 
REMARK    5  A    between atoms: S_23  and  C_26 
REMARK    6  A    between atoms: C_26  and  C_27 
REMARK    7  A    between atoms: N_33  and  O_35 
ROOT
HETATM    1  C   UNK N   1      35.857  14.571   8.714  0.00  0.00     0.179 C 
HETATM    2  C   UNK N   1      36.778  13.374   8.488  0.00  0.00     0.037 C 
HETATM    3  C   UNK N   1      36.313  12.315   9.505  0.00  0.00     0.029 C 
HETATM    4  C   UNK N   1      35.547  13.081  10.580  0.00  0.00     0.102 C 
HETATM    5  C   UNK N   1      36.237  12.925  11.937  0.00  0.00     0.133 C 
HETATM    6  N   UNK N   1      35.631  13.871  12.871  0.00  0.00    -0.200 NA
HETATM    7  C   UNK N   1      35.835  15.283  12.461  0.00  0.00     0.210 C 
HETATM    8  C   UNK N   1      35.876  15.478  10.974  0.00  0.00     0.235 C 
HETATM    9  O   UNK N   1      36.203  16.571  10.541  0.00  0.00    -0.272 OA
HETATM   10  N   UNK N   1      35.615  14.444  10.121  0.00  0.00    -0.332 N 
ENDROOT
BRANCH   1  11
HETATM   11  C   UNK N   1      34.605  14.416   7.837  0.00  0.00     0.240 C 
HETATM   12  N   UNK N   1      33.651  15.378   7.684  0.00  0.00    -0.359 N 
HETATM   13  H   UNK N   1      32.966  15.209   6.999  0.00  0.00     0.162 HD
HETATM   14  O   UNK N   1      34.473  13.383   7.197  0.00  0.00    -0.271 OA
BRANCH  12  15
HETATM   15  C   UNK N   1      33.534  16.618   8.415  0.00  0.00     0.127 C 
BRANCH  15  16
HETATM   16  C   UNK N   1      32.463  17.557   7.896  0.00  0.00     0.006 C 
HETATM   17  C   UNK N   1      31.750  17.092   6.612  0.00  0.00     0.027 C 
HETATM   18  C   UNK N   1      30.228  16.862   6.736  0.00  0.00     0.141 C 
HETATM   19  N   UNK N   1      29.561  17.698   7.732  0.00  0.00    -0.216 N 
HETATM   20  C   UNK N   1      28.170  17.537   8.062  0.00  0.00     0.693 C 
HETATM   21  C   UNK N   1      30.343  18.631   8.508  0.00  0.00     0.141 C 
HETATM   22  N   UNK N   1      27.643  18.228   9.178  0.00  0.00    -0.233 N 
HETATM   23  N   UNK N   1      27.369  16.786   7.378  0.00  0.00    -0.099 N 
HETATM   24  H   UNK N   1      26.675  18.215   9.357  0.00  0.00     0.174 HD
HETATM   25  H   UNK N   1      28.247  18.725   9.778  0.00  0.00     0.174 HD
ATOM     26  HN  UNK N   1      26.399  16.707   7.683  1.00  0.00     0.213 HD
HETATM   27  C   UNK N   1      31.533  17.890   9.056  0.00  0.00     0.027 C 
BRANCH  23  28
HETATM   28  O   UNK N   1      27.746  16.119   6.308  0.00  0.00    -0.276 OA
HETATM   29  H   UNK N   1      27.600  16.476   5.455  0.00  0.00     0.245 HD
ENDBRANCH  23  28
ENDBRANCH  15  16
ENDBRANCH  12  15
ENDBRANCH   1  11
BRANCH   6  30
HETATM   30  S   UNK N   1      36.024  13.433  14.588  0.00  0.00     0.216 S 
HETATM   31  O   UNK N   1      34.496  13.236  14.619  0.00  0.00    -0.211 OA
HETATM   32  O   UNK N   1      36.621  12.214  13.872  0.00  0.00    -0.211 OA
BRANCH  30  33
HETATM   33  C   UNK N   1      35.303  12.011  15.603  0.00  0.00     0.196 C 
BRANCH  33  34
HETATM   34  C   UNK N   1      35.459  11.877  17.117  0.00  0.00    -0.043 A 
HETATM   35  C   UNK N   1      35.929  10.675  17.655  0.00  0.00     0.008 A 
HETATM   36  C   UNK N   1      36.047  10.525  19.041  0.00  0.00     0.001 A 
HETATM   37  C   UNK N   1      35.690  11.574  19.893  0.00  0.00     0.000 A 
HETATM   38  C   UNK N   1      35.223  12.779  19.359  0.00  0.00     0.001 A 
HETATM   39  C   UNK N   1      35.111  12.933  17.974  0.00  0.00     0.008 A 
ENDBRANCH  33  34
ENDBRANCH  30  33
ENDBRANCH   6  30
TORSDOF 7
ENDMDL
MODEL 3
REMARK VINA RESULT:      -9.6      2.530      3.833
REMARK  7 active torsions:
REMARK  status: ('A' for Active; 'I' for Inactive)
REMARK       I    between atoms: N_1  and  C_2 
REMARK       I    between atoms: C_2  and  N_3 
REMARK    1  A    between atoms: C_6  and  C_9 
REMARK    2  A    between atoms: C_9  and  N_10 
REMARK       I    between atoms: N_10  and  C_11 
REMARK    3  A    between atoms: C_13  and  C_11 
REMARK    4  A    between atoms: N_18  and  S_23 
REMARK    5  A    between atoms: S_23  and  C_26 
REMARK    6  A    between atoms: C_26  and  C_27 
REMARK    7  A    between atoms: N_33  and  O_35 
ROOT
HETATM    1  C   UNK N   1      36.457  14.467   8.751  0.00  0.00     0.179 C 
HETATM    2  C   UNK N   1      37.567  13.430   8.595  0.00  0.00     0.037 C 
HETATM    3  C   UNK N   1      37.174  12.280   9.542  0.00  0.00     0.029 C 
HETATM    4  C   UNK N   1      36.202  12.887  10.549  0.00  0.00     0.102 C 
HETATM    5  C   UNK N   1      36.775  12.792  11.965  0.00  0.00     0.133 C 
HETATM    6  N   UNK N   1      35.946  13.605  12.852  0.00  0.00    -0.200 NA
HETATM    7  C   UNK N   1      35.970  15.045  12.488  0.00  0.00     0.210 C 
HETATM    8  C   UNK N   1      36.123  15.292  11.017  0.00  0.00     0.235 C 
HETATM    9  O   UNK N   1      36.319  16.436  10.638  0.00  0.00    -0.272 OA
HETATM   10  N   UNK N   1      36.105  14.259  10.124  0.00  0.00    -0.332 N 
ENDROOT
BRANCH   1  11
HETATM   11  C   UNK N   1      35.332  14.155   7.751  0.00  0.00     0.240 C 
HETATM   12  N   UNK N   1      34.194  14.894   7.621  0.00  0.00    -0.359 N 
HETATM   13  H   UNK N   1      33.611  14.668   6.861  0.00  0.00     0.162 HD
HETATM   14  O   UNK N   1      35.482  13.211   6.989  0.00  0.00    -0.271 OA
BRANCH  12  15
HETATM   15  C   UNK N   1      33.748  15.971   8.473  0.00  0.00     0.127 C 
BRANCH  15  16
HETATM   16  C   UNK N   1      32.875  17.001   7.783  0.00  0.00     0.006 C 
HETATM   17  C   UNK N   1      33.489  17.642   6.524  0.00  0.00     0.027 C 
HETATM   18  C   UNK N   1      32.713  17.413   5.208  0.00  0.00     0.141 C 
HETATM   19  N   UNK N   1      31.269  17.252   5.370  0.00  0.00    -0.216 N 
HETATM   20  C   UNK N   1      30.407  16.916   4.267  0.00  0.00     0.693 C 
HETATM   21  C   UNK N   1      30.696  17.300   6.693  0.00  0.00     0.141 C 
HETATM   22  N   UNK N   1      29.061  16.566   4.529  0.00  0.00    -0.233 N 
HETATM   23  N   UNK N   1      30.806  16.923   3.037  0.00  0.00    -0.099 N 
HETATM   24  H   UNK N   1      28.430  16.437   3.785  0.00  0.00     0.174 HD
HETATM   25  H   UNK N   1      28.755  16.452   5.458  0.00  0.00     0.174 HD
ATOM     26  HN  UNK N   1      30.142  16.656   2.310  1.00  0.00     0.213 HD
HETATM   27  C   UNK N   1      31.499  16.381   7.576  0.00  0.00     0.027 C 
BRANCH  23  28
HETATM   28  O   UNK N   1      32.027  17.257   2.678  0.00  0.00    -0.276 OA
HETATM   29  H   UNK N   1      32.449  16.810   1.972  0.00  0.00     0.245 HD
ENDBRANCH  23  28
ENDBRANCH  15  16
ENDBRANCH  12  15
ENDBRANCH   1  11
BRANCH   6  30
HETATM   30  S   UNK N   1      36.236  13.175  14.590  0.00  0.00     0.216 S 
HETATM   31  O   UNK N   1      34.718  13.437  14.644  0.00  0.00    -0.211 OA
HETATM   32  O   UNK N   1      36.433  11.794  13.951  0.00  0.00    -0.211 OA
BRANCH  30  33
HETATM   33  C   UNK N   1      35.157  12.091  15.699  0.00  0.00     0.196 C 
BRANCH  33  34
HETATM   34  C   UNK N   1      35.393  11.896  17.196  0.00  0.00    -0.043 A 
HETATM   35  C   UNK N   1      35.915  10.684  17.657  0.00  0.00     0.008 A 
HETATM   36  C   UNK N   1      36.108  10.477  19.028  0.00  0.00     0.001 A 
HETATM   37  C   UNK N   1      35.775  11.481  19.941  0.00  0.00     0.000 A 
HETATM   38  C   UNK N   1      35.256  12.697  19.484  0.00  0.00     0.001 A 
HETATM   39  C   UNK N   1      35.070  12.907  18.115  0.00  0.00     0.008 A 
ENDBRANCH  33  34
ENDBRANCH  30  33
ENDBRANCH   6  30
TORSDOF 7
ENDMDL
MODEL 4
REMARK VINA RESULT:      -9.6      2.368      3.878
REMARK  7 active torsions:
REMARK  status: ('A' for Active; 'I' for Inactive)
REMARK       I    between atoms: N_1  and  C_2 
REMARK       I    between atoms: C_2  and  N_3 
REMARK    1  A    between atoms: C_6  and  C_9 
REMARK    2  A    between atoms: C_9  and  N_10 
REMARK       I    between atoms: N_10  and  C_11 
REMARK    3  A    between atoms: C_13  and  C_11 
REMARK    4  A    between atoms: N_18  and  S_23 
REMARK    5  A    between atoms: S_23  and  C_26 
REMARK    6  A    between atoms: C_26  and  C_27 
REMARK    7  A    between atoms: N_33  and  O_35 
ROOT
HETATM    1  C   UNK N   1      37.404  14.345   9.041  0.00  0.00     0.179 C 
HETATM    2  C   UNK N   1      38.680  13.540   9.283  0.00  0.00     0.037 C 
HETATM    3  C   UNK N   1      38.265  12.417  10.252  0.00  0.00     0.029 C 
HETATM    4  C   UNK N   1      36.980  12.899  10.919  0.00  0.00     0.102 C 
HETATM    5  C   UNK N   1      37.184  13.036  12.429  0.00  0.00     0.133 C 
HETATM    6  N   UNK N   1      36.029  13.738  12.986  0.00  0.00    -0.200 NA
HETATM    7  C   UNK N   1      35.895  15.118  12.456  0.00  0.00     0.210 C 
HETATM    8  C   UNK N   1      36.370  15.269  11.042  0.00  0.00     0.235 C 
HETATM    9  O   UNK N   1      36.454  16.394  10.576  0.00  0.00    -0.272 OA
HETATM   10  N   UNK N   1      36.758  14.184  10.310  0.00  0.00    -0.332 N 
ENDROOT
BRANCH   1  11
HETATM   11  C   UNK N   1      36.641  13.734   7.855  0.00  0.00     0.240 C 
HETATM   12  N   UNK N   1      35.607  14.345   7.212  0.00  0.00    -0.359 N 
HETATM   13  H   UNK N   1      35.285  13.909   6.390  0.00  0.00     0.162 HD
HETATM   14  O   UNK N   1      37.009  12.649   7.430  0.00  0.00    -0.271 OA
BRANCH  12  15
HETATM   15  C   UNK N   1      34.931  15.561   7.599  0.00  0.00     0.127 C 
BRANCH  15  16
HETATM   16  C   UNK N   1      33.427  15.533   7.413  0.00  0.00     0.006 C 
HETATM   17  C   UNK N   1      32.657  14.664   8.425  0.00  0.00     0.027 C 
HETATM   18  C   UNK N   1      31.637  15.411   9.311  0.00  0.00     0.141 C 
HETATM   19  N   UNK N   1      31.038  16.593   8.693  0.00  0.00    -0.216 N 
HETATM   20  C   UNK N   1      30.157  17.472   9.415  0.00  0.00     0.693 C 
HETATM   21  C   UNK N   1      31.438  16.971   7.359  0.00  0.00     0.141 C 
HETATM   22  N   UNK N   1      29.785  18.705   8.828  0.00  0.00    -0.233 N 
HETATM   23  N   UNK N   1      29.680  17.185  10.582  0.00  0.00    -0.099 N 
HETATM   24  H   UNK N   1      29.103  19.271   9.256  0.00  0.00     0.174 HD
HETATM   25  H   UNK N   1      30.210  18.998   7.990  0.00  0.00     0.174 HD
ATOM     26  HN  UNK N   1      29.075  17.867  11.040  1.00  0.00     0.213 HD
HETATM   27  C   UNK N   1      32.943  16.975   7.313  0.00  0.00     0.027 C 
BRANCH  23  28
HETATM   28  O   UNK N   1      29.939  16.057  11.208  0.00  0.00    -0.276 OA
HETATM   29  H   UNK N   1      30.824  15.808  11.384  0.00  0.00     0.245 HD
ENDBRANCH  23  28
ENDBRANCH  15  16
ENDBRANCH  12  15
ENDBRANCH   1  11
BRANCH   6  30
HETATM   30  S   UNK N   1      35.940  13.518  14.785  0.00  0.00     0.216 S 
HETATM   31  O   UNK N   1      34.540  13.003  14.397  0.00  0.00    -0.211 OA
HETATM   32  O   UNK N   1      36.940  12.406  14.443  0.00  0.00    -0.211 OA
BRANCH  30  33
HETATM   33  C   UNK N   1      35.208  12.053  15.727  0.00  0.00     0.196 C 
BRANCH  33  34
HETATM   34  C   UNK N   1      35.362  11.840  17.232  0.00  0.00    -0.043 A 
HETATM   35  C   UNK N   1      35.077  12.893  18.108  0.00  0.00     0.008 A 
HETATM   36  C   UNK N   1      35.244  12.725  19.487  0.00  0.00     0.001 A 
HETATM   37  C   UNK N   1      35.702  11.505  19.993  0.00  0.00     0.000 A 
HETATM   38  C   UNK N   1      35.984  10.448  19.122  0.00  0.00     0.001 A 
HETATM   39  C   UNK N   1      35.810  10.613  17.745  0.00  0.00     0.008 A 
ENDBRANCH  33  34
ENDBRANCH  30  33
ENDBRANCH   6  30
TORSDOF 7
ENDMDL
MODEL 5
REMARK VINA RESULT:      -9.2      2.545      3.822
REMARK  7 active torsions:
REMARK  status: ('A' for Active; 'I' for Inactive)
REMARK       I    between atoms: N_1  and  C_2 
REMARK       I    between atoms: C_2  and  N_3 
REMARK    1  A    between atoms: C_6  and  C_9 
REMARK    2  A    between atoms: C_9  and  N_10 
REMARK       I    between atoms: N_10  and  C_11 
REMARK    3  A    between atoms: C_13  and  C_11 
REMARK    4  A    between atoms: N_18  and  S_23 
REMARK    5  A    between atoms: S_23  and  C_26 
REMARK    6  A    between atoms: C_26  and  C_27 
REMARK    7  A    between atoms: N_33  and  O_35 
ROOT
HETATM    1  C   UNK N   1      34.093  16.221   8.333  0.00  0.00     0.179 C 
HETATM    2  C   UNK N   1      34.490  15.014   7.485  0.00  0.00     0.037 C 
HETATM    3  C   UNK N   1      34.121  13.788   8.341  0.00  0.00     0.029 C 
HETATM    4  C   UNK N   1      34.032  14.296   9.777  0.00  0.00     0.102 C 
HETATM    5  C   UNK N   1      35.072  13.596  10.654  0.00  0.00     0.133 C 
HETATM    6  N   UNK N   1      35.128  14.287  11.940  0.00  0.00    -0.200 NA
HETATM    7  C   UNK N   1      35.577  15.696  11.806  0.00  0.00     0.210 C 
HETATM    8  C   UNK N   1      35.156  16.343  10.520  0.00  0.00     0.235 C 
HETATM    9  O   UNK N   1      35.614  17.441  10.245  0.00  0.00    -0.272 OA
HETATM   10  N   UNK N   1      34.328  15.699   9.646  0.00  0.00    -0.332 N 
ENDROOT
BRANCH   1  11
HETATM   11  C   UNK N   1      32.627  16.580   8.043  0.00  0.00     0.240 C 
HETATM   12  N   UNK N   1      32.181  17.090   6.860  0.00  0.00    -0.359 N 
HETATM   13  H   UNK N   1      31.205  17.158   6.754  0.00  0.00     0.162 HD
HETATM   14  O   UNK N   1      31.796  16.355   8.910  0.00  0.00    -0.271 OA
BRANCH  12  15
HETATM   15  C   UNK N   1      32.980  17.540   5.745  0.00  0.00     0.127 C 
BRANCH  15  16
HETATM   16  C   UNK N   1      32.368  17.275   4.383  0.00  0.00     0.006 C 
HETATM   17  C   UNK N   1      33.176  16.330   3.475  0.00  0.00     0.027 C 
HETATM   18  C   UNK N   1      32.461  15.026   3.058  0.00  0.00     0.141 C 
HETATM   19  N   UNK N   1      31.006  15.127   2.971  0.00  0.00    -0.216 N 
HETATM   20  C   UNK N   1      30.173  13.983   2.711  0.00  0.00     0.693 C 
HETATM   21  C   UNK N   1      30.365  16.382   3.282  0.00  0.00     0.141 C 
HETATM   22  N   UNK N   1      28.770  14.108   2.851  0.00  0.00    -0.233 N 
HETATM   23  N   UNK N   1      30.647  12.836   2.348  0.00  0.00    -0.099 N 
HETATM   24  H   UNK N   1      28.177  13.372   2.577  0.00  0.00     0.174 HD
HETATM   25  H   UNK N   1      28.386  14.935   3.224  0.00  0.00     0.174 HD
ATOM     26  HN  UNK N   1      29.995  12.066   2.198  1.00  0.00     0.213 HD
HETATM   27  C   UNK N   1      30.916  16.867   4.596  0.00  0.00     0.027 C 
BRANCH  23  28
HETATM   28  O   UNK N   1      31.931  12.615   2.162  0.00  0.00    -0.276 OA
HETATM   29  H   UNK N   1      32.486  13.299   1.844  0.00  0.00     0.245 HD
ENDBRANCH  23  28
ENDBRANCH  15  16
ENDBRANCH  12  15
ENDBRANCH   1  11
BRANCH   6  30
HETATM   30  S   UNK N   1      35.947  13.263  13.194  0.00  0.00     0.216 S 
HETATM   31  O   UNK N   1      36.363  14.660  13.696  0.00  0.00    -0.211 OA
HETATM   32  O   UNK N   1      34.484  13.052  13.608  0.00  0.00    -0.211 OA
BRANCH  30  33
HETATM   33  C   UNK N   1      36.035  13.581  15.055  0.00  0.00     0.196 C 
BRANCH  33  34
HETATM   34  C   UNK N   1      35.981  12.480  16.114  0.00  0.00    -0.043 A 
HETATM   35  C   UNK N   1      36.585  11.246  15.854  0.00  0.00     0.008 A 
HETATM   36  C   UNK N   1      36.518  10.218  16.800  0.00  0.00     0.001 A 
HETATM   37  C   UNK N   1      35.841  10.419  18.006  0.00  0.00     0.000 A 
HETATM   38  C   UNK N   1      35.239  11.652  18.273  0.00  0.00     0.001 A 
HETATM   39  C   UNK N   1      35.312  12.683  17.331  0.00  0.00     0.008 A 
ENDBRANCH  33  34
ENDBRANCH  30  33
ENDBRANCH   6  30
TORSDOF 7
ENDMDL
MODEL 6
REMARK VINA RESULT:      -9.1      2.212      2.923
REMARK  7 active torsions:
REMARK  status: ('A' for Active; 'I' for Inactive)
REMARK       I    between atoms: N_1  and  C_2 
REMARK       I    between atoms: C_2  and  N_3 
REMARK    1  A    between atoms: C_6  and  C_9 
REMARK    2  A    between atoms: C_9  and  N_10 
REMARK       I    between atoms: N_10  and  C_11 
REMARK    3  A    between atoms: C_13  and  C_11 
REMARK    4  A    between atoms: N_18  and  S_23 
REMARK    5  A    between atoms: S_23  and  C_26 
REMARK    6  A    between atoms: C_26  and  C_27 
REMARK    7  A    between atoms: N_33  and  O_35 
ROOT
HETATM    1  C   UNK N   1      34.505  15.563   7.958  0.00  0.00     0.179 C 
HETATM    2  C   UNK N   1      33.100  15.024   8.218  0.00  0.00     0.037 C 
HETATM    3  C   UNK N   1      32.877  15.204   9.731  0.00  0.00     0.029 C 
HETATM    4  C   UNK N   1      34.270  15.330  10.342  0.00  0.00     0.102 C 
HETATM    5  C   UNK N   1      34.524  14.185  11.326  0.00  0.00     0.133 C 
HETATM    6  N   UNK N   1      35.941  14.196  11.685  0.00  0.00    -0.200 NA
HETATM    7  C   UNK N   1      36.824  13.946  10.517  0.00  0.00     0.210 C 
HETATM    8  C   UNK N   1      36.279  14.480   9.226  0.00  0.00     0.235 C 
HETATM    9  O   UNK N   1      36.849  14.181   8.189  0.00  0.00    -0.272 OA
HETATM   10  N   UNK N   1      35.139  15.231   9.199  0.00  0.00    -0.332 N 
ENDROOT
BRANCH   1  11
HETATM   11  C   UNK N   1      34.421  17.070   7.670  0.00  0.00     0.240 C 
HETATM   12  N   UNK N   1      33.905  17.606   6.527  0.00  0.00    -0.359 N 
HETATM   13  H   UNK N   1      33.790  18.583   6.516  0.00  0.00     0.162 HD
HETATM   14  O   UNK N   1      34.799  17.845   8.536  0.00  0.00    -0.271 OA
BRANCH  12  15
HETATM   15  C   UNK N   1      33.507  16.899   5.333  0.00  0.00     0.127 C 
BRANCH  15  16
HETATM   16  C   UNK N   1      32.286  17.472   4.639  0.00  0.00     0.006 C 
HETATM   17  C   UNK N   1      32.072  16.995   3.190  0.00  0.00     0.027 C 
HETATM   18  C   UNK N   1      30.758  16.229   2.923  0.00  0.00     0.141 C 
HETATM   19  N   UNK N   1      29.641  16.609   3.786  0.00  0.00    -0.216 N 
HETATM   20  C   UNK N   1      28.379  15.919   3.754  0.00  0.00     0.693 C 
HETATM   21  C   UNK N   1      29.841  17.621   4.794  0.00  0.00     0.141 C 
HETATM   22  N   UNK N   1      27.419  16.196   4.757  0.00  0.00    -0.233 N 
HETATM   23  N   UNK N   1      28.075  15.053   2.843  0.00  0.00    -0.099 N 
HETATM   24  H   UNK N   1      26.514  15.815   4.693  0.00  0.00     0.174 HD
HETATM   25  H   UNK N   1      27.658  16.771   5.520  0.00  0.00     0.174 HD
ATOM     26  HN  UNK N   1      27.167  14.591   2.897  1.00  0.00     0.213 HD
HETATM   27  C   UNK N   1      31.088  17.269   5.559  0.00  0.00     0.027 C 
BRANCH  23  28
HETATM   28  O   UNK N   1      28.880  14.739   1.851  0.00  0.00    -0.276 OA
HETATM   29  H   UNK N   1      29.024  15.344   1.151  0.00  0.00     0.245 HD
ENDBRANCH  23  28
ENDBRANCH  15  16
ENDBRANCH  12  15
ENDBRANCH   1  11
BRANCH   6  30
HETATM   30  S   UNK N   1      36.239  13.218  13.184  0.00  0.00     0.216 S 
HETATM   31  O   UNK N   1      36.466  14.632  13.754  0.00  0.00    -0.211 OA
HETATM   32  O   UNK N   1      34.723  13.023  13.051  0.00  0.00    -0.211 OA
BRANCH  30  33
HETATM   33  C   UNK N   1      35.656  13.604  14.940  0.00  0.00     0.196 C 
BRANCH  33  34
HETATM   34  C   UNK N   1      35.697  12.603  16.094  0.00  0.00    -0.043 A 
HETATM   35  C   UNK N   1      35.174  12.967  17.338  0.00  0.00     0.008 A 
HETATM   36  C   UNK N   1      35.232  12.074  18.413  0.00  0.00     0.001 A 
HETATM   37  C   UNK N   1      35.818  10.816  18.248  0.00  0.00     0.000 A 
HETATM   38  C   UNK N   1      36.339  10.446  17.004  0.00  0.00     0.001 A 
HETATM   39  C   UNK N   1      36.274  11.335  15.927  0.00  0.00     0.008 A 
ENDBRANCH  33  34
ENDBRANCH  30  33
ENDBRANCH   6  30
TORSDOF 7
ENDMDL
MODEL 7
REMARK VINA RESULT:      -9.1      1.600      2.079
REMARK  7 active torsions:
REMARK  status: ('A' for Active; 'I' for Inactive)
REMARK       I    between atoms: N_1  and  C_2 
REMARK       I    between atoms: C_2  and  N_3 
REMARK    1  A    between atoms: C_6  and  C_9 
REMARK    2  A    between atoms: C_9  and  N_10 
REMARK       I    between atoms: N_10  and  C_11 
REMARK    3  A    between atoms: C_13  and  C_11 
REMARK    4  A    between atoms: N_18  and  S_23 
REMARK    5  A    between atoms: S_23  and  C_26 
REMARK    6  A    between atoms: C_26  and  C_27 
REMARK    7  A    between atoms: N_33  and  O_35 
ROOT
HETATM    1  C   UNK N   1      32.805  16.638   7.303  0.00  0.00     0.179 C 
HETATM    2  C   UNK N   1      32.967  17.909   8.132  0.00  0.00     0.037 C 
HETATM    3  C   UNK N   1      34.411  17.855   8.666  0.00  0.00     0.029 C 
HETATM    4  C   UNK N   1      34.830  16.390   8.580  0.00  0.00     0.102 C 
HETATM    5  C   UNK N   1      35.143  15.844   9.975  0.00  0.00     0.133 C 
HETATM    6  N   UNK N   1      35.284  14.393   9.879  0.00  0.00    -0.200 NA
HETATM    7  C   UNK N   1      34.030  13.729   9.443  0.00  0.00     0.210 C 
HETATM    8  C   UNK N   1      33.204  14.558   8.506  0.00  0.00     0.235 C 
HETATM    9  O   UNK N   1      32.081  14.170   8.224  0.00  0.00    -0.272 OA
HETATM   10  N   UNK N   1      33.667  15.750   8.025  0.00  0.00    -0.332 N 
ENDROOT
BRANCH   1  11
HETATM   11  C   UNK N   1      33.247  16.919   5.858  0.00  0.00     0.240 C 
HETATM   12  N   UNK N   1      32.791  16.238   4.769  0.00  0.00    -0.359 N 
HETATM   13  H   UNK N   1      33.052  16.596   3.890  0.00  0.00     0.162 HD
HETATM   14  O   UNK N   1      34.025  17.842   5.662  0.00  0.00    -0.271 OA
BRANCH  12  15
HETATM   15  C   UNK N   1      31.968  15.053   4.760  0.00  0.00     0.127 C 
BRANCH  15  16
HETATM   16  C   UNK N   1      30.489  15.314   4.550  0.00  0.00     0.006 C 
HETATM   17  C   UNK N   1      29.644  15.367   5.836  0.00  0.00     0.027 C 
HETATM   18  C   UNK N   1      28.928  16.706   6.114  0.00  0.00     0.141 C 
HETATM   19  N   UNK N   1      28.567  17.467   4.919  0.00  0.00    -0.216 N 
HETATM   20  C   UNK N   1      28.000  18.788   4.994  0.00  0.00     0.693 C 
HETATM   21  C   UNK N   1      28.905  16.942   3.619  0.00  0.00     0.141 C 
HETATM   22  N   UNK N   1      27.875  19.549   3.808  0.00  0.00    -0.233 N 
HETATM   23  N   UNK N   1      27.593  19.316   6.101  0.00  0.00    -0.099 N 
HETATM   24  H   UNK N   1      27.395  20.409   3.820  0.00  0.00     0.174 HD
HETATM   25  H   UNK N   1      28.268  19.218   2.967  0.00  0.00     0.174 HD
ATOM     26  HN  UNK N   1      27.218  20.264   6.078  1.00  0.00     0.213 HD
HETATM   27  C   UNK N   1      30.354  16.535   3.649  0.00  0.00     0.027 C 
BRANCH  23  28
HETATM   28  O   UNK N   1      27.639  18.689   7.257  0.00  0.00    -0.276 OA
HETATM   29  H   UNK N   1      27.102  18.974   7.969  0.00  0.00     0.245 HD
ENDBRANCH  23  28
ENDBRANCH  15  16
ENDBRANCH  12  15
ENDBRANCH   1  11
BRANCH   6  30
HETATM   30  S   UNK N   1      36.123  13.722  11.342  0.00  0.00     0.216 S 
HETATM   31  O   UNK N   1      35.872  15.162  11.831  0.00  0.00    -0.211 OA
HETATM   32  O   UNK N   1      34.788  12.971  11.447  0.00  0.00    -0.211 OA
BRANCH  30  33
HETATM   33  C   UNK N   1      35.672  14.010  13.154  0.00  0.00     0.196 C 
BRANCH  33  34
HETATM   34  C   UNK N   1      35.878  12.976  14.260  0.00  0.00    -0.043 A 
HETATM   35  C   UNK N   1      35.035  12.986  15.376  0.00  0.00     0.008 A 
HETATM   36  C   UNK N   1      35.230  12.067  16.412  0.00  0.00     0.001 A 
HETATM   37  C   UNK N   1      36.272  11.138  16.339  0.00  0.00     0.000 A 
HETATM   38  C   UNK N   1      37.115  11.121  15.223  0.00  0.00     0.001 A 
HETATM   39  C   UNK N   1      36.916  12.035  14.184  0.00  0.00     0.008 A 
ENDBRANCH  33  34
ENDBRANCH  30  33
ENDBRANCH   6  30
TORSDOF 7
ENDMDL
MODEL 8
REMARK VINA RESULT:      -9.1      3.679      6.148
REMARK  7 active torsions:
REMARK  status: ('A' for Active; 'I' for Inactive)
REMARK       I    between atoms: N_1  and  C_2 
REMARK       I    between atoms: C_2  and  N_3 
REMARK    1  A    between atoms: C_6  and  C_9 
REMARK    2  A    between atoms: C_9  and  N_10 
REMARK       I    between atoms: N_10  and  C_11 
REMARK    3  A    between atoms: C_13  and  C_11 
REMARK    4  A    between atoms: N_18  and  S_23 
REMARK    5  A    between atoms: S_23  and  C_26 
REMARK    6  A    between atoms: C_26  and  C_27 
REMARK    7  A    between atoms: N_33  and  O_35 
ROOT
HETATM    1  C   UNK N   1      33.570  15.830   7.775  0.00  0.00     0.179 C 
HETATM    2  C   UNK N   1      33.336  17.070   8.635  0.00  0.00     0.037 C 
HETATM    3  C   UNK N   1      34.565  17.151   9.560  0.00  0.00     0.029 C 
HETATM    4  C   UNK N   1      35.164  15.748   9.577  0.00  0.00     0.102 C 
HETATM    5  C   UNK N   1      35.132  15.174  10.995  0.00  0.00     0.133 C 
HETATM    6  N   UNK N   1      35.469  13.754  10.923  0.00  0.00    -0.200 NA
HETATM    7  C   UNK N   1      34.479  12.976  10.136  0.00  0.00     0.210 C 
HETATM    8  C   UNK N   1      33.859  13.752   9.013  0.00  0.00     0.235 C 
HETATM    9  O   UNK N   1      32.917  13.256   8.414  0.00  0.00    -0.272 OA
HETATM   10  N   UNK N   1      34.292  15.009   8.702  0.00  0.00    -0.332 N 
ENDROOT
BRANCH   1  11
HETATM   11  C   UNK N   1      34.366  16.228   6.523  0.00  0.00     0.240 C 
HETATM   12  N   UNK N   1      34.786  15.350   5.568  0.00  0.00    -0.359 N 
HETATM   13  H   UNK N   1      35.174  15.743   4.754  0.00  0.00     0.162 HD
HETATM   14  O   UNK N   1      34.604  17.413   6.343  0.00  0.00    -0.271 OA
BRANCH  12  15
HETATM   15  C   UNK N   1      34.723  13.909   5.618  0.00  0.00     0.127 C 
BRANCH  15  16
HETATM   16  C   UNK N   1      36.050  13.228   5.889  0.00  0.00     0.006 C 
HETATM   17  C   UNK N   1      37.129  14.127   6.523  0.00  0.00     0.027 C 
HETATM   18  C   UNK N   1      37.636  13.687   7.914  0.00  0.00     0.141 C 
HETATM   19  N   UNK N   1      37.589  12.246   8.155  0.00  0.00    -0.216 N 
HETATM   20  C   UNK N   1      37.913  11.673   9.435  0.00  0.00     0.693 C 
HETATM   21  C   UNK N   1      37.079  11.374   7.126  0.00  0.00     0.141 C 
HETATM   22  N   UNK N   1      37.642  10.302   9.662  0.00  0.00    -0.233 N 
HETATM   23  N   UNK N   1      38.448  12.354  10.395  0.00  0.00    -0.099 N 
HETATM   24  H   UNK N   1      37.951   9.867  10.488  0.00  0.00     0.174 HD
HETATM   25  H   UNK N   1      37.143   9.782   8.990  0.00  0.00     0.174 HD
ATOM     26  HN  UNK N   1      38.633  11.882  11.280  1.00  0.00     0.213 HD
HETATM   27  C   UNK N   1      35.767  11.939   6.651  0.00  0.00     0.027 C 
BRANCH  23  28
HETATM   28  O   UNK N   1      38.765  13.626  10.284  0.00  0.00    -0.276 OA
HETATM   29  H   UNK N   1      39.660  13.895  10.339  0.00  0.00     0.245 HD
ENDBRANCH  23  28
ENDBRANCH  15  16
ENDBRANCH  12  15
ENDBRANCH   1  11
BRANCH   6  30
HETATM   30  S   UNK N   1      35.933  13.111  12.555  0.00  0.00     0.216 S 
HETATM   31  O   UNK N   1      34.537  13.672  12.891  0.00  0.00    -0.211 OA
HETATM   32  O   UNK N   1      35.719  11.786  11.811  0.00  0.00    -0.211 OA
BRANCH  30  33
HETATM   33  C   UNK N   1      34.834  12.171  13.772  0.00  0.00     0.196 C 
BRANCH  33  34
HETATM   34  C   UNK N   1      35.136  12.030  15.263  0.00  0.00    -0.043 A 
HETATM   35  C   UNK N   1      35.733  10.857  15.736  0.00  0.00     0.008 A 
HETATM   36  C   UNK N   1      35.987  10.699  17.103  0.00  0.00     0.001 A 
HETATM   37  C   UNK N   1      35.640  11.712  18.001  0.00  0.00     0.000 A 
HETATM   38  C   UNK N   1      35.048  12.889  17.533  0.00  0.00     0.001 A 
HETATM   39  C   UNK N   1      34.800  13.051  16.166  0.00  0.00     0.008 A 
ENDBRANCH  33  34
ENDBRANCH  30  33
ENDBRANCH   6  30
TORSDOF 7
ENDMDL
MODEL 9
REMARK VINA RESULT:      -8.9      1.466      1.867
REMARK  7 active torsions:
REMARK  status: ('A' for Active; 'I' for Inactive)
REMARK       I    between atoms: N_1  and  C_2 
REMARK       I    between atoms: C_2  and  N_3 
REMARK    1  A    between atoms: C_6  and  C_9 
REMARK    2  A    between atoms: C_9  and  N_10 
REMARK       I    between atoms: N_10  and  C_11 
REMARK    3  A    between atoms: C_13  and  C_11 
REMARK    4  A    between atoms: N_18  and  S_23 
REMARK    5  A    between atoms: S_23  and  C_26 
REMARK    6  A    between atoms: C_26  and  C_27 
REMARK    7  A    between atoms: N_33  and  O_35 
ROOT
HETATM    1  C   UNK N   1      34.901  15.601   8.224  0.00  0.00     0.179 C 
HETATM    2  C   UNK N   1      33.831  14.614   7.761  0.00  0.00     0.037 C 
HETATM    3  C   UNK N   1      33.062  14.232   9.040  0.00  0.00     0.029 C 
HETATM    4  C   UNK N   1      33.993  14.569  10.200  0.00  0.00     0.102 C 
HETATM    5  C   UNK N   1      34.339  13.304  10.989  0.00  0.00     0.133 C 
HETATM    6  N   UNK N   1      35.421  13.623  11.917  0.00  0.00    -0.200 NA
HETATM    7  C   UNK N   1      36.666  14.031  11.217  0.00  0.00     0.210 C 
HETATM    8  C   UNK N   1      36.422  14.756   9.928  0.00  0.00     0.235 C 
HETATM    9  O   UNK N   1      37.375  14.985   9.201  0.00  0.00    -0.272 OA
HETATM   10  N   UNK N   1      35.158  15.100   9.542  0.00  0.00    -0.332 N 
ENDROOT
BRANCH   1  11
HETATM   11  C   UNK N   1      34.322  17.025   8.186  0.00  0.00     0.240 C 
HETATM   12  N   UNK N   1      33.610  17.536   7.143  0.00  0.00    -0.359 N 
HETATM   13  H   UNK N   1      33.186  18.412   7.291  0.00  0.00     0.162 HD
HETATM   14  O   UNK N   1      34.469  17.733   9.171  0.00  0.00    -0.271 OA
BRANCH  12  15
HETATM   15  C   UNK N   1      33.407  16.937   5.845  0.00  0.00     0.127 C 
BRANCH  15  16
HETATM   16  C   UNK N   1      31.970  16.563   5.541  0.00  0.00     0.006 C 
HETATM   17  C   UNK N   1      31.042  16.476   6.768  0.00  0.00     0.027 C 
HETATM   18  C   UNK N   1      29.847  17.454   6.776  0.00  0.00     0.141 C 
HETATM   19  N   UNK N   1      29.348  17.821   5.452  0.00  0.00    -0.216 N 
HETATM   20  C   UNK N   1      28.317  18.809   5.269  0.00  0.00     0.693 C 
HETATM   21  C   UNK N   1      29.989  17.279   4.280  0.00  0.00     0.141 C 
HETATM   22  N   UNK N   1      28.032  19.270   3.962  0.00  0.00    -0.233 N 
HETATM   23  N   UNK N   1      27.630  19.297   6.249  0.00  0.00    -0.099 N 
HETATM   24  H   UNK N   1      27.263  19.864   3.803  0.00  0.00     0.174 HD
HETATM   25  H   UNK N   1      28.604  18.996   3.209  0.00  0.00     0.174 HD
ATOM     26  HN  UNK N   1      26.927  20.007   6.043  1.00  0.00     0.213 HD
HETATM   27  C   UNK N   1      31.473  17.482   4.431  0.00  0.00     0.027 C 
BRANCH  23  28
HETATM   28  O   UNK N   1      27.793  18.922   7.500  0.00  0.00    -0.276 OA
HETATM   29  H   UNK N   1      28.098  19.534   8.139  0.00  0.00     0.245 HD
ENDBRANCH  23  28
ENDBRANCH  15  16
ENDBRANCH  12  15
ENDBRANCH   1  11
BRANCH   6  30
HETATM   30  S   UNK N   1      35.564  12.358  13.211  0.00  0.00     0.216 S 
HETATM   31  O   UNK N   1      37.045  12.771  13.095  0.00  0.00    -0.211 OA
HETATM   32  O   UNK N   1      34.850  13.459  14.008  0.00  0.00    -0.211 OA
BRANCH  30  33
HETATM   33  C   UNK N   1      36.621  12.433  14.775  0.00  0.00     0.196 C 
BRANCH  33  34
HETATM   34  C   UNK N   1      36.296  11.677  16.063  0.00  0.00    -0.043 A 
HETATM   35  C   UNK N   1      36.757  10.367  16.227  0.00  0.00     0.008 A 
HETATM   36  C   UNK N   1      36.441   9.651  17.387  0.00  0.00     0.001 A 
HETATM   37  C   UNK N   1      35.658  10.241  18.383  0.00  0.00     0.000 A 
HETATM   38  C   UNK N   1      35.198  11.552  18.226  0.00  0.00     0.001 A 
HETATM   39  C   UNK N   1      35.520  12.271  17.071  0.00  0.00     0.008 A 
ENDBRANCH  33  34
ENDBRANCH  30  33
ENDBRANCH   6  30
TORSDOF 7
ENDMDL
