REMARK  4 active torsions:
REMARK  status: ('A' for Active; 'I' for Inactive)
REMARK    1  A    between atoms: O_1  and  C_2 
REMARK    2  A    between atoms: C_2  and  O_3 
REMARK    3  A    between atoms: C_2  and  C_4 
REMARK    4  A    between atoms: C_2  and  C_8 
ROOT
HETATM    1  C   UNK N   1       0.942  -0.825   0.625  0.00  0.00     0.361 C 
ENDROOT
BRANCH   1   2
HETATM    2  O   UNK N   1       2.177  -0.827   1.169  0.00  0.00    -0.352 OA
HETATM    3  H   UNK N   1       2.605  -1.570   1.547  0.00  0.00     0.213 HD
ENDBRANCH   1   2
BRANCH   1   4
HETATM    4  O   UNK N   1      -0.013  -0.825   1.577  0.00  0.00    -0.352 OA
HETATM    5  H   UNK N   1      -0.344  -0.250   2.239  0.00  0.00     0.213 HD
ENDBRANCH   1   4
BRANCH   1   6
HETATM    6  C   UNK N   1       0.782  -2.076  -0.229  0.00  0.00     0.454 C 
HETATM    7  F   UNK N   1       0.916  -3.193   0.579  0.00  0.00    -0.165 F 
HETATM    8  F   UNK N   1       1.751  -2.141  -1.216  0.00  0.00    -0.165 F 
HETATM    9  F   UNK N   1      -0.467  -2.125  -0.824  0.00  0.00    -0.165 F 
ENDBRANCH   1   6
BRANCH   1  10
HETATM   10  C   UNK N   1       0.783   0.426  -0.227  0.00  0.00     0.454 C 
HETATM   11  F   UNK N   1       0.932   1.542   0.579  0.00  0.00    -0.165 F 
HETATM   12  F   UNK N   1       1.742   0.485  -1.225  0.00  0.00    -0.165 F 
HETATM   13  F   UNK N   1      -0.472   0.483  -0.809  0.00  0.00    -0.165 F 
ENDBRANCH   1  10
TORSDOF 4
