MODEL 1
REMARK VINA RESULT:      -4.5      0.000      0.000
REMARK  19 active torsions:
REMARK  status: ('A' for Active; 'I' for Inactive)
REMARK    1  A    between atoms: S_2  and  C_3 
REMARK    2  A    between atoms: C_3  and  N_4 
REMARK    3  A    between atoms: N_5  and  C_7 
REMARK    4  A    between atoms: C_7  and  C_8 
REMARK    5  A    between atoms: C_8  and  C_9 
REMARK    6  A    between atoms: C_9  and  C_10 
REMARK    7  A    between atoms: C_10  and  C_11 
REMARK    8  A    between atoms: C_11  and  C_12 
REMARK    9  A    between atoms: C_12  and  C_13 
REMARK   10  A    between atoms: C_13  and  C_14 
REMARK   11  A    between atoms: C_14  and  C_15 
REMARK   12  A    between atoms: C_15  and  C_16 
REMARK   13  A    between atoms: C_16  and  C_17 
REMARK   14  A    between atoms: C_17  and  C_18 
REMARK   15  A    between atoms: C_18  and  C_19 
REMARK   16  A    between atoms: C_19  and  C_20 
REMARK   17  A    between atoms: C_20  and  N_21 
REMARK   18  A    between atoms: C_23  and  N_24 
REMARK   19  A    between atoms: C_23  and  S_25 
ROOT
HETATM    1  C   UNK N   1      26.951  24.189  -6.335  0.00  0.00     0.000 C 
ENDROOT
BRANCH   1   2
HETATM    2  C   UNK N   1      25.942  23.877  -5.257  0.00  0.00     0.000 C 
BRANCH   2   3
HETATM    3  C   UNK N   1      26.557  24.210  -3.928  0.00  0.00     0.000 C 
BRANCH   3   4
HETATM    4  C   UNK N   1      28.015  24.559  -4.089  0.00  0.00     0.000 C 
BRANCH   4   5
HETATM    5  C   UNK N   1      28.744  23.679  -3.111  0.00  0.00     0.002 C 
BRANCH   5   6
HETATM    6  C   UNK N   1      30.217  23.984  -3.035  0.00  0.00     0.020 C 
BRANCH   6   7
HETATM    7  C   UNK N   1      30.892  22.649  -3.232  0.00  0.00     0.121 C 
BRANCH   7   8
HETATM    8  N   UNK N   1      30.718  22.156  -4.570  0.00  0.00    -0.371 N 
HETATM    9  C   UNK N   1      31.038  20.947  -4.872  0.00  0.00     0.133 C 
ATOM     10  HN  UNK N   1      30.336  22.772  -5.289  1.00  0.00     0.161 HD
BRANCH   9  11
HETATM   11  S   UNK N   1      30.801  20.374  -6.563  0.00  0.00    -0.099 SA
HETATM   12  C   UNK N   1      29.306  21.356  -6.904  0.00  0.00     0.099 C 
ENDBRANCH   9  11
BRANCH   9  13
HETATM   13  N   UNK N   1      31.570  20.078  -3.883  0.00  0.00    -0.380 N 
HETATM   14  H   UNK N   1      30.969  19.507  -3.353  0.00  0.00     0.158 HD
HETATM   15  H   UNK N   1      32.543  20.047  -3.727  0.00  0.00     0.158 HD
ENDBRANCH   9  13
ENDBRANCH   7   8
ENDBRANCH   6   7
ENDBRANCH   5   6
ENDBRANCH   4   5
ENDBRANCH   3   4
ENDBRANCH   2   3
ENDBRANCH   1   2
BRANCH   1  16
HETATM   16  C   UNK N   1      26.210  24.850  -7.460  0.00  0.00     0.000 C 
BRANCH  16  17
HETATM   17  C   UNK N   1      25.674  26.198  -7.049  0.00  0.00     0.000 C 
BRANCH  17  18
HETATM   18  C   UNK N   1      26.867  27.112  -7.092  0.00  0.00     0.000 C 
BRANCH  18  19
HETATM   19  C   UNK N   1      26.958  28.028  -5.901  0.00  0.00     0.000 C 
BRANCH  19  20
HETATM   20  C   UNK N   1      25.704  27.739  -5.115  0.00  0.00     0.002 C 
BRANCH  20  21
HETATM   21  C   UNK N   1      25.887  27.931  -3.634  0.00  0.00     0.020 C 
BRANCH  21  22
HETATM   22  C   UNK N   1      26.397  29.343  -3.464  0.00  0.00     0.121 C 
BRANCH  22  23
HETATM   23  N   UNK N   1      27.277  29.427  -2.330  0.00  0.00    -0.371 N 
HETATM   24  C   UNK N   1      28.483  29.865  -2.443  0.00  0.00     0.133 C 
ATOM     25  HN  UNK N   1      26.938  29.133  -1.413  1.00  0.00     0.161 HD
BRANCH  24  26
HETATM   26  N   UNK N   1      28.984  30.281  -3.702  0.00  0.00    -0.380 N 
HETATM   27  H   UNK N   1      28.543  31.013  -4.190  0.00  0.00     0.158 HD
HETATM   28  H   UNK N   1      29.774  29.837  -4.089  0.00  0.00     0.158 HD
ENDBRANCH  24  26
BRANCH  24  29
HETATM   29  S   UNK N   1      29.568  29.961  -1.005  0.00  0.00    -0.099 SA
HETATM   30  C   UNK N   1      31.054  29.272  -1.799  0.00  0.00     0.099 C 
ENDBRANCH  24  29
ENDBRANCH  22  23
ENDBRANCH  21  22
ENDBRANCH  20  21
ENDBRANCH  19  20
ENDBRANCH  18  19
ENDBRANCH  17  18
ENDBRANCH  16  17
ENDBRANCH   1  16
TORSDOF 19
ENDMDL
MODEL 2
REMARK VINA RESULT:      -4.2      1.680      2.013
REMARK  19 active torsions:
REMARK  status: ('A' for Active; 'I' for Inactive)
REMARK    1  A    between atoms: S_2  and  C_3 
REMARK    2  A    between atoms: C_3  and  N_4 
REMARK    3  A    between atoms: N_5  and  C_7 
REMARK    4  A    between atoms: C_7  and  C_8 
REMARK    5  A    between atoms: C_8  and  C_9 
REMARK    6  A    between atoms: C_9  and  C_10 
REMARK    7  A    between atoms: C_10  and  C_11 
REMARK    8  A    between atoms: C_11  and  C_12 
REMARK    9  A    between atoms: C_12  and  C_13 
REMARK   10  A    between atoms: C_13  and  C_14 
REMARK   11  A    between atoms: C_14  and  C_15 
REMARK   12  A    between atoms: C_15  and  C_16 
REMARK   13  A    between atoms: C_16  and  C_17 
REMARK   14  A    between atoms: C_17  and  C_18 
REMARK   15  A    between atoms: C_18  and  C_19 
REMARK   16  A    between atoms: C_19  and  C_20 
REMARK   17  A    between atoms: C_20  and  N_21 
REMARK   18  A    between atoms: C_23  and  N_24 
REMARK   19  A    between atoms: C_23  and  S_25 
ROOT
HETATM    1  C   UNK N   1      26.864  23.883  -5.501  0.00  0.00     0.000 C 
ENDROOT
BRANCH   1   2
HETATM    2  C   UNK N   1      26.399  24.170  -4.094  0.00  0.00     0.000 C 
BRANCH   2   3
HETATM    3  C   UNK N   1      27.611  24.291  -3.216  0.00  0.00     0.000 C 
BRANCH   3   4
HETATM    4  C   UNK N   1      28.843  24.560  -4.043  0.00  0.00     0.000 C 
BRANCH   4   5
HETATM    5  C   UNK N   1      30.004  24.212  -3.151  0.00  0.00     0.002 C 
BRANCH   5   6
HETATM    6  C   UNK N   1      29.921  22.811  -2.603  0.00  0.00     0.020 C 
BRANCH   6   7
HETATM    7  C   UNK N   1      30.491  21.941  -3.695  0.00  0.00     0.121 C 
BRANCH   7   8
HETATM    8  N   UNK N   1      31.927  21.904  -3.652  0.00  0.00    -0.371 N 
HETATM    9  C   UNK N   1      32.564  20.817  -3.913  0.00  0.00     0.133 C 
ATOM     10  HN  UNK N   1      32.446  22.748  -3.411  1.00  0.00     0.161 HD
BRANCH   9  11
HETATM   11  S   UNK N   1      34.365  20.820  -3.846  0.00  0.00    -0.099 SA
HETATM   12  C   UNK N   1      34.613  22.152  -5.062  0.00  0.00     0.099 C 
ENDBRANCH   9  11
BRANCH   9  13
HETATM   13  N   UNK N   1      31.856  19.633  -4.250  0.00  0.00    -0.380 N 
HETATM   14  H   UNK N   1      32.162  19.072  -4.998  0.00  0.00     0.158 HD
HETATM   15  H   UNK N   1      31.057  19.374  -3.735  0.00  0.00     0.158 HD
ENDBRANCH   9  13
ENDBRANCH   7   8
ENDBRANCH   6   7
ENDBRANCH   5   6
ENDBRANCH   4   5
ENDBRANCH   3   4
ENDBRANCH   2   3
ENDBRANCH   1   2
BRANCH   1  16
HETATM   16  C   UNK N   1      26.006  24.693  -6.427  0.00  0.00     0.000 C 
BRANCH  16  17
HETATM   17  C   UNK N   1      25.164  25.687  -5.669  0.00  0.00     0.000 C 
BRANCH  17  18
HETATM   18  C   UNK N   1      25.420  27.003  -6.351  0.00  0.00     0.000 C 
BRANCH  18  19
HETATM   19  C   UNK N   1      26.321  27.916  -5.564  0.00  0.00     0.000 C 
BRANCH  19  20
HETATM   20  C   UNK N   1      25.659  28.015  -4.213  0.00  0.00     0.002 C 
BRANCH  20  21
HETATM   21  C   UNK N   1      26.641  27.934  -3.076  0.00  0.00     0.020 C 
BRANCH  21  22
HETATM   22  C   UNK N   1      27.212  29.325  -2.928  0.00  0.00     0.121 C 
BRANCH  22  23
HETATM   23  N   UNK N   1      28.648  29.277  -2.880  0.00  0.00    -0.371 N 
HETATM   24  C   UNK N   1      29.296  29.542  -1.799  0.00  0.00     0.133 C 
ATOM     25  HN  UNK N   1      29.167  29.028  -3.723  1.00  0.00     0.161 HD
BRANCH  24  26
HETATM   26  N   UNK N   1      28.605  29.891  -0.612  0.00  0.00    -0.380 N 
HETATM   27  H   UNK N   1      28.193  29.190  -0.057  0.00  0.00     0.158 HD
HETATM   28  H   UNK N   1      28.536  30.837  -0.342  0.00  0.00     0.158 HD
ENDBRANCH  24  26
BRANCH  24  29
HETATM   29  S   UNK N   1      31.098  29.475  -1.763  0.00  0.00    -0.099 SA
HETATM   30  C   UNK N   1      31.390  30.502  -3.237  0.00  0.00     0.099 C 
ENDBRANCH  24  29
ENDBRANCH  22  23
ENDBRANCH  21  22
ENDBRANCH  20  21
ENDBRANCH  19  20
ENDBRANCH  18  19
ENDBRANCH  17  18
ENDBRANCH  16  17
ENDBRANCH   1  16
TORSDOF 19
ENDMDL
MODEL 3
REMARK VINA RESULT:      -4.1     13.115     16.973
REMARK  19 active torsions:
REMARK  status: ('A' for Active; 'I' for Inactive)
REMARK    1  A    between atoms: S_2  and  C_3 
REMARK    2  A    between atoms: C_3  and  N_4 
REMARK    3  A    between atoms: N_5  and  C_7 
REMARK    4  A    between atoms: C_7  and  C_8 
REMARK    5  A    between atoms: C_8  and  C_9 
REMARK    6  A    between atoms: C_9  and  C_10 
REMARK    7  A    between atoms: C_10  and  C_11 
REMARK    8  A    between atoms: C_11  and  C_12 
REMARK    9  A    between atoms: C_12  and  C_13 
REMARK   10  A    between atoms: C_13  and  C_14 
REMARK   11  A    between atoms: C_14  and  C_15 
REMARK   12  A    between atoms: C_15  and  C_16 
REMARK   13  A    between atoms: C_16  and  C_17 
REMARK   14  A    between atoms: C_17  and  C_18 
REMARK   15  A    between atoms: C_18  and  C_19 
REMARK   16  A    between atoms: C_19  and  C_20 
REMARK   17  A    between atoms: C_20  and  N_21 
REMARK   18  A    between atoms: C_23  and  N_24 
REMARK   19  A    between atoms: C_23  and  S_25 
ROOT
HETATM    1  C   UNK N   1      33.181  16.579   4.421  0.00  0.00     0.000 C 
ENDROOT
BRANCH   1   2
HETATM    2  C   UNK N   1      32.108  17.360   3.703  0.00  0.00     0.000 C 
BRANCH   2   3
HETATM    3  C   UNK N   1      30.966  17.573   4.655  0.00  0.00     0.000 C 
BRANCH   3   4
HETATM    4  C   UNK N   1      30.097  16.343   4.727  0.00  0.00     0.000 C 
BRANCH   4   5
HETATM    5  C   UNK N   1      29.961  16.037   6.193  0.00  0.00     0.002 C 
BRANCH   5   6
HETATM    6  C   UNK N   1      30.242  17.232   7.068  0.00  0.00     0.020 C 
BRANCH   6   7
HETATM    7  C   UNK N   1      28.914  17.554   7.707  0.00  0.00     0.121 C 
BRANCH   7   8
HETATM    8  N   UNK N   1      28.512  18.909   7.447  0.00  0.00    -0.371 N 
HETATM    9  C   UNK N   1      27.551  19.164   6.630  0.00  0.00     0.133 C 
ATOM     10  HN  UNK N   1      28.995  19.677   7.914  1.00  0.00     0.161 HD
BRANCH   9  11
HETATM   11  S   UNK N   1      27.084  20.879   6.336  0.00  0.00    -0.099 SA
HETATM   12  C   UNK N   1      26.037  20.558   4.881  0.00  0.00     0.099 C 
ENDBRANCH   9  11
BRANCH   9  13
HETATM   13  N   UNK N   1      26.870  18.106   5.971  0.00  0.00    -0.380 N 
HETATM   14  H   UNK N   1      26.212  18.307   5.268  0.00  0.00     0.158 HD
HETATM   15  H   UNK N   1      27.056  17.171   6.219  0.00  0.00     0.158 HD
ENDBRANCH   9  13
ENDBRANCH   7   8
ENDBRANCH   6   7
ENDBRANCH   5   6
ENDBRANCH   4   5
ENDBRANCH   3   4
ENDBRANCH   2   3
ENDBRANCH   1   2
BRANCH   1  16
HETATM   16  C   UNK N   1      33.603  17.392   5.609  0.00  0.00     0.000 C 
BRANCH  16  17
HETATM   17  C   UNK N   1      34.395  16.566   6.590  0.00  0.00     0.000 C 
BRANCH  17  18
HETATM   18  C   UNK N   1      34.388  17.371   7.860  0.00  0.00     0.000 C 
BRANCH  18  19
HETATM   19  C   UNK N   1      33.363  16.902   8.856  0.00  0.00     0.000 C 
BRANCH  19  20
HETATM   20  C   UNK N   1      34.134  15.999   9.784  0.00  0.00     0.002 C 
BRANCH  20  21
HETATM   21  C   UNK N   1      35.329  16.677  10.397  0.00  0.00     0.020 C 
BRANCH  21  22
HETATM   22  C   UNK N   1      36.264  15.564  10.812  0.00  0.00     0.121 C 
BRANCH  22  23
HETATM   23  N   UNK N   1      36.590  14.734   9.685  0.00  0.00    -0.371 N 
HETATM   24  C   UNK N   1      37.468  13.796   9.771  0.00  0.00     0.133 C 
ATOM     25  HN  UNK N   1      36.114  14.891   8.796  1.00  0.00     0.161 HD
BRANCH  24  26
HETATM   26  N   UNK N   1      38.147  13.553  10.991  0.00  0.00    -0.380 N 
HETATM   27  H   UNK N   1      38.725  14.247  11.380  0.00  0.00     0.158 HD
HETATM   28  H   UNK N   1      38.039  12.687  11.450  0.00  0.00     0.158 HD
ENDBRANCH  24  26
BRANCH  24  29
HETATM   29  S   UNK N   1      37.861  12.766   8.342  0.00  0.00    -0.099 SA
HETATM   30  C   UNK N   1      36.970  13.755   7.101  0.00  0.00     0.099 C 
ENDBRANCH  24  29
ENDBRANCH  22  23
ENDBRANCH  21  22
ENDBRANCH  20  21
ENDBRANCH  19  20
ENDBRANCH  18  19
ENDBRANCH  17  18
ENDBRANCH  16  17
ENDBRANCH   1  16
TORSDOF 19
ENDMDL
MODEL 4
REMARK VINA RESULT:      -4.1     13.616     16.616
REMARK  19 active torsions:
REMARK  status: ('A' for Active; 'I' for Inactive)
REMARK    1  A    between atoms: S_2  and  C_3 
REMARK    2  A    between atoms: C_3  and  N_4 
REMARK    3  A    between atoms: N_5  and  C_7 
REMARK    4  A    between atoms: C_7  and  C_8 
REMARK    5  A    between atoms: C_8  and  C_9 
REMARK    6  A    between atoms: C_9  and  C_10 
REMARK    7  A    between atoms: C_10  and  C_11 
REMARK    8  A    between atoms: C_11  and  C_12 
REMARK    9  A    between atoms: C_12  and  C_13 
REMARK   10  A    between atoms: C_13  and  C_14 
REMARK   11  A    between atoms: C_14  and  C_15 
REMARK   12  A    between atoms: C_15  and  C_16 
REMARK   13  A    between atoms: C_16  and  C_17 
REMARK   14  A    between atoms: C_17  and  C_18 
REMARK   15  A    between atoms: C_18  and  C_19 
REMARK   16  A    between atoms: C_19  and  C_20 
REMARK   17  A    between atoms: C_20  and  N_21 
REMARK   18  A    between atoms: C_23  and  N_24 
REMARK   19  A    between atoms: C_23  and  S_25 
ROOT
HETATM    1  C   UNK N   1      32.952  15.179   4.115  0.00  0.00     0.000 C 
ENDROOT
BRANCH   1   2
HETATM    2  C   UNK N   1      34.291  14.488   4.040  0.00  0.00     0.000 C 
BRANCH   2   3
HETATM    3  C   UNK N   1      34.312  13.393   5.068  0.00  0.00     0.000 C 
BRANCH   3   4
HETATM    4  C   UNK N   1      35.674  13.287   5.706  0.00  0.00     0.000 C 
BRANCH   4   5
HETATM    5  C   UNK N   1      35.415  13.228   7.187  0.00  0.00     0.002 C 
BRANCH   5   6
HETATM    6  C   UNK N   1      34.336  14.183   7.631  0.00  0.00     0.020 C 
BRANCH   6   7
HETATM    7  C   UNK N   1      34.982  15.006   8.717  0.00  0.00     0.121 C 
BRANCH   7   8
HETATM    8  N   UNK N   1      35.364  14.199   9.843  0.00  0.00    -0.371 N 
HETATM    9  C   UNK N   1      34.671  14.211  10.926  0.00  0.00     0.133 C 
ATOM     10  HN  UNK N   1      36.195  13.609   9.781  1.00  0.00     0.161 HD
BRANCH   9  11
HETATM   11  S   UNK N   1      35.190  13.182  12.310  0.00  0.00    -0.099 SA
HETATM   12  C   UNK N   1      36.162  14.463  13.164  0.00  0.00     0.099 C 
ENDBRANCH   9  11
BRANCH   9  13
HETATM   13  N   UNK N   1      33.512  15.027  11.027  0.00  0.00    -0.380 N 
HETATM   14  H   UNK N   1      33.065  15.350  10.213  0.00  0.00     0.158 HD
HETATM   15  H   UNK N   1      33.156  15.268  11.913  0.00  0.00     0.158 HD
ENDBRANCH   9  13
ENDBRANCH   7   8
ENDBRANCH   6   7
ENDBRANCH   5   6
ENDBRANCH   4   5
ENDBRANCH   3   4
ENDBRANCH   2   3
ENDBRANCH   1   2
BRANCH   1  16
HETATM   16  C   UNK N   1      33.105  16.517   3.453  0.00  0.00     0.000 C 
BRANCH  16  17
HETATM   17  C   UNK N   1      32.668  17.636   4.363  0.00  0.00     0.000 C 
BRANCH  17  18
HETATM   18  C   UNK N   1      32.585  17.008   5.727  0.00  0.00     0.000 C 
BRANCH  18  19
HETATM   19  C   UNK N   1      33.386  17.741   6.770  0.00  0.00     0.000 C 
BRANCH  19  20
HETATM   20  C   UNK N   1      32.523  17.687   8.004  0.00  0.00     0.002 C 
BRANCH  20  21
HETATM   21  C   UNK N   1      31.436  16.651   7.911  0.00  0.00     0.020 C 
BRANCH  21  22
HETATM   22  C   UNK N   1      30.220  17.273   8.559  0.00  0.00     0.121 C 
BRANCH  22  23
HETATM   23  N   UNK N   1      29.572  18.177   7.650  0.00  0.00    -0.371 N 
HETATM   24  C   UNK N   1      28.416  18.681   7.911  0.00  0.00     0.133 C 
ATOM     25  HN  UNK N   1      30.038  18.427   6.777  1.00  0.00     0.161 HD
BRANCH  24  26
HETATM   26  N   UNK N   1      27.741  18.355   9.114  0.00  0.00    -0.380 N 
HETATM   27  H   UNK N   1      28.183  18.501   9.981  0.00  0.00     0.158 HD
HETATM   28  H   UNK N   1      26.829  17.983   9.082  0.00  0.00     0.158 HD
ENDBRANCH  24  26
BRANCH  24  29
HETATM   29  S   UNK N   1      27.621  19.815   6.753  0.00  0.00    -0.099 SA
HETATM   30  C   UNK N   1      27.077  18.563   5.550  0.00  0.00     0.099 C 
ENDBRANCH  24  29
ENDBRANCH  22  23
ENDBRANCH  21  22
ENDBRANCH  20  21
ENDBRANCH  19  20
ENDBRANCH  18  19
ENDBRANCH  17  18
ENDBRANCH  16  17
ENDBRANCH   1  16
TORSDOF 19
ENDMDL
MODEL 5
REMARK VINA RESULT:      -4.1      1.444      7.566
REMARK  19 active torsions:
REMARK  status: ('A' for Active; 'I' for Inactive)
REMARK    1  A    between atoms: S_2  and  C_3 
REMARK    2  A    between atoms: C_3  and  N_4 
REMARK    3  A    between atoms: N_5  and  C_7 
REMARK    4  A    between atoms: C_7  and  C_8 
REMARK    5  A    between atoms: C_8  and  C_9 
REMARK    6  A    between atoms: C_9  and  C_10 
REMARK    7  A    between atoms: C_10  and  C_11 
REMARK    8  A    between atoms: C_11  and  C_12 
REMARK    9  A    between atoms: C_12  and  C_13 
REMARK   10  A    between atoms: C_13  and  C_14 
REMARK   11  A    between atoms: C_14  and  C_15 
REMARK   12  A    between atoms: C_15  and  C_16 
REMARK   13  A    between atoms: C_16  and  C_17 
REMARK   14  A    between atoms: C_17  and  C_18 
REMARK   15  A    between atoms: C_18  and  C_19 
REMARK   16  A    between atoms: C_19  and  C_20 
REMARK   17  A    between atoms: C_20  and  N_21 
REMARK   18  A    between atoms: C_23  and  N_24 
REMARK   19  A    between atoms: C_23  and  S_25 
ROOT
HETATM    1  C   UNK N   1      26.527  24.955  -5.953  0.00  0.00     0.000 C 
ENDROOT
BRANCH   1   2
HETATM    2  C   UNK N   1      25.457  25.806  -6.593  0.00  0.00     0.000 C 
BRANCH   2   3
HETATM    3  C   UNK N   1      25.053  26.867  -5.609  0.00  0.00     0.000 C 
BRANCH   3   4
HETATM    4  C   UNK N   1      26.096  27.954  -5.541  0.00  0.00     0.000 C 
BRANCH   4   5
HETATM    5  C   UNK N   1      26.010  28.498  -4.141  0.00  0.00     0.002 C 
BRANCH   5   6
HETATM    6  C   UNK N   1      26.645  29.857  -4.001  0.00  0.00     0.020 C 
BRANCH   6   7
HETATM    7  C   UNK N   1      27.369  29.804  -2.679  0.00  0.00     0.121 C 
BRANCH   7   8
HETATM    8  N   UNK N   1      28.750  29.441  -2.841  0.00  0.00    -0.371 N 
HETATM    9  C   UNK N   1      29.566  29.499  -1.848  0.00  0.00     0.133 C 
ATOM     10  HN  UNK N   1      29.086  29.134  -3.754  1.00  0.00     0.161 HD
BRANCH   9  11
HETATM   11  S   UNK N   1      31.288  29.033  -2.101  0.00  0.00    -0.099 SA
HETATM   12  C   UNK N   1      31.225  29.000  -3.920  0.00  0.00     0.099 C 
ENDBRANCH   9  11
BRANCH   9  13
HETATM   13  N   UNK N   1      29.113  29.923  -0.571  0.00  0.00    -0.380 N 
HETATM   14  H   UNK N   1      28.162  29.838  -0.332  0.00  0.00     0.158 HD
HETATM   15  H   UNK N   1      29.751  30.304   0.076  0.00  0.00     0.158 HD
ENDBRANCH   9  13
ENDBRANCH   7   8
ENDBRANCH   6   7
ENDBRANCH   5   6
ENDBRANCH   4   5
ENDBRANCH   3   4
ENDBRANCH   2   3
ENDBRANCH   1   2
BRANCH   1  16
HETATM   16  C   UNK N   1      25.968  24.436  -4.661  0.00  0.00     0.000 C 
BRANCH  16  17
HETATM   17  C   UNK N   1      26.987  24.503  -3.553  0.00  0.00     0.000 C 
BRANCH  17  18
HETATM   18  C   UNK N   1      28.176  25.188  -4.169  0.00  0.00     0.000 C 
BRANCH  18  19
HETATM   19  C   UNK N   1      29.486  24.778  -3.552  0.00  0.00     0.000 C 
BRANCH  19  20
HETATM   20  C   UNK N   1      29.604  23.311  -3.875  0.00  0.00     0.002 C 
BRANCH  20  21
HETATM   21  C   UNK N   1      29.972  22.478  -2.677  0.00  0.00     0.020 C 
BRANCH  21  22
HETATM   22  C   UNK N   1      31.454  22.209  -2.804  0.00  0.00     0.121 C 
BRANCH  22  23
HETATM   23  N   UNK N   1      31.747  21.591  -4.067  0.00  0.00    -0.371 N 
HETATM   24  C   UNK N   1      32.707  20.742  -4.197  0.00  0.00     0.133 C 
ATOM     25  HN  UNK N   1      31.181  21.830  -4.882  1.00  0.00     0.161 HD
BRANCH  24  26
HETATM   26  N   UNK N   1      33.511  20.389  -3.084  0.00  0.00    -0.380 N 
HETATM   27  H   UNK N   1      33.100  20.262  -2.200  0.00  0.00     0.158 HD
HETATM   28  H   UNK N   1      34.483  20.271  -3.197  0.00  0.00     0.158 HD
ENDBRANCH  24  26
BRANCH  24  29
HETATM   29  S   UNK N   1      33.056  19.979  -5.794  0.00  0.00    -0.099 SA
HETATM   30  C   UNK N   1      31.380  20.135  -6.488  0.00  0.00     0.099 C 
ENDBRANCH  24  29
ENDBRANCH  22  23
ENDBRANCH  21  22
ENDBRANCH  20  21
ENDBRANCH  19  20
ENDBRANCH  18  19
ENDBRANCH  17  18
ENDBRANCH  16  17
ENDBRANCH   1  16
TORSDOF 19
ENDMDL
MODEL 6
REMARK VINA RESULT:      -4.1     25.426     28.395
REMARK  19 active torsions:
REMARK  status: ('A' for Active; 'I' for Inactive)
REMARK    1  A    between atoms: S_2  and  C_3 
REMARK    2  A    between atoms: C_3  and  N_4 
REMARK    3  A    between atoms: N_5  and  C_7 
REMARK    4  A    between atoms: C_7  and  C_8 
REMARK    5  A    between atoms: C_8  and  C_9 
REMARK    6  A    between atoms: C_9  and  C_10 
REMARK    7  A    between atoms: C_10  and  C_11 
REMARK    8  A    between atoms: C_11  and  C_12 
REMARK    9  A    between atoms: C_12  and  C_13 
REMARK   10  A    between atoms: C_13  and  C_14 
REMARK   11  A    between atoms: C_14  and  C_15 
REMARK   12  A    between atoms: C_15  and  C_16 
REMARK   13  A    between atoms: C_16  and  C_17 
REMARK   14  A    between atoms: C_17  and  C_18 
REMARK   15  A    between atoms: C_18  and  C_19 
REMARK   16  A    between atoms: C_19  and  C_20 
REMARK   17  A    between atoms: C_20  and  N_21 
REMARK   18  A    between atoms: C_23  and  N_24 
REMARK   19  A    between atoms: C_23  and  S_25 
ROOT
HETATM    1  C   UNK N   1      34.549   9.566  18.467  0.00  0.00     0.000 C 
ENDROOT
BRANCH   1   2
HETATM    2  C   UNK N   1      34.092   8.339  19.218  0.00  0.00     0.000 C 
BRANCH   2   3
HETATM    3  C   UNK N   1      32.752   8.635  19.828  0.00  0.00     0.000 C 
BRANCH   3   4
HETATM    4  C   UNK N   1      32.792   8.438  21.323  0.00  0.00     0.000 C 
BRANCH   4   5
HETATM    5  C   UNK N   1      32.049   9.613  21.897  0.00  0.00     0.002 C 
BRANCH   5   6
HETATM    6  C   UNK N   1      32.959  10.754  22.272  0.00  0.00     0.020 C 
BRANCH   6   7
HETATM    7  C   UNK N   1      33.049  10.690  23.776  0.00  0.00     0.121 C 
BRANCH   7   8
HETATM    8  N   UNK N   1      31.822  10.226  24.364  0.00  0.00    -0.371 N 
HETATM    9  C   UNK N   1      31.797   9.789  25.574  0.00  0.00     0.133 C 
ATOM     10  HN  UNK N   1      30.962  10.245  23.816  1.00  0.00     0.161 HD
BRANCH   9  11
HETATM   11  S   UNK N   1      30.235   9.219  26.267  0.00  0.00    -0.099 SA
HETATM   12  C   UNK N   1      29.478  10.865  26.445  0.00  0.00     0.099 C 
ENDBRANCH   9  11
BRANCH   9  13
HETATM   13  N   UNK N   1      32.986   9.757  26.350  0.00  0.00    -0.380 N 
HETATM   14  H   UNK N   1      33.460   8.906  26.491  0.00  0.00     0.158 HD
HETATM   15  H   UNK N   1      33.337  10.587  26.748  0.00  0.00     0.158 HD
ENDBRANCH   9  13
ENDBRANCH   7   8
ENDBRANCH   6   7
ENDBRANCH   5   6
ENDBRANCH   4   5
ENDBRANCH   3   4
ENDBRANCH   2   3
ENDBRANCH   1   2
BRANCH   1  16
HETATM   16  C   UNK N   1      35.181  10.489  19.467  0.00  0.00     0.000 C 
BRANCH  16  17
HETATM   17  C   UNK N   1      35.377  11.870  18.894  0.00  0.00     0.000 C 
BRANCH  17  18
HETATM   18  C   UNK N   1      35.388  11.667  17.404  0.00  0.00     0.000 C 
BRANCH  18  19
HETATM   19  C   UNK N   1      35.287  12.952  16.628  0.00  0.00     0.000 C 
BRANCH  19  20
HETATM   20  C   UNK N   1      35.835  12.607  15.267  0.00  0.00     0.002 C 
BRANCH  20  21
HETATM   21  C   UNK N   1      36.239  13.821  14.476  0.00  0.00     0.020 C 
BRANCH  21  22
HETATM   22  C   UNK N   1      35.580  13.669  13.125  0.00  0.00     0.121 C 
BRANCH  22  23
HETATM   23  N   UNK N   1      35.740  14.868  12.349  0.00  0.00    -0.371 N 
HETATM   24  C   UNK N   1      35.028  15.092  11.300  0.00  0.00     0.133 C 
ATOM     25  HN  UNK N   1      36.434  15.559  12.636  1.00  0.00     0.161 HD
BRANCH  24  26
HETATM   26  N   UNK N   1      34.055  14.152  10.874  0.00  0.00    -0.380 N 
HETATM   27  H   UNK N   1      33.342  13.870  11.489  0.00  0.00     0.158 HD
HETATM   28  H   UNK N   1      34.094  13.782   9.961  0.00  0.00     0.158 HD
ENDBRANCH  24  26
BRANCH  24  29
HETATM   29  S   UNK N   1      35.247  16.605  10.341  0.00  0.00    -0.099 SA
HETATM   30  C   UNK N   1      33.794  16.400   9.263  0.00  0.00     0.099 C 
ENDBRANCH  24  29
ENDBRANCH  22  23
ENDBRANCH  21  22
ENDBRANCH  20  21
ENDBRANCH  19  20
ENDBRANCH  18  19
ENDBRANCH  17  18
ENDBRANCH  16  17
ENDBRANCH   1  16
TORSDOF 19
ENDMDL
MODEL 7
REMARK VINA RESULT:      -4.0      2.128      3.095
REMARK  19 active torsions:
REMARK  status: ('A' for Active; 'I' for Inactive)
REMARK    1  A    between atoms: S_2  and  C_3 
REMARK    2  A    between atoms: C_3  and  N_4 
REMARK    3  A    between atoms: N_5  and  C_7 
REMARK    4  A    between atoms: C_7  and  C_8 
REMARK    5  A    between atoms: C_8  and  C_9 
REMARK    6  A    between atoms: C_9  and  C_10 
REMARK    7  A    between atoms: C_10  and  C_11 
REMARK    8  A    between atoms: C_11  and  C_12 
REMARK    9  A    between atoms: C_12  and  C_13 
REMARK   10  A    between atoms: C_13  and  C_14 
REMARK   11  A    between atoms: C_14  and  C_15 
REMARK   12  A    between atoms: C_15  and  C_16 
REMARK   13  A    between atoms: C_16  and  C_17 
REMARK   14  A    between atoms: C_17  and  C_18 
REMARK   15  A    between atoms: C_18  and  C_19 
REMARK   16  A    between atoms: C_19  and  C_20 
REMARK   17  A    between atoms: C_20  and  N_21 
REMARK   18  A    between atoms: C_23  and  N_24 
REMARK   19  A    between atoms: C_23  and  S_25 
ROOT
HETATM    1  C   UNK N   1      25.589  25.595  -6.272  0.00  0.00     0.000 C 
ENDROOT
BRANCH   1   2
HETATM    2  C   UNK N   1      25.558  24.600  -5.137  0.00  0.00     0.000 C 
BRANCH   2   3
HETATM    3  C   UNK N   1      26.952  24.082  -4.929  0.00  0.00     0.000 C 
BRANCH   3   4
HETATM    4  C   UNK N   1      27.413  24.347  -3.518  0.00  0.00     0.000 C 
BRANCH   4   5
HETATM    5  C   UNK N   1      28.865  23.954  -3.494  0.00  0.00     0.002 C 
BRANCH   5   6
HETATM    6  C   UNK N   1      29.222  23.106  -2.301  0.00  0.00     0.020 C 
BRANCH   6   7
HETATM    7  C   UNK N   1      30.322  22.199  -2.796  0.00  0.00     0.121 C 
BRANCH   7   8
HETATM    8  N   UNK N   1      30.104  21.791  -4.157  0.00  0.00    -0.371 N 
HETATM    9  C   UNK N   1      30.818  20.859  -4.685  0.00  0.00     0.133 C 
ATOM     10  HN  UNK N   1      29.377  22.245  -4.709  1.00  0.00     0.161 HD
BRANCH   9  11
HETATM   11  S   UNK N   1      30.508  20.382  -6.394  0.00  0.00    -0.099 SA
HETATM   12  C   UNK N   1      30.923  21.992  -7.135  0.00  0.00     0.099 C 
ENDBRANCH   9  11
BRANCH   9  13
HETATM   13  N   UNK N   1      31.835  20.218  -3.929  0.00  0.00    -0.380 N 
HETATM   14  H   UNK N   1      32.252  19.393  -4.265  0.00  0.00     0.158 HD
HETATM   15  H   UNK N   1      32.123  20.600  -3.068  0.00  0.00     0.158 HD
ENDBRANCH   9  13
ENDBRANCH   7   8
ENDBRANCH   6   7
ENDBRANCH   5   6
ENDBRANCH   4   5
ENDBRANCH   3   4
ENDBRANCH   2   3
ENDBRANCH   1   2
BRANCH   1  16
HETATM   16  C   UNK N   1      24.946  26.857  -5.774  0.00  0.00     0.000 C 
BRANCH  16  17
HETATM   17  C   UNK N   1      25.974  27.840  -5.276  0.00  0.00     0.000 C 
BRANCH  17  18
HETATM   18  C   UNK N   1      25.643  28.033  -3.822  0.00  0.00     0.000 C 
BRANCH  18  19
HETATM   19  C   UNK N   1      26.858  28.065  -2.934  0.00  0.00     0.000 C 
BRANCH  19  20
HETATM   20  C   UNK N   1      28.019  28.024  -3.893  0.00  0.00     0.002 C 
BRANCH  20  21
HETATM   21  C   UNK N   1      29.105  29.002  -3.535  0.00  0.00     0.020 C 
BRANCH  21  22
HETATM   22  C   UNK N   1      30.305  28.163  -3.161  0.00  0.00     0.121 C 
BRANCH  22  23
HETATM   23  N   UNK N   1      30.450  27.059  -4.068  0.00  0.00    -0.371 N 
HETATM   24  C   UNK N   1      31.497  26.925  -4.806  0.00  0.00     0.133 C 
ATOM     25  HN  UNK N   1      29.706  26.363  -4.130  1.00  0.00     0.161 HD
BRANCH  24  26
HETATM   26  N   UNK N   1      32.548  27.874  -4.744  0.00  0.00    -0.380 N 
HETATM   27  H   UNK N   1      32.366  28.824  -4.926  0.00  0.00     0.158 HD
HETATM   28  H   UNK N   1      33.462  27.583  -4.518  0.00  0.00     0.158 HD
ENDBRANCH  24  26
BRANCH  24  29
HETATM   29  S   UNK N   1      31.657  25.530  -5.938  0.00  0.00    -0.099 SA
HETATM   30  C   UNK N   1      32.603  24.444  -4.825  0.00  0.00     0.099 C 
ENDBRANCH  24  29
ENDBRANCH  22  23
ENDBRANCH  21  22
ENDBRANCH  20  21
ENDBRANCH  19  20
ENDBRANCH  18  19
ENDBRANCH  17  18
ENDBRANCH  16  17
ENDBRANCH   1  16
TORSDOF 19
ENDMDL
MODEL 8
REMARK VINA RESULT:      -4.0     12.988     15.229
REMARK  19 active torsions:
REMARK  status: ('A' for Active; 'I' for Inactive)
REMARK    1  A    between atoms: S_2  and  C_3 
REMARK    2  A    between atoms: C_3  and  N_4 
REMARK    3  A    between atoms: N_5  and  C_7 
REMARK    4  A    between atoms: C_7  and  C_8 
REMARK    5  A    between atoms: C_8  and  C_9 
REMARK    6  A    between atoms: C_9  and  C_10 
REMARK    7  A    between atoms: C_10  and  C_11 
REMARK    8  A    between atoms: C_11  and  C_12 
REMARK    9  A    between atoms: C_12  and  C_13 
REMARK   10  A    between atoms: C_13  and  C_14 
REMARK   11  A    between atoms: C_14  and  C_15 
REMARK   12  A    between atoms: C_15  and  C_16 
REMARK   13  A    between atoms: C_16  and  C_17 
REMARK   14  A    between atoms: C_17  and  C_18 
REMARK   15  A    between atoms: C_18  and  C_19 
REMARK   16  A    between atoms: C_19  and  C_20 
REMARK   17  A    between atoms: C_20  and  N_21 
REMARK   18  A    between atoms: C_23  and  N_24 
REMARK   19  A    between atoms: C_23  and  S_25 
ROOT
HETATM    1  C   UNK N   1      22.889  20.407   2.797  0.00  0.00     0.000 C 
ENDROOT
BRANCH   1   2
HETATM    2  C   UNK N   1      24.132  19.966   3.532  0.00  0.00     0.000 C 
BRANCH   2   3
HETATM    3  C   UNK N   1      25.312  20.180   2.627  0.00  0.00     0.000 C 
BRANCH   3   4
HETATM    4  C   UNK N   1      26.546  20.506   3.431  0.00  0.00     0.000 C 
BRANCH   4   5
HETATM    5  C   UNK N   1      26.080  20.582   4.859  0.00  0.00     0.002 C 
BRANCH   5   6
HETATM    6  C   UNK N   1      27.064  21.283   5.759  0.00  0.00     0.020 C 
BRANCH   6   7
HETATM    7  C   UNK N   1      27.183  20.384   6.964  0.00  0.00     0.121 C 
BRANCH   7   8
HETATM    8  N   UNK N   1      28.072  19.281   6.720  0.00  0.00    -0.371 N 
HETATM    9  C   UNK N   1      28.328  18.426   7.647  0.00  0.00     0.133 C 
ATOM     10  HN  UNK N   1      28.505  19.176   5.803  1.00  0.00     0.161 HD
BRANCH   9  11
HETATM   11  S   UNK N   1      29.448  17.060   7.293  0.00  0.00    -0.099 SA
HETATM   12  C   UNK N   1      30.417  17.188   8.829  0.00  0.00     0.099 C 
ENDBRANCH   9  11
BRANCH   9  13
HETATM   13  N   UNK N   1      27.733  18.558   8.929  0.00  0.00    -0.380 N 
HETATM   14  H   UNK N   1      27.603  17.764   9.497  0.00  0.00     0.158 HD
HETATM   15  H   UNK N   1      27.450  19.445   9.252  0.00  0.00     0.158 HD
ENDBRANCH   9  13
ENDBRANCH   7   8
ENDBRANCH   6   7
ENDBRANCH   5   6
ENDBRANCH   4   5
ENDBRANCH   3   4
ENDBRANCH   2   3
ENDBRANCH   1   2
BRANCH   1  16
HETATM   16  C   UNK N   1      21.743  19.607   3.342  0.00  0.00     0.000 C 
BRANCH  16  17
HETATM   17  C   UNK N   1      22.213  18.580   4.340  0.00  0.00     0.000 C 
BRANCH  17  18
HETATM   18  C   UNK N   1      21.527  17.307   3.930  0.00  0.00     0.000 C 
BRANCH  18  19
HETATM   19  C   UNK N   1      20.429  16.892   4.872  0.00  0.00     0.000 C 
BRANCH  19  20
HETATM   20  C   UNK N   1      21.154  16.239   6.020  0.00  0.00     0.002 C 
BRANCH  20  21
HETATM   21  C   UNK N   1      20.619  16.659   7.362  0.00  0.00     0.020 C 
BRANCH  21  22
HETATM   22  C   UNK N   1      20.873  15.493   8.289  0.00  0.00     0.121 C 
BRANCH  22  23
HETATM   23  N   UNK N   1      21.960  14.690   7.801  0.00  0.00    -0.371 N 
HETATM   24  C   UNK N   1      22.561  13.838   8.557  0.00  0.00     0.133 C 
ATOM     25  HN  UNK N   1      22.265  14.798   6.833  1.00  0.00     0.161 HD
BRANCH  24  26
HETATM   26  N   UNK N   1      22.163  13.664   9.906  0.00  0.00    -0.380 N 
HETATM   27  H   UNK N   1      21.320  14.059  10.226  0.00  0.00     0.158 HD
HETATM   28  H   UNK N   1      22.731  13.148  10.525  0.00  0.00     0.158 HD
ENDBRANCH  24  26
BRANCH  24  29
HETATM   29  S   UNK N   1      23.924  12.841   7.922  0.00  0.00    -0.099 SA
HETATM   30  C   UNK N   1      24.162  11.814   9.406  0.00  0.00     0.099 C 
ENDBRANCH  24  29
ENDBRANCH  22  23
ENDBRANCH  21  22
ENDBRANCH  20  21
ENDBRANCH  19  20
ENDBRANCH  18  19
ENDBRANCH  17  18
ENDBRANCH  16  17
ENDBRANCH   1  16
TORSDOF 19
ENDMDL
MODEL 9
REMARK VINA RESULT:      -4.0     11.626     14.093
REMARK  19 active torsions:
REMARK  status: ('A' for Active; 'I' for Inactive)
REMARK    1  A    between atoms: S_2  and  C_3 
REMARK    2  A    between atoms: C_3  and  N_4 
REMARK    3  A    between atoms: N_5  and  C_7 
REMARK    4  A    between atoms: C_7  and  C_8 
REMARK    5  A    between atoms: C_8  and  C_9 
REMARK    6  A    between atoms: C_9  and  C_10 
REMARK    7  A    between atoms: C_10  and  C_11 
REMARK    8  A    between atoms: C_11  and  C_12 
REMARK    9  A    between atoms: C_12  and  C_13 
REMARK   10  A    between atoms: C_13  and  C_14 
REMARK   11  A    between atoms: C_14  and  C_15 
REMARK   12  A    between atoms: C_15  and  C_16 
REMARK   13  A    between atoms: C_16  and  C_17 
REMARK   14  A    between atoms: C_17  and  C_18 
REMARK   15  A    between atoms: C_18  and  C_19 
REMARK   16  A    between atoms: C_19  and  C_20 
REMARK   17  A    between atoms: C_20  and  N_21 
REMARK   18  A    between atoms: C_23  and  N_24 
REMARK   19  A    between atoms: C_23  and  S_25 
ROOT
HETATM    1  C   UNK N   1      24.703  18.456   4.204  0.00  0.00     0.000 C 
ENDROOT
BRANCH   1   2
HETATM    2  C   UNK N   1      25.020  16.989   4.041  0.00  0.00     0.000 C 
BRANCH   2   3
HETATM    3  C   UNK N   1      24.698  16.294   5.333  0.00  0.00     0.000 C 
BRANCH   3   4
HETATM    4  C   UNK N   1      23.247  16.487   5.694  0.00  0.00     0.000 C 
BRANCH   4   5
HETATM    5  C   UNK N   1      22.483  15.586   4.763  0.00  0.00     0.002 C 
BRANCH   5   6
HETATM    6  C   UNK N   1      21.067  16.045   4.535  0.00  0.00     0.020 C 
BRANCH   6   7
HETATM    7  C   UNK N   1      21.060  16.566   3.119  0.00  0.00     0.121 C 
BRANCH   7   8
HETATM    8  N   UNK N   1      21.310  17.981   3.071  0.00  0.00    -0.371 N 
HETATM    9  C   UNK N   1      20.378  18.802   2.734  0.00  0.00     0.133 C 
ATOM     10  HN  UNK N   1      22.236  18.338   3.307  1.00  0.00     0.161 HD
BRANCH   9  11
HETATM   11  S   UNK N   1      20.739  20.566   2.689  0.00  0.00    -0.099 SA
HETATM   12  C   UNK N   1      20.789  20.717   0.875  0.00  0.00     0.099 C 
ENDBRANCH   9  11
BRANCH   9  13
HETATM   13  N   UNK N   1      19.083  18.321   2.404  0.00  0.00    -0.380 N 
HETATM   14  H   UNK N   1      18.849  18.142   1.465  0.00  0.00     0.158 HD
HETATM   15  H   UNK N   1      18.419  18.166   3.115  0.00  0.00     0.158 HD
ENDBRANCH   9  13
ENDBRANCH   7   8
ENDBRANCH   6   7
ENDBRANCH   5   6
ENDBRANCH   4   5
ENDBRANCH   3   4
ENDBRANCH   2   3
ENDBRANCH   1   2
BRANCH   1  16
HETATM   16  C   UNK N   1      25.614  19.213   3.283  0.00  0.00     0.000 C 
BRANCH  16  17
HETATM   17  C   UNK N   1      26.196  20.427   3.959  0.00  0.00     0.000 C 
BRANCH  17  18
HETATM   18  C   UNK N   1      27.524  19.967   4.494  0.00  0.00     0.000 C 
BRANCH  18  19
HETATM   19  C   UNK N   1      27.657  20.134   5.983  0.00  0.00     0.000 C 
BRANCH  19  20
HETATM   20  C   UNK N   1      27.779  18.726   6.505  0.00  0.00     0.002 C 
BRANCH  20  21
HETATM   21  C   UNK N   1      28.310  18.669   7.912  0.00  0.00     0.020 C 
BRANCH  21  22
HETATM   22  C   UNK N   1      29.075  17.369   8.010  0.00  0.00     0.121 C 
BRANCH  22  23
HETATM   23  N   UNK N   1      30.461  17.621   8.290  0.00  0.00    -0.371 N 
HETATM   24  C   UNK N   1      31.373  17.441   7.398  0.00  0.00     0.133 C 
ATOM     25  HN  UNK N   1      30.731  17.950   9.217  1.00  0.00     0.161 HD
BRANCH  24  26
HETATM   26  N   UNK N   1      31.031  16.985   6.100  0.00  0.00    -0.380 N 
HETATM   27  H   UNK N   1      30.086  16.917   5.835  0.00  0.00     0.158 HD
HETATM   28  H   UNK N   1      31.741  16.735   5.463  0.00  0.00     0.158 HD
ENDBRANCH  24  26
BRANCH  24  29
HETATM   29  S   UNK N   1      33.108  17.764   7.773  0.00  0.00    -0.099 SA
HETATM   30  C   UNK N   1      33.365  16.346   8.884  0.00  0.00     0.099 C 
ENDBRANCH  24  29
ENDBRANCH  22  23
ENDBRANCH  21  22
ENDBRANCH  20  21
ENDBRANCH  19  20
ENDBRANCH  18  19
ENDBRANCH  17  18
ENDBRANCH  16  17
ENDBRANCH   1  16
TORSDOF 19
ENDMDL
