MODEL 1
REMARK VINA RESULT:      -4.3      0.000      0.000
REMARK  3 active torsions:
REMARK  status: ('A' for Active; 'I' for Inactive)
REMARK    1  A    between atoms: C_3  and  C_4 
REMARK    2  A    between atoms: C_4  and  C_5 
REMARK    3  A    between atoms: C_5  and  O_6 
ROOT
HETATM    1  C   UNK N   1      22.964  11.801  12.752  0.00  0.00     0.069 C 
HETATM    2  C   UNK N   1      23.499  12.290  11.451  0.00  0.00     0.018 A 
HETATM    3  C   UNK N   1      22.686  12.746  10.413  0.00  0.00     0.008 A 
HETATM    4  S   UNK N   1      23.715  13.177   9.191  0.00  0.00    -0.087 SA
HETATM    5  C   UNK N   1      25.142  12.801   9.945  0.00  0.00     0.138 A 
HETATM    6  N   UNK N   1      24.852  12.323  11.187  0.00  0.00    -0.363 N 
ATOM      7  HN  UNK N   1      25.564  12.021  11.853  1.00  0.00     0.165 HD
ENDROOT
BRANCH   3   8
HETATM    8  C   UNK N   1      21.192  12.814  10.439  0.00  0.00     0.074 C 
BRANCH   8   9
HETATM    9  C   UNK N   1      20.654  14.056   9.762  0.00  0.00     0.169 C 
BRANCH   9  10
HETATM   10  O   UNK N   1      19.270  14.085   9.904  0.00  0.00    -0.401 OA
HETATM   11  H   UNK N   1      18.766  14.853   9.594  0.00  0.00     0.209 HD
ENDBRANCH   9  10
ENDBRANCH   8   9
ENDBRANCH   3   8
TORSDOF 3
ENDMDL
MODEL 2
REMARK VINA RESULT:      -3.9      9.535     10.526
REMARK  3 active torsions:
REMARK  status: ('A' for Active; 'I' for Inactive)
REMARK    1  A    between atoms: C_3  and  C_4 
REMARK    2  A    between atoms: C_4  and  C_5 
REMARK    3  A    between atoms: C_5  and  O_6 
ROOT
HETATM    1  C   UNK N   1      24.512  20.565   2.752  0.00  0.00     0.069 C 
HETATM    2  C   UNK N   1      23.498  19.734   3.456  0.00  0.00     0.018 A 
HETATM    3  C   UNK N   1      22.126  19.843   3.226  0.00  0.00     0.008 A 
HETATM    4  S   UNK N   1      21.412  18.733   4.224  0.00  0.00    -0.087 SA
HETATM    5  C   UNK N   1      22.788  18.132   4.925  0.00  0.00     0.138 A 
HETATM    6  N   UNK N   1      23.856  18.788   4.394  0.00  0.00    -0.363 N 
ATOM      7  HN  UNK N   1      24.822  18.600   4.663  1.00  0.00     0.165 HD
ENDROOT
BRANCH   3   8
HETATM    8  C   UNK N   1      21.474  20.785   2.264  0.00  0.00     0.074 C 
BRANCH   8   9
HETATM    9  C   UNK N   1      20.761  20.068   1.138  0.00  0.00     0.169 C 
BRANCH   9  10
HETATM   10  O   UNK N   1      20.777  20.876   0.005  0.00  0.00    -0.401 OA
HETATM   11  H   UNK N   1      20.006  21.422  -0.211  0.00  0.00     0.209 HD
ENDBRANCH   9  10
ENDBRANCH   8   9
ENDBRANCH   3   8
TORSDOF 3
ENDMDL
MODEL 3
REMARK VINA RESULT:      -3.8     10.653     12.403
REMARK  3 active torsions:
REMARK  status: ('A' for Active; 'I' for Inactive)
REMARK    1  A    between atoms: C_3  and  C_4 
REMARK    2  A    between atoms: C_4  and  C_5 
REMARK    3  A    between atoms: C_5  and  O_6 
ROOT
HETATM    1  C   UNK N   1      32.843  17.377   4.394  0.00  0.00     0.069 C 
HETATM    2  C   UNK N   1      32.119  17.303   5.693  0.00  0.00     0.018 A 
HETATM    3  C   UNK N   1      32.758  17.387   6.930  0.00  0.00     0.008 A 
HETATM    4  S   UNK N   1      31.561  17.256   8.065  0.00  0.00    -0.087 SA
HETATM    5  C   UNK N   1      30.276  17.098   7.031  0.00  0.00     0.138 A 
HETATM    6  N   UNK N   1      30.750  17.144   5.756  0.00  0.00    -0.363 N 
ATOM      7  HN  UNK N   1      30.154  17.068   4.931  1.00  0.00     0.165 HD
ENDROOT
BRANCH   3   8
HETATM    8  C   UNK N   1      34.228  17.560   7.144  0.00  0.00     0.074 C 
BRANCH   8   9
HETATM    9  C   UNK N   1      34.564  18.002   8.551  0.00  0.00     0.169 C 
BRANCH   9  10
HETATM   10  O   UNK N   1      35.271  19.200   8.492  0.00  0.00    -0.401 OA
HETATM   11  H   UNK N   1      35.771  19.430   7.694  0.00  0.00     0.209 HD
ENDBRANCH   9  10
ENDBRANCH   8   9
ENDBRANCH   3   8
TORSDOF 3
ENDMDL
MODEL 4
REMARK VINA RESULT:      -3.8      1.307      2.223
REMARK  3 active torsions:
REMARK  status: ('A' for Active; 'I' for Inactive)
REMARK    1  A    between atoms: C_3  and  C_4 
REMARK    2  A    between atoms: C_4  and  C_5 
REMARK    3  A    between atoms: C_5  and  O_6 
ROOT
HETATM    1  C   UNK N   1      24.785  13.409   8.811  0.00  0.00     0.069 C 
HETATM    2  C   UNK N   1      23.942  12.886   9.921  0.00  0.00     0.018 A 
HETATM    3  C   UNK N   1      22.548  12.939   9.913  0.00  0.00     0.008 A 
HETATM    4  S   UNK N   1      22.063  12.248  11.336  0.00  0.00    -0.087 SA
HETATM    5  C   UNK N   1      23.562  11.892  11.945  0.00  0.00     0.138 A 
HETATM    6  N   UNK N   1      24.495  12.307  11.044  0.00  0.00    -0.363 N 
ATOM      7  HN  UNK N   1      25.500  12.201  11.186  1.00  0.00     0.165 HD
ENDROOT
BRANCH   3   8
HETATM    8  C   UNK N   1      21.702  13.513   8.821  0.00  0.00     0.074 C 
BRANCH   8   9
HETATM    9  C   UNK N   1      20.832  14.656   9.298  0.00  0.00     0.169 C 
BRANCH   9  10
HETATM   10  O   UNK N   1      19.563  14.167   9.592  0.00  0.00    -0.401 OA
HETATM   11  H   UNK N   1      19.465  13.348  10.101  0.00  0.00     0.209 HD
ENDBRANCH   9  10
ENDBRANCH   8   9
ENDBRANCH   3   8
TORSDOF 3
ENDMDL
MODEL 5
REMARK VINA RESULT:      -3.7     11.473     12.465
REMARK  3 active torsions:
REMARK  status: ('A' for Active; 'I' for Inactive)
REMARK    1  A    between atoms: C_3  and  C_4 
REMARK    2  A    between atoms: C_4  and  C_5 
REMARK    3  A    between atoms: C_5  and  O_6 
ROOT
HETATM    1  C   UNK N   1      32.708  14.446   8.572  0.00  0.00     0.069 C 
HETATM    2  C   UNK N   1      33.678  15.036   9.534  0.00  0.00     0.018 A 
HETATM    3  C   UNK N   1      34.462  16.153   9.242  0.00  0.00     0.008 A 
HETATM    4  S   UNK N   1      35.370  16.433  10.597  0.00  0.00    -0.087 SA
HETATM    5  C   UNK N   1      34.793  15.187  11.525  0.00  0.00     0.138 A 
HETATM    6  N   UNK N   1      33.866  14.509  10.795  0.00  0.00    -0.363 N 
ATOM      7  HN  UNK N   1      33.361  13.694  11.145  1.00  0.00     0.165 HD
ENDROOT
BRANCH   3   8
HETATM    8  C   UNK N   1      34.454  16.913   7.954  0.00  0.00     0.074 C 
BRANCH   8   9
HETATM    9  C   UNK N   1      33.996  18.345   8.125  0.00  0.00     0.169 C 
BRANCH   9  10
HETATM   10  O   UNK N   1      35.106  19.149   8.366  0.00  0.00    -0.401 OA
HETATM   11  H   UNK N   1      35.218  19.575   9.230  0.00  0.00     0.209 HD
ENDBRANCH   9  10
ENDBRANCH   8   9
ENDBRANCH   3   8
TORSDOF 3
ENDMDL
MODEL 6
REMARK VINA RESULT:      -3.7      9.204     10.405
REMARK  3 active torsions:
REMARK  status: ('A' for Active; 'I' for Inactive)
REMARK    1  A    between atoms: C_3  and  C_4 
REMARK    2  A    between atoms: C_4  and  C_5 
REMARK    3  A    between atoms: C_5  and  O_6 
ROOT
HETATM    1  C   UNK N   1      19.944  16.971   1.007  0.00  0.00     0.069 C 
HETATM    2  C   UNK N   1      20.682  17.293   2.258  0.00  0.00     0.018 A 
HETATM    3  C   UNK N   1      20.768  18.583   2.784  0.00  0.00     0.008 A 
HETATM    4  S   UNK N   1      21.676  18.448   4.161  0.00  0.00    -0.087 SA
HETATM    5  C   UNK N   1      21.953  16.815   4.098  0.00  0.00     0.138 A 
HETATM    6  N   UNK N   1      21.338  16.324   2.988  0.00  0.00    -0.363 N 
ATOM      7  HN  UNK N   1      21.360  15.339   2.723  1.00  0.00     0.165 HD
ENDROOT
BRANCH   3   8
HETATM    8  C   UNK N   1      20.151  19.811   2.193  0.00  0.00     0.074 C 
BRANCH   8   9
HETATM    9  C   UNK N   1      21.082  20.530   1.242  0.00  0.00     0.169 C 
BRANCH   9  10
HETATM   10  O   UNK N   1      20.562  20.450  -0.047  0.00  0.00    -0.401 OA
HETATM   11  H   UNK N   1      20.738  19.669  -0.593  0.00  0.00     0.209 HD
ENDBRANCH   9  10
ENDBRANCH   8   9
ENDBRANCH   3   8
TORSDOF 3
ENDMDL
MODEL 7
REMARK VINA RESULT:      -3.6      8.829      9.648
REMARK  3 active torsions:
REMARK  status: ('A' for Active; 'I' for Inactive)
REMARK    1  A    between atoms: C_3  and  C_4 
REMARK    2  A    between atoms: C_4  and  C_5 
REMARK    3  A    between atoms: C_5  and  O_6 
ROOT
HETATM    1  C   UNK N   1      27.499  19.855   4.347  0.00  0.00     0.069 C 
HETATM    2  C   UNK N   1      28.312  18.687   4.782  0.00  0.00     0.018 A 
HETATM    3  C   UNK N   1      28.563  18.386   6.122  0.00  0.00     0.008 A 
HETATM    4  S   UNK N   1      29.496  17.020   6.110  0.00  0.00    -0.087 SA
HETATM    5  C   UNK N   1      29.582  16.812   4.468  0.00  0.00     0.138 A 
HETATM    6  N   UNK N   1      28.877  17.814   3.876  0.00  0.00    -0.363 N 
ATOM      7  HN  UNK N   1      28.777  17.911   2.865  1.00  0.00     0.165 HD
ENDROOT
BRANCH   3   8
HETATM    8  C   UNK N   1      28.070  19.166   7.299  0.00  0.00     0.074 C 
BRANCH   8   9
HETATM    9  C   UNK N   1      28.539  18.589   8.617  0.00  0.00     0.169 C 
BRANCH   9  10
HETATM   10  O   UNK N   1      27.430  18.174   9.349  0.00  0.00    -0.401 OA
HETATM   11  H   UNK N   1      27.186  17.236   9.370  0.00  0.00     0.209 HD
ENDBRANCH   9  10
ENDBRANCH   8   9
ENDBRANCH   3   8
TORSDOF 3
ENDMDL
MODEL 8
REMARK VINA RESULT:      -3.6     13.743     14.388
REMARK  3 active torsions:
REMARK  status: ('A' for Active; 'I' for Inactive)
REMARK    1  A    between atoms: C_3  and  C_4 
REMARK    2  A    between atoms: C_4  and  C_5 
REMARK    3  A    between atoms: C_5  and  O_6 
ROOT
HETATM    1  C   UNK N   1      37.339  15.360  15.697  0.00  0.00     0.069 C 
HETATM    2  C   UNK N   1      36.607  14.594  14.652  0.00  0.00     0.018 A 
HETATM    3  C   UNK N   1      35.963  13.381  14.902  0.00  0.00     0.008 A 
HETATM    4  S   UNK N   1      35.300  12.917  13.459  0.00  0.00    -0.087 SA
HETATM    5  C   UNK N   1      35.808  14.203  12.545  0.00  0.00     0.138 A 
HETATM    6  N   UNK N   1      36.517  15.041  13.350  0.00  0.00    -0.363 N 
ATOM      7  HN  UNK N   1      36.939  15.911  13.024  1.00  0.00     0.165 HD
ENDROOT
BRANCH   3   8
HETATM    8  C   UNK N   1      35.908  12.678  16.221  0.00  0.00     0.074 C 
BRANCH   8   9
HETATM    9  C   UNK N   1      34.761  13.153  17.087  0.00  0.00     0.169 C 
BRANCH   9  10
HETATM   10  O   UNK N   1      35.275  13.865  18.167  0.00  0.00    -0.401 OA
HETATM   11  H   UNK N   1      36.226  13.843  18.354  0.00  0.00     0.209 HD
ENDBRANCH   9  10
ENDBRANCH   8   9
ENDBRANCH   3   8
TORSDOF 3
ENDMDL
MODEL 9
REMARK VINA RESULT:      -3.6     12.775     13.570
REMARK  3 active torsions:
REMARK  status: ('A' for Active; 'I' for Inactive)
REMARK    1  A    between atoms: C_3  and  C_4 
REMARK    2  A    between atoms: C_4  and  C_5 
REMARK    3  A    between atoms: C_5  and  O_6 
ROOT
HETATM    1  C   UNK N   1      33.706  10.782  14.606  0.00  0.00     0.069 C 
HETATM    2  C   UNK N   1      34.551  11.920  14.152  0.00  0.00     0.018 A 
HETATM    3  C   UNK N   1      35.401  12.628  15.003  0.00  0.00     0.008 A 
HETATM    4  S   UNK N   1      36.122  13.783  14.062  0.00  0.00    -0.087 SA
HETATM    5  C   UNK N   1      35.386  13.404  12.626  0.00  0.00     0.138 A 
HETATM    6  N   UNK N   1      34.548  12.354  12.843  0.00  0.00    -0.363 N 
ATOM      7  HN  UNK N   1      33.976  11.931  12.112  1.00  0.00     0.165 HD
ENDROOT
BRANCH   3   8
HETATM    8  C   UNK N   1      35.594  12.364  16.463  0.00  0.00     0.074 C 
BRANCH   8   9
HETATM    9  C   UNK N   1      34.902  13.388  17.336  0.00  0.00     0.169 C 
BRANCH   9  10
HETATM   10  O   UNK N   1      35.254  13.163  18.664  0.00  0.00    -0.401 OA
HETATM   11  H   UNK N   1      34.680  12.629  19.234  0.00  0.00     0.209 HD
ENDBRANCH   9  10
ENDBRANCH   8   9
ENDBRANCH   3   8
TORSDOF 3
ENDMDL
