REMARK  9 active torsions:
REMARK  status: ('A' for Active; 'I' for Inactive)
REMARK    1  A    between atoms: C_2  and  C_4 
REMARK    2  A    between atoms: C_4  and  O_5 
REMARK    3  A    between atoms: C_4  and  C_6 
REMARK    4  A    between atoms: C_6  and  O_7 
REMARK    5  A    between atoms: C_6  and  C_8 
REMARK    6  A    between atoms: C_8  and  O_9 
REMARK    7  A    between atoms: O_9  and  P_10 
REMARK    8  A    between atoms: P_10  and  O_11 
REMARK    9  A    between atoms: P_10  and  O_12 
ROOT
HETATM    1  C   UNK N   1       2.898  -2.601   0.234  0.00  0.00     0.178 C 
ENDROOT
BRANCH   1   2
HETATM    2  C   UNK N   1       1.920  -1.421   0.350  0.00  0.00     0.217 C 
BRANCH   2   3
HETATM    3  C   UNK N   1       0.481  -1.794   0.115  0.00  0.00     0.154 C 
HETATM    4  C   UNK N   1      -0.577  -0.754   0.262  0.00  0.00     0.093 C 
HETATM    5  O   UNK N   1       0.165  -2.935  -0.185  0.00  0.00    -0.295 OA
ENDBRANCH   2   3
BRANCH   2   6
HETATM    6  O   UNK N   1       2.280  -0.397  -0.531  0.00  0.00    -0.385 OA
HETATM    7  H   UNK N   1       3.020  -0.258  -1.142  0.00  0.00     0.210 HD
ENDBRANCH   2   6
ENDBRANCH   1   2
BRANCH   1   8
HETATM    8  O   UNK N   1       2.961  -3.074  -1.080  0.00  0.00    -0.390 OA
HETATM    9  H   UNK N   1       2.699  -3.275  -1.992  0.00  0.00     0.210 HD
ENDBRANCH   1   8
BRANCH   1  10
HETATM   10  C   UNK N   1       4.294  -2.225   0.728  0.00  0.00     0.215 C 
BRANCH  10  11
HETATM   11  O   UNK N   1       4.808  -1.166  -0.026  0.00  0.00    -0.294 OA
BRANCH  11  12
HETATM   12  P   UNK N   1       6.530  -1.187   0.203  0.00  0.00     0.390 P 
HETATM   13  O   UNK N   1       6.844  -0.423   1.517  0.00  0.00    -0.632 OA
BRANCH  12  14
HETATM   14  O   UNK N   1       7.314  -0.324  -1.083  0.00  0.00    -0.307 OA
HETATM   15  H   UNK N   1       7.951  -0.462  -1.801  0.00  0.00     0.222 HD
ENDBRANCH  12  14
BRANCH  12  16
HETATM   16  O   UNK N   1       7.175  -2.793   0.349  0.00  0.00    -0.307 OA
HETATM   17  H   UNK N   1       6.578  -3.553   0.431  0.00  0.00     0.222 HD
ENDBRANCH  12  16
ENDBRANCH  11  12
ENDBRANCH  10  11
ENDBRANCH   1  10
TORSDOF 9
