REMARK  13 active torsions:
REMARK  status: ('A' for Active; 'I' for Inactive)
REMARK    1  A    between atoms: O_2  and  C_3 
REMARK    2  A    between atoms: C_5  and  C_6 
REMARK    3  A    between atoms: C_6  and  C_7 
REMARK       I    between atoms: C_10  and  N_11 
REMARK    4  A    between atoms: C_14  and  N_15 
REMARK    5  A    between atoms: C_17  and  O_18 
REMARK    6  A    between atoms: O_18  and  C_19 
REMARK    7  A    between atoms: C_19  and  C_20 
REMARK    8  A    between atoms: C_20  and  C_21 
REMARK    9  A    between atoms: C_21  and  C_22 
REMARK   10  A    between atoms: C_22  and  C_23 
REMARK   11  A    between atoms: C_22  and  C_28 
REMARK   12  A    between atoms: C_23  and  C_24 
REMARK   13  A    between atoms: C_24  and  C_25 
ROOT
HETATM    1  C   UNK N   1      -3.831  -6.154  -0.127  0.00  0.00     0.088 A 
HETATM    2  C   UNK N   1      -4.923  -5.333  -0.393  0.00  0.00     0.045 A 
HETATM    3  C   UNK N   1      -4.810  -3.940  -0.461  0.00  0.00    -0.048 A 
HETATM    4  C   UNK N   1      -3.566  -3.348  -0.238  0.00  0.00     0.045 A 
HETATM    5  C   UNK N   1      -2.445  -4.151   0.031  0.00  0.00     0.089 A 
HETATM    6  C   UNK N   1      -2.561  -5.550   0.077  0.00  0.00     0.077 A 
HETATM    7 Br   UNK N   1      -0.943  -6.538   0.451  0.00  0.00    -0.045 Br
ENDROOT
BRANCH   3   8
HETATM    8  C   UNK N   1      -6.005  -3.075  -0.783  0.00  0.00     0.082 C 
BRANCH   8   9
HETATM    9  C   UNK N   1      -7.327  -3.771  -0.577  0.00  0.00     0.006 A 
HETATM   10  C   UNK N   1      -7.668  -4.902  -1.326  0.00  0.00     0.117 A 
HETATM   11  N   UNK N   1      -8.833  -5.556  -1.080  0.00  0.00    -0.202 N 
HETATM   12  C   UNK N   1      -9.683  -5.119  -0.117  0.00  0.00     0.677 A 
HETATM   13  H   UNK N   1      -9.062  -6.356  -1.607  0.00  0.00     0.183 HD
HETATM   14  N   UNK N   1     -10.873  -5.827   0.142  0.00  0.00    -0.234 N 
HETATM   15  N   UNK N   1      -9.387  -4.006   0.604  0.00  0.00    -0.177 N 
HETATM   16  H   UNK N   1     -11.718  -5.355   0.323  0.00  0.00     0.174 HD
HETATM   17  H   UNK N   1     -10.861  -6.812   0.142  0.00  0.00     0.174 HD
HETATM   18  C   UNK N   1      -8.230  -3.322   0.392  0.00  0.00     0.122 A 
ATOM     19  HN  UNK N   1     -10.042  -3.679   1.314  1.00  0.00     0.185 HD
BRANCH  18  20
HETATM   20  N   UNK N   1      -7.945  -2.178   1.166  0.00  0.00    -0.385 N 
HETATM   21  H   UNK N   1      -7.154  -1.951   1.706  0.00  0.00     0.157 HD
HETATM   22  H   UNK N   1      -8.654  -1.495   1.166  0.00  0.00     0.157 HD
ENDBRANCH  18  20
ENDBRANCH   8   9
ENDBRANCH   3   8
BRANCH   1  23
HETATM   23  O   UNK N   1      -4.074  -7.491  -0.080  0.00  0.00    -0.354 OA
HETATM   24  C   UNK N   1      -3.172  -8.488   0.196  0.00  0.00     0.210 C 
ENDBRANCH   1  23
BRANCH   5  25
HETATM   25  O   UNK N   1      -1.230  -3.615   0.246  0.00  0.00    -0.350 OA
BRANCH  25  26
HETATM   26  C   UNK N   1      -0.970  -2.360   0.739  0.00  0.00     0.175 C 
BRANCH  26  27
HETATM   27  C   UNK N   1       0.221  -2.463   1.699  0.00  0.00     0.028 C 
BRANCH  27  28
HETATM   28  C   UNK N   1       1.220  -3.541   1.239  0.00  0.00     0.017 C 
BRANCH  28  29
HETATM   29  C   UNK N   1       2.220  -3.126   0.147  0.00  0.00     0.087 C 
BRANCH  29  30
HETATM   30  C   UNK N   1       2.519  -4.320  -0.756  0.00  0.00     0.026 C 
BRANCH  30  31
HETATM   31  C   UNK N   1       3.467  -5.313  -0.108  0.00  0.00     0.114 C 
BRANCH  31  32
HETATM   32  C   UNK N   1       4.880  -4.880  -0.323  0.00  0.00     0.172 C 
HETATM   33  O   UNK N   1       5.322  -3.723   0.205  0.00  0.00    -0.648 OA
HETATM   34  O   UNK N   1       5.636  -5.577  -0.980  0.00  0.00    -0.648 OA
ENDBRANCH  31  32
ENDBRANCH  30  31
ENDBRANCH  29  30
BRANCH  29  35
HETATM   35  C   UNK N   1       1.796  -1.966  -0.707  0.00  0.00     0.177 C 
HETATM   36  O   UNK N   1       2.491  -0.817  -0.651  0.00  0.00    -0.648 OA
HETATM   37  O   UNK N   1       0.842  -2.062  -1.464  0.00  0.00    -0.648 OA
ENDBRANCH  29  35
ENDBRANCH  28  29
ENDBRANCH  27  28
ENDBRANCH  26  27
ENDBRANCH  25  26
ENDBRANCH   5  25
TORSDOF 13
