MODEL 1
REMARK VINA RESULT:      -6.3      0.000      0.000
REMARK  8 active torsions:
REMARK  status: ('A' for Active; 'I' for Inactive)
REMARK       I    between atoms: C_2  and  N_4 
REMARK    1  A    between atoms: C_5  and  N_4 
REMARK    2  A    between atoms: C_5  and  C_6 
REMARK    3  A    between atoms: C_5  and  C_16 
REMARK    4  A    between atoms: C_6  and  C_7 
REMARK    5  A    between atoms: C_11  and  O_12 
REMARK       I    between atoms: C_16  and  N_18 
REMARK    6  A    between atoms: N_18  and  C_19 
REMARK    7  A    between atoms: C_19  and  C_20 
REMARK    8  A    between atoms: C_20  and  O_21 
ROOT
HETATM    1  C   UNK N   1      24.705  19.324   3.757  0.00  0.00     0.180 C 
ENDROOT
BRANCH   1   2
HETATM    2  N   UNK N   1      23.963  18.587   4.758  0.00  0.00    -0.348 N 
HETATM    3  C   UNK N   1      23.851  17.240   4.744  0.00  0.00     0.214 C 
HETATM    4  C   UNK N   1      23.056  16.560   5.804  0.00  0.00     0.117 C 
HETATM    5  O   UNK N   1      24.387  16.577   3.869  0.00  0.00    -0.274 OA
HETATM    6  H   UNK N   1      23.520  19.089   5.481  0.00  0.00     0.163 HD
ENDBRANCH   1   2
BRANCH   1   7
HETATM    7  C   UNK N   1      25.837  20.085   4.445  0.00  0.00     0.073 C 
BRANCH   7   8
HETATM    8  C   UNK N   1      26.911  19.158   4.931  0.00  0.00    -0.053 A 
HETATM    9  C   UNK N   1      27.304  19.159   6.276  0.00  0.00     0.028 A 
HETATM   10  C   UNK N   1      28.292  18.283   6.728  0.00  0.00     0.041 A 
HETATM   11  I   UNK N   1      28.805  18.302   8.775  0.00  0.00    -0.042 I 
HETATM   12  C   UNK N   1      28.914  17.409   5.827  0.00  0.00     0.098 A 
HETATM   13  C   UNK N   1      28.537  17.415   4.474  0.00  0.00     0.041 A 
HETATM   14  I   UNK N   1      29.465  16.126   3.084  0.00  0.00    -0.042 I 
HETATM   15  C   UNK N   1      27.532  18.284   4.034  0.00  0.00     0.028 A 
BRANCH  12  16
HETATM   16  O   UNK N   1      29.872  16.567   6.257  0.00  0.00    -0.358 OA
HETATM   17  H   UNK N   1      30.181  16.594   7.141  0.00  0.00     0.217 HD
ENDBRANCH  12  16
ENDBRANCH   7   8
ENDBRANCH   1   7
BRANCH   1  18
HETATM   18  C   UNK N   1      23.774  20.249   3.018  0.00  0.00     0.241 C 
HETATM   19  O   UNK N   1      24.229  21.138   2.314  0.00  0.00    -0.271 OA
HETATM   20  N   UNK N   1      22.436  20.046   3.096  0.00  0.00    -0.349 N 
HETATM   21  H   UNK N   1      22.106  19.317   3.669  0.00  0.00     0.163 HD
BRANCH  20  22
HETATM   22  C   UNK N   1      21.470  20.842   2.381  0.00  0.00     0.232 C 
BRANCH  22  23
HETATM   23  C   UNK N   1      20.851  20.033   1.276  0.00  0.00     0.158 C 
HETATM   24  O   UNK N   1      20.522  18.871   1.459  0.00  0.00    -0.649 OA
BRANCH  23  25
HETATM   25  O   UNK N   1      20.671  20.592   0.065  0.00  0.00    -0.775 OA
HETATM   26  H   UNK N   1      19.988  20.283  -0.498  0.00  0.00     0.167 HD
ENDBRANCH  23  25
ENDBRANCH  22  23
ENDBRANCH  20  22
ENDBRANCH   1  18
TORSDOF 8
ENDMDL
MODEL 2
REMARK VINA RESULT:      -6.3      5.863      8.972
REMARK  8 active torsions:
REMARK  status: ('A' for Active; 'I' for Inactive)
REMARK       I    between atoms: C_2  and  N_4 
REMARK    1  A    between atoms: C_5  and  N_4 
REMARK    2  A    between atoms: C_5  and  C_6 
REMARK    3  A    between atoms: C_5  and  C_16 
REMARK    4  A    between atoms: C_6  and  C_7 
REMARK    5  A    between atoms: C_11  and  O_12 
REMARK       I    between atoms: C_16  and  N_18 
REMARK    6  A    between atoms: N_18  and  C_19 
REMARK    7  A    between atoms: C_19  and  C_20 
REMARK    8  A    between atoms: C_20  and  O_21 
ROOT
HETATM    1  C   UNK N   1      20.970  14.565   9.039  0.00  0.00     0.180 C 
ENDROOT
BRANCH   1   2
HETATM    2  N   UNK N   1      19.671  15.200   9.111  0.00  0.00    -0.348 N 
HETATM    3  C   UNK N   1      19.503  16.539   9.027  0.00  0.00     0.214 C 
HETATM    4  C   UNK N   1      18.133  17.112   9.125  0.00  0.00     0.117 C 
HETATM    5  O   UNK N   1      20.463  17.280   8.880  0.00  0.00    -0.274 OA
HETATM    6  H   UNK N   1      18.874  14.632   9.225  0.00  0.00     0.163 HD
ENDBRANCH   1   2
BRANCH   1   7
HETATM    7  C   UNK N   1      21.176  14.025   7.624  0.00  0.00     0.073 C 
BRANCH   7   8
HETATM    8  C   UNK N   1      22.048  14.933   6.807  0.00  0.00    -0.053 A 
HETATM    9  C   UNK N   1      21.484  15.887   5.950  0.00  0.00     0.028 A 
HETATM   10  C   UNK N   1      22.297  16.741   5.205  0.00  0.00     0.041 A 
HETATM   11  I   UNK N   1      21.386  18.186   3.966  0.00  0.00    -0.042 I 
HETATM   12  C   UNK N   1      23.692  16.632   5.296  0.00  0.00     0.098 A 
HETATM   13  C   UNK N   1      24.263  15.667   6.142  0.00  0.00     0.041 A 
HETATM   14  I   UNK N   1      26.358  15.460   6.291  0.00  0.00    -0.042 I 
HETATM   15  C   UNK N   1      23.439  14.827   6.899  0.00  0.00     0.028 A 
BRANCH  12  16
HETATM   16  O   UNK N   1      24.480  17.450   4.575  0.00  0.00    -0.358 OA
HETATM   17  H   UNK N   1      25.267  17.810   4.935  0.00  0.00     0.217 HD
ENDBRANCH  12  16
ENDBRANCH   7   8
ENDBRANCH   1   7
BRANCH   1  18
HETATM   18  C   UNK N   1      21.057  13.474  10.073  0.00  0.00     0.241 C 
HETATM   19  O   UNK N   1      20.035  12.995  10.542  0.00  0.00    -0.271 OA
HETATM   20  N   UNK N   1      22.272  12.992  10.430  0.00  0.00    -0.349 N 
HETATM   21  H   UNK N   1      23.073  13.399  10.027  0.00  0.00     0.163 HD
BRANCH  20  22
HETATM   22  C   UNK N   1      22.454  11.912  11.367  0.00  0.00     0.232 C 
BRANCH  22  23
HETATM   23  C   UNK N   1      23.698  12.137  12.180  0.00  0.00     0.158 C 
HETATM   24  O   UNK N   1      23.661  12.114  13.401  0.00  0.00    -0.649 OA
BRANCH  23  25
HETATM   25  O   UNK N   1      24.864  12.383  11.555  0.00  0.00    -0.775 OA
HETATM   26  H   UNK N   1      25.015  13.215  11.152  0.00  0.00     0.167 HD
ENDBRANCH  23  25
ENDBRANCH  22  23
ENDBRANCH  20  22
ENDBRANCH   1  18
TORSDOF 8
ENDMDL
MODEL 3
REMARK VINA RESULT:      -6.3      0.101      2.119
REMARK  8 active torsions:
REMARK  status: ('A' for Active; 'I' for Inactive)
REMARK       I    between atoms: C_2  and  N_4 
REMARK    1  A    between atoms: C_5  and  N_4 
REMARK    2  A    between atoms: C_5  and  C_6 
REMARK    3  A    between atoms: C_5  and  C_16 
REMARK    4  A    between atoms: C_6  and  C_7 
REMARK    5  A    between atoms: C_11  and  O_12 
REMARK       I    between atoms: C_16  and  N_18 
REMARK    6  A    between atoms: N_18  and  C_19 
REMARK    7  A    between atoms: C_19  and  C_20 
REMARK    8  A    between atoms: C_20  and  O_21 
ROOT
HETATM    1  C   UNK N   1      24.793  19.311   3.717  0.00  0.00     0.180 C 
ENDROOT
BRANCH   1   2
HETATM    2  N   UNK N   1      24.086  18.551   4.726  0.00  0.00    -0.348 N 
HETATM    3  C   UNK N   1      23.969  17.205   4.682  0.00  0.00     0.214 C 
HETATM    4  C   UNK N   1      23.210  16.501   5.752  0.00  0.00     0.117 C 
HETATM    5  O   UNK N   1      24.470  16.563   3.771  0.00  0.00    -0.274 OA
HETATM    6  H   UNK N   1      23.671  19.035   5.477  0.00  0.00     0.163 HD
ENDBRANCH   1   2
BRANCH   1   7
HETATM    7  C   UNK N   1      25.941  20.067   4.386  0.00  0.00     0.073 C 
BRANCH   7   8
HETATM    8  C   UNK N   1      26.998  19.132   4.893  0.00  0.00    -0.053 A 
HETATM    9  C   UNK N   1      27.654  18.253   4.023  0.00  0.00     0.028 A 
HETATM   10  C   UNK N   1      28.649  17.396   4.495  0.00  0.00     0.041 A 
HETATM   11  I   UNK N   1      29.631  16.127   3.124  0.00  0.00    -0.042 I 
HETATM   12  C   UNK N   1      28.982  17.397   5.857  0.00  0.00     0.098 A 
HETATM   13  C   UNK N   1      28.316  18.265   6.737  0.00  0.00     0.041 A 
HETATM   14  I   UNK N   1      28.775  18.282   8.797  0.00  0.00    -0.042 I 
HETATM   15  C   UNK N   1      27.332  19.134   6.251  0.00  0.00     0.028 A 
BRANCH  12  16
HETATM   16  O   UNK N   1      29.936  16.568   6.318  0.00  0.00    -0.358 OA
HETATM   17  H   UNK N   1      30.841  16.810   6.299  0.00  0.00     0.217 HD
ENDBRANCH  12  16
ENDBRANCH   7   8
ENDBRANCH   1   7
BRANCH   1  18
HETATM   18  C   UNK N   1      23.836  20.243   3.023  0.00  0.00     0.241 C 
HETATM   19  O   UNK N   1      24.264  21.167   2.348  0.00  0.00    -0.271 OA
HETATM   20  N   UNK N   1      22.503  20.009   3.107  0.00  0.00    -0.349 N 
HETATM   21  H   UNK N   1      22.195  19.253   3.657  0.00  0.00     0.163 HD
BRANCH  20  22
HETATM   22  C   UNK N   1      21.512  20.811   2.432  0.00  0.00     0.232 C 
BRANCH  22  23
HETATM   23  C   UNK N   1      20.865  20.015   1.335  0.00  0.00     0.158 C 
HETATM   24  O   UNK N   1      20.490  18.868   1.529  0.00  0.00    -0.649 OA
BRANCH  23  25
HETATM   25  O   UNK N   1      20.708  20.567   0.118  0.00  0.00    -0.775 OA
HETATM   26  H   UNK N   1      21.425  20.586  -0.486  0.00  0.00     0.167 HD
ENDBRANCH  23  25
ENDBRANCH  22  23
ENDBRANCH  20  22
ENDBRANCH   1  18
TORSDOF 8
ENDMDL
MODEL 4
REMARK VINA RESULT:      -6.2      5.816      8.891
REMARK  8 active torsions:
REMARK  status: ('A' for Active; 'I' for Inactive)
REMARK       I    between atoms: C_2  and  N_4 
REMARK    1  A    between atoms: C_5  and  N_4 
REMARK    2  A    between atoms: C_5  and  C_6 
REMARK    3  A    between atoms: C_5  and  C_16 
REMARK    4  A    between atoms: C_6  and  C_7 
REMARK    5  A    between atoms: C_11  and  O_12 
REMARK       I    between atoms: C_16  and  N_18 
REMARK    6  A    between atoms: N_18  and  C_19 
REMARK    7  A    between atoms: C_19  and  C_20 
REMARK    8  A    between atoms: C_20  and  O_21 
ROOT
HETATM    1  C   UNK N   1      20.919  14.696   8.994  0.00  0.00     0.180 C 
ENDROOT
BRANCH   1   2
HETATM    2  N   UNK N   1      19.621  15.332   9.077  0.00  0.00    -0.348 N 
HETATM    3  C   UNK N   1      19.455  16.672   9.021  0.00  0.00     0.214 C 
HETATM    4  C   UNK N   1      18.086  17.246   9.129  0.00  0.00     0.117 C 
HETATM    5  O   UNK N   1      20.417  17.415   8.893  0.00  0.00    -0.274 OA
HETATM    6  H   UNK N   1      18.823  14.763   9.177  0.00  0.00     0.163 HD
ENDBRANCH   1   2
BRANCH   1   7
HETATM    7  C   UNK N   1      21.126  14.183   7.569  0.00  0.00     0.073 C 
BRANCH   7   8
HETATM    8  C   UNK N   1      22.049  15.072   6.790  0.00  0.00    -0.053 A 
HETATM    9  C   UNK N   1      23.436  14.884   6.839  0.00  0.00     0.028 A 
HETATM   10  C   UNK N   1      24.290  15.702   6.100  0.00  0.00     0.041 A 
HETATM   11  I   UNK N   1      26.367  15.338   6.182  0.00  0.00    -0.042 I 
HETATM   12  C   UNK N   1      23.761  16.736   5.315  0.00  0.00     0.098 A 
HETATM   13  C   UNK N   1      22.372  16.940   5.275  0.00  0.00     0.041 A 
HETATM   14  I   UNK N   1      21.538  18.499   4.122  0.00  0.00    -0.042 I 
HETATM   15  C   UNK N   1      21.521  16.102   6.006  0.00  0.00     0.028 A 
BRANCH  12  16
HETATM   16  O   UNK N   1      24.581  17.532   4.606  0.00  0.00    -0.358 OA
HETATM   17  H   UNK N   1      24.527  17.577   3.671  0.00  0.00     0.217 HD
ENDBRANCH  12  16
ENDBRANCH   7   8
ENDBRANCH   1   7
BRANCH   1  18
HETATM   18  C   UNK N   1      21.003  13.587  10.008  0.00  0.00     0.241 C 
HETATM   19  O   UNK N   1      19.981  13.101  10.468  0.00  0.00    -0.271 OA
HETATM   20  N   UNK N   1      22.218  13.096  10.356  0.00  0.00    -0.349 N 
HETATM   21  H   UNK N   1      23.020  13.509   9.961  0.00  0.00     0.163 HD
BRANCH  20  22
HETATM   22  C   UNK N   1      22.397  11.998  11.274  0.00  0.00     0.232 C 
BRANCH  22  23
HETATM   23  C   UNK N   1      23.705  12.141  12.000  0.00  0.00     0.158 C 
HETATM   24  O   UNK N   1      24.767  12.057  11.401  0.00  0.00    -0.649 OA
BRANCH  23  25
HETATM   25  O   UNK N   1      23.707  12.349  13.329  0.00  0.00    -0.775 OA
HETATM   26  H   UNK N   1      24.093  11.717  13.904  0.00  0.00     0.167 HD
ENDBRANCH  23  25
ENDBRANCH  22  23
ENDBRANCH  20  22
ENDBRANCH   1  18
TORSDOF 8
ENDMDL
MODEL 5
REMARK VINA RESULT:      -6.1      2.823      4.231
REMARK  8 active torsions:
REMARK  status: ('A' for Active; 'I' for Inactive)
REMARK       I    between atoms: C_2  and  N_4 
REMARK    1  A    between atoms: C_5  and  N_4 
REMARK    2  A    between atoms: C_5  and  C_6 
REMARK    3  A    between atoms: C_5  and  C_16 
REMARK    4  A    between atoms: C_6  and  C_7 
REMARK    5  A    between atoms: C_11  and  O_12 
REMARK       I    between atoms: C_16  and  N_18 
REMARK    6  A    between atoms: N_18  and  C_19 
REMARK    7  A    between atoms: C_19  and  C_20 
REMARK    8  A    between atoms: C_20  and  O_21 
ROOT
HETATM    1  C   UNK N   1      22.472  18.522   4.353  0.00  0.00     0.180 C 
ENDROOT
BRANCH   1   2
HETATM    2  N   UNK N   1      21.646  19.018   3.273  0.00  0.00    -0.348 N 
HETATM    3  C   UNK N   1      21.865  20.208   2.668  0.00  0.00     0.214 C 
HETATM    4  C   UNK N   1      20.958  20.651   1.574  0.00  0.00     0.117 C 
HETATM    5  O   UNK N   1      22.792  20.924   3.016  0.00  0.00    -0.274 OA
HETATM    6  H   UNK N   1      20.891  18.465   2.964  0.00  0.00     0.163 HD
ENDBRANCH   1   2
BRANCH   1   7
HETATM    7  C   UNK N   1      23.428  17.468   3.797  0.00  0.00     0.073 C 
BRANCH   7   8
HETATM    8  C   UNK N   1      24.861  17.835   4.046  0.00  0.00    -0.053 A 
HETATM    9  C   UNK N   1      25.191  19.016   4.722  0.00  0.00     0.028 A 
HETATM   10  C   UNK N   1      26.524  19.346   4.966  0.00  0.00     0.041 A 
HETATM   11  I   UNK N   1      26.954  21.118   6.030  0.00  0.00    -0.042 I 
HETATM   12  C   UNK N   1      27.547  18.501   4.514  0.00  0.00     0.098 A 
HETATM   13  C   UNK N   1      27.223  17.323   3.821  0.00  0.00     0.041 A 
HETATM   14  I   UNK N   1      28.734  16.035   3.106  0.00  0.00    -0.042 I 
HETATM   15  C   UNK N   1      25.881  16.991   3.596  0.00  0.00     0.028 A 
BRANCH  12  16
HETATM   16  O   UNK N   1      28.834  18.818   4.741  0.00  0.00    -0.358 OA
HETATM   17  H   UNK N   1      29.231  18.672   5.577  0.00  0.00     0.217 HD
ENDBRANCH  12  16
ENDBRANCH   7   8
ENDBRANCH   1   7
BRANCH   1  18
HETATM   18  C   UNK N   1      21.596  17.966   5.444  0.00  0.00     0.241 C 
HETATM   19  O   UNK N   1      21.567  18.507   6.539  0.00  0.00    -0.271 OA
HETATM   20  N   UNK N   1      20.799  16.902   5.178  0.00  0.00    -0.349 N 
HETATM   21  H   UNK N   1      20.846  16.495   4.283  0.00  0.00     0.163 HD
BRANCH  20  22
HETATM   22  C   UNK N   1      19.886  16.335   6.139  0.00  0.00     0.232 C 
BRANCH  22  23
HETATM   23  C   UNK N   1      18.652  15.833   5.444  0.00  0.00     0.158 C 
HETATM   24  O   UNK N   1      17.559  15.888   5.989  0.00  0.00    -0.649 OA
BRANCH  23  25
HETATM   25  O   UNK N   1      18.752  15.303   4.211  0.00  0.00    -0.775 OA
HETATM   26  H   UNK N   1      19.374  14.623   4.041  0.00  0.00     0.167 HD
ENDBRANCH  23  25
ENDBRANCH  22  23
ENDBRANCH  20  22
ENDBRANCH   1  18
TORSDOF 8
ENDMDL
MODEL 6
REMARK VINA RESULT:      -6.1      7.121     12.108
REMARK  8 active torsions:
REMARK  status: ('A' for Active; 'I' for Inactive)
REMARK       I    between atoms: C_2  and  N_4 
REMARK    1  A    between atoms: C_5  and  N_4 
REMARK    2  A    between atoms: C_5  and  C_6 
REMARK    3  A    between atoms: C_5  and  C_16 
REMARK    4  A    between atoms: C_6  and  C_7 
REMARK    5  A    between atoms: C_11  and  O_12 
REMARK       I    between atoms: C_16  and  N_18 
REMARK    6  A    between atoms: N_18  and  C_19 
REMARK    7  A    between atoms: C_19  and  C_20 
REMARK    8  A    between atoms: C_20  and  O_21 
ROOT
HETATM    1  C   UNK N   1      33.983  16.002   9.370  0.00  0.00     0.180 C 
ENDROOT
BRANCH   1   2
HETATM    2  N   UNK N   1      34.332  14.872   8.535  0.00  0.00    -0.348 N 
HETATM    3  C   UNK N   1      33.477  13.856   8.280  0.00  0.00     0.214 C 
HETATM    4  C   UNK N   1      33.921  12.724   7.423  0.00  0.00     0.117 C 
HETATM    5  O   UNK N   1      32.350  13.855   8.753  0.00  0.00    -0.274 OA
HETATM    6  H   UNK N   1      35.231  14.842   8.134  0.00  0.00     0.163 HD
ENDBRANCH   1   2
BRANCH   1   7
HETATM    7  C   UNK N   1      33.879  17.249   8.492  0.00  0.00     0.073 C 
BRANCH   7   8
HETATM    8  C   UNK N   1      32.589  17.279   7.726  0.00  0.00    -0.053 A 
HETATM    9  C   UNK N   1      32.573  17.056   6.343  0.00  0.00     0.028 A 
HETATM   10  C   UNK N   1      31.370  17.069   5.636  0.00  0.00     0.041 A 
HETATM   11  I   UNK N   1      31.407  16.680   3.562  0.00  0.00    -0.042 I 
HETATM   12  C   UNK N   1      30.168  17.328   6.309  0.00  0.00     0.098 A 
HETATM   13  C   UNK N   1      30.180  17.569   7.692  0.00  0.00     0.041 A 
HETATM   14  I   UNK N   1      28.393  17.983   8.736  0.00  0.00    -0.042 I 
HETATM   15  C   UNK N   1      31.390  17.536   8.396  0.00  0.00     0.028 A 
BRANCH  12  16
HETATM   16  O   UNK N   1      29.007  17.347   5.630  0.00  0.00    -0.358 OA
HETATM   17  H   UNK N   1      28.250  17.779   5.974  0.00  0.00     0.217 HD
ENDBRANCH  12  16
ENDBRANCH   7   8
ENDBRANCH   1   7
BRANCH   1  18
HETATM   18  C   UNK N   1      35.013  16.165  10.455  0.00  0.00     0.241 C 
HETATM   19  O   UNK N   1      35.635  17.212  10.555  0.00  0.00    -0.271 OA
HETATM   20  N   UNK N   1      35.198  15.164  11.352  0.00  0.00    -0.349 N 
HETATM   21  H   UNK N   1      34.675  14.337  11.243  0.00  0.00     0.163 HD
BRANCH  20  22
HETATM   22  C   UNK N   1      36.118  15.249  12.458  0.00  0.00     0.232 C 
BRANCH  22  23
HETATM   23  C   UNK N   1      35.935  14.073  13.374  0.00  0.00     0.158 C 
HETATM   24  O   UNK N   1      34.846  13.528  13.484  0.00  0.00    -0.649 OA
BRANCH  23  25
HETATM   25  O   UNK N   1      36.978  13.622  14.094  0.00  0.00    -0.775 OA
HETATM   26  H   UNK N   1      37.760  13.338  13.661  0.00  0.00     0.167 HD
ENDBRANCH  23  25
ENDBRANCH  22  23
ENDBRANCH  20  22
ENDBRANCH   1  18
TORSDOF 8
ENDMDL
MODEL 7
REMARK VINA RESULT:      -6.0      2.853      4.974
REMARK  8 active torsions:
REMARK  status: ('A' for Active; 'I' for Inactive)
REMARK       I    between atoms: C_2  and  N_4 
REMARK    1  A    between atoms: C_5  and  N_4 
REMARK    2  A    between atoms: C_5  and  C_6 
REMARK    3  A    between atoms: C_5  and  C_16 
REMARK    4  A    between atoms: C_6  and  C_7 
REMARK    5  A    between atoms: C_11  and  O_12 
REMARK       I    between atoms: C_16  and  N_18 
REMARK    6  A    between atoms: N_18  and  C_19 
REMARK    7  A    between atoms: C_19  and  C_20 
REMARK    8  A    between atoms: C_20  and  O_21 
ROOT
HETATM    1  C   UNK N   1      22.491  18.429   4.822  0.00  0.00     0.180 C 
ENDROOT
BRANCH   1   2
HETATM    2  N   UNK N   1      21.504  18.849   3.850  0.00  0.00    -0.348 N 
HETATM    3  C   UNK N   1      21.675  19.924   3.048  0.00  0.00     0.214 C 
HETATM    4  C   UNK N   1      20.603  20.297   2.086  0.00  0.00     0.117 C 
HETATM    5  O   UNK N   1      22.693  20.595   3.113  0.00  0.00    -0.274 OA
HETATM    6  H   UNK N   1      20.671  18.328   3.769  0.00  0.00     0.163 HD
ENDBRANCH   1   2
BRANCH   1   7
HETATM    7  C   UNK N   1      23.347  17.322   4.208  0.00  0.00     0.073 C 
BRANCH   7   8
HETATM    8  C   UNK N   1      24.809  17.648   4.282  0.00  0.00    -0.053 A 
HETATM    9  C   UNK N   1      25.766  16.766   3.763  0.00  0.00     0.028 A 
HETATM   10  C   UNK N   1      27.124  17.080   3.818  0.00  0.00     0.041 A 
HETATM   11  I   UNK N   1      28.513  15.730   2.980  0.00  0.00    -0.042 I 
HETATM   12  C   UNK N   1      27.540  18.278   4.416  0.00  0.00     0.098 A 
HETATM   13  C   UNK N   1      26.586  19.158   4.951  0.00  0.00     0.041 A 
HETATM   14  I   UNK N   1      27.174  20.962   5.877  0.00  0.00    -0.042 I 
HETATM   15  C   UNK N   1      25.224  18.843   4.876  0.00  0.00     0.028 A 
BRANCH  12  16
HETATM   16  O   UNK N   1      28.849  18.582   4.477  0.00  0.00    -0.358 OA
HETATM   17  H   UNK N   1      29.368  18.655   3.700  0.00  0.00     0.217 HD
ENDBRANCH  12  16
ENDBRANCH   7   8
ENDBRANCH   1   7
BRANCH   1  18
HETATM   18  C   UNK N   1      21.799  17.972   6.079  0.00  0.00     0.241 C 
HETATM   19  O   UNK N   1      21.121  18.759   6.723  0.00  0.00    -0.271 OA
HETATM   20  N   UNK N   1      21.888  16.672   6.451  0.00  0.00    -0.349 N 
HETATM   21  H   UNK N   1      22.440  16.066   5.905  0.00  0.00     0.163 HD
BRANCH  20  22
HETATM   22  C   UNK N   1      21.216  16.128   7.605  0.00  0.00     0.232 C 
BRANCH  22  23
HETATM   23  C   UNK N   1      20.146  15.166   7.173  0.00  0.00     0.158 C 
HETATM   24  O   UNK N   1      20.205  13.984   7.479  0.00  0.00    -0.649 OA
BRANCH  23  25
HETATM   25  O   UNK N   1      19.116  15.608   6.427  0.00  0.00    -0.775 OA
HETATM   26  H   UNK N   1      19.233  15.763   5.510  0.00  0.00     0.167 HD
ENDBRANCH  23  25
ENDBRANCH  22  23
ENDBRANCH  20  22
ENDBRANCH   1  18
TORSDOF 8
ENDMDL
MODEL 8
REMARK VINA RESULT:      -6.0      7.159     11.982
REMARK  8 active torsions:
REMARK  status: ('A' for Active; 'I' for Inactive)
REMARK       I    between atoms: C_2  and  N_4 
REMARK    1  A    between atoms: C_5  and  N_4 
REMARK    2  A    between atoms: C_5  and  C_6 
REMARK    3  A    between atoms: C_5  and  C_16 
REMARK    4  A    between atoms: C_6  and  C_7 
REMARK    5  A    between atoms: C_11  and  O_12 
REMARK       I    between atoms: C_16  and  N_18 
REMARK    6  A    between atoms: N_18  and  C_19 
REMARK    7  A    between atoms: C_19  and  C_20 
REMARK    8  A    between atoms: C_20  and  O_21 
ROOT
HETATM    1  C   UNK N   1      34.361  16.155   8.883  0.00  0.00     0.180 C 
ENDROOT
BRANCH   1   2
HETATM    2  N   UNK N   1      35.159  15.494   7.873  0.00  0.00    -0.348 N 
HETATM    3  C   UNK N   1      35.127  14.157   7.672  0.00  0.00     0.214 C 
HETATM    4  C   UNK N   1      35.992  13.554   6.621  0.00  0.00     0.117 C 
HETATM    5  O   UNK N   1      34.404  13.441   8.348  0.00  0.00    -0.274 OA
HETATM    6  H   UNK N   1      35.751  16.041   7.307  0.00  0.00     0.163 HD
ENDBRANCH   1   2
BRANCH   1   7
HETATM    7  C   UNK N   1      33.916  17.515   8.347  0.00  0.00     0.073 C 
BRANCH   7   8
HETATM    8  C   UNK N   1      32.578  17.433   7.674  0.00  0.00    -0.053 A 
HETATM    9  C   UNK N   1      31.398  17.634   8.402  0.00  0.00     0.028 A 
HETATM   10  C   UNK N   1      30.155  17.573   7.770  0.00  0.00     0.041 A 
HETATM   11  I   UNK N   1      28.417  17.929   8.913  0.00  0.00    -0.042 I 
HETATM   12  C   UNK N   1      30.082  17.289   6.400  0.00  0.00     0.098 A 
HETATM   13  C   UNK N   1      31.261  17.071   5.668  0.00  0.00     0.041 A 
HETATM   14  I   UNK N   1      31.191  16.621   3.607  0.00  0.00    -0.042 I 
HETATM   15  C   UNK N   1      32.504  17.152   6.307  0.00  0.00     0.028 A 
BRANCH  12  16
HETATM   16  O   UNK N   1      28.886  17.224   5.788  0.00  0.00    -0.358 OA
HETATM   17  H   UNK N   1      28.150  16.816   6.201  0.00  0.00     0.217 HD
ENDBRANCH  12  16
ENDBRANCH   7   8
ENDBRANCH   1   7
BRANCH   1  18
HETATM   18  C   UNK N   1      35.161  16.287  10.152  0.00  0.00     0.241 C 
HETATM   19  O   UNK N   1      35.641  17.367  10.462  0.00  0.00    -0.271 OA
HETATM   20  N   UNK N   1      35.291  15.214  10.970  0.00  0.00    -0.349 N 
HETATM   21  H   UNK N   1      34.887  14.361  10.690  0.00  0.00     0.163 HD
BRANCH  20  22
HETATM   22  C   UNK N   1      35.989  15.257  12.231  0.00  0.00     0.232 C 
BRANCH  22  23
HETATM   23  C   UNK N   1      35.598  14.079  13.078  0.00  0.00     0.158 C 
HETATM   24  O   UNK N   1      36.261  13.762  14.055  0.00  0.00    -0.649 OA
BRANCH  23  25
HETATM   25  O   UNK N   1      34.512  13.356  12.749  0.00  0.00    -0.775 OA
HETATM   26  H   UNK N   1      33.852  13.725  12.195  0.00  0.00     0.167 HD
ENDBRANCH  23  25
ENDBRANCH  22  23
ENDBRANCH  20  22
ENDBRANCH   1  18
TORSDOF 8
ENDMDL
MODEL 9
REMARK VINA RESULT:      -6.0     10.714     13.621
REMARK  8 active torsions:
REMARK  status: ('A' for Active; 'I' for Inactive)
REMARK       I    between atoms: C_2  and  N_4 
REMARK    1  A    between atoms: C_5  and  N_4 
REMARK    2  A    between atoms: C_5  and  C_6 
REMARK    3  A    between atoms: C_5  and  C_16 
REMARK    4  A    between atoms: C_6  and  C_7 
REMARK    5  A    between atoms: C_11  and  O_12 
REMARK       I    between atoms: C_16  and  N_18 
REMARK    6  A    between atoms: N_18  and  C_19 
REMARK    7  A    between atoms: C_19  and  C_20 
REMARK    8  A    between atoms: C_20  and  O_21 
ROOT
HETATM    1  C   UNK N   1      35.487  14.901  10.787  0.00  0.00     0.180 C 
ENDROOT
BRANCH   1   2
HETATM    2  N   UNK N   1      36.215  15.034  12.031  0.00  0.00    -0.348 N 
HETATM    3  C   UNK N   1      35.852  14.392  13.165  0.00  0.00     0.214 C 
HETATM    4  C   UNK N   1      36.646  14.596  14.407  0.00  0.00     0.117 C 
HETATM    5  O   UNK N   1      34.877  13.657  13.181  0.00  0.00    -0.274 OA
HETATM    6  H   UNK N   1      37.008  15.616  12.053  0.00  0.00     0.163 HD
ENDBRANCH   1   2
BRANCH   1   7
HETATM    7  C   UNK N   1      36.430  14.336   9.724  0.00  0.00     0.073 C 
BRANCH   7   8
HETATM    8  C   UNK N   1      36.459  12.837   9.750  0.00  0.00    -0.053 A 
HETATM    9  C   UNK N   1      37.632  12.138   9.440  0.00  0.00     0.028 A 
HETATM   10  C   UNK N   1      37.661  10.743   9.482  0.00  0.00     0.041 A 
HETATM   11  I   UNK N   1      39.472   9.751   9.047  0.00  0.00    -0.042 I 
HETATM   12  C   UNK N   1      36.500  10.032   9.817  0.00  0.00     0.098 A 
HETATM   13  C   UNK N   1      35.317  10.727  10.113  0.00  0.00     0.041 A 
HETATM   14  I   UNK N   1      33.544   9.690  10.602  0.00  0.00    -0.042 I 
HETATM   15  C   UNK N   1      35.303  12.126  10.086  0.00  0.00     0.028 A 
BRANCH  12  16
HETATM   16  O   UNK N   1      36.521   8.687   9.852  0.00  0.00    -0.358 OA
HETATM   17  H   UNK N   1      35.734   8.191   9.962  0.00  0.00     0.217 HD
ENDBRANCH  12  16
ENDBRANCH   7   8
ENDBRANCH   1   7
BRANCH   1  18
HETATM   18  C   UNK N   1      34.925  16.238  10.385  0.00  0.00     0.241 C 
HETATM   19  O   UNK N   1      35.326  17.257  10.928  0.00  0.00    -0.271 OA
HETATM   20  N   UNK N   1      34.020  16.304   9.378  0.00  0.00    -0.349 N 
HETATM   21  H   UNK N   1      33.724  15.462   8.961  0.00  0.00     0.163 HD
BRANCH  20  22
HETATM   22  C   UNK N   1      33.468  17.541   8.885  0.00  0.00     0.232 C 
BRANCH  22  23
HETATM   23  C   UNK N   1      34.460  18.227   7.989  0.00  0.00     0.158 C 
HETATM   24  O   UNK N   1      34.548  17.928   6.807  0.00  0.00    -0.649 OA
BRANCH  23  25
HETATM   25  O   UNK N   1      35.271  19.173   8.496  0.00  0.00    -0.775 OA
HETATM   26  H   UNK N   1      35.867  18.959   9.187  0.00  0.00     0.167 HD
ENDBRANCH  23  25
ENDBRANCH  22  23
ENDBRANCH  20  22
ENDBRANCH   1  18
TORSDOF 8
ENDMDL
