MODEL 1
REMARK VINA RESULT:      -3.6      0.000      0.000
REMARK  5 active torsions:
REMARK  status: ('A' for Active; 'I' for Inactive)
REMARK    1  A    between atoms: S_1  and  C_2 
REMARK    2  A    between atoms: C_3  and  C_4 
REMARK    3  A    between atoms: C_4  and  S_5 
REMARK    4  A    between atoms: S_5  and  C_7 
REMARK    5  A    between atoms: C_7  and  C_8 
ROOT
HETATM    1  C   UNK N   1      32.715  17.934   8.192  0.00  0.00     0.136 C 
ENDROOT
BRANCH   1   2
HETATM    2  C   UNK N   1      31.248  17.674   8.270  0.00  0.00    -0.008 C 
HETATM    3  C   UNK N   1      30.470  18.421   9.042  0.00  0.00     0.038 C 
BRANCH   3   4
HETATM    4  S   UNK N   1      28.716  18.077   9.131  0.00  0.00    -0.155 SA
HETATM    5  H   UNK N   1      27.997  17.770   8.018  0.00  0.00     0.106 HD
ENDBRANCH   3   4
ENDBRANCH   1   2
BRANCH   1   6
HETATM    6  S   UNK N   1      33.451  16.822   6.960  0.00  0.00     0.021 S 
HETATM    7  O   UNK N   1      34.374  17.926   6.423  0.00  0.00    -0.258 OA
BRANCH   6   8
HETATM    8  C   UNK N   1      32.179  17.198   5.721  0.00  0.00     0.135 C 
BRANCH   8   9
HETATM    9  C   UNK N   1      32.839  17.631   4.456  0.00  0.00    -0.024 C 
HETATM   10  C   UNK N   1      32.662  16.936   3.338  0.00  0.00     0.008 C 
ENDBRANCH   8   9
ENDBRANCH   6   8
ENDBRANCH   1   6
TORSDOF 5
ENDMDL
MODEL 2
REMARK VINA RESULT:      -3.4     11.610     12.414
REMARK  5 active torsions:
REMARK  status: ('A' for Active; 'I' for Inactive)
REMARK    1  A    between atoms: S_1  and  C_2 
REMARK    2  A    between atoms: C_3  and  C_4 
REMARK    3  A    between atoms: C_4  and  S_5 
REMARK    4  A    between atoms: S_5  and  C_7 
REMARK    5  A    between atoms: C_7  and  C_8 
ROOT
HETATM    1  C   UNK N   1      21.561  14.789   8.549  0.00  0.00     0.136 C 
ENDROOT
BRANCH   1   2
HETATM    2  C   UNK N   1      20.186  15.308   8.808  0.00  0.00    -0.008 C 
HETATM    3  C   UNK N   1      19.937  16.610   8.763  0.00  0.00     0.038 C 
BRANCH   3   4
HETATM    4  S   UNK N   1      18.283  17.208   9.094  0.00  0.00    -0.155 SA
HETATM    5  H   UNK N   1      17.344  17.274   8.113  0.00  0.00     0.106 HD
ENDBRANCH   3   4
ENDBRANCH   1   2
BRANCH   1   6
HETATM    6  S   UNK N   1      21.571  12.989   8.787  0.00  0.00     0.021 S 
HETATM    7  O   UNK N   1      20.368  13.045   9.741  0.00  0.00    -0.258 OA
BRANCH   6   8
HETATM    8  C   UNK N   1      22.746  13.082  10.166  0.00  0.00     0.135 C 
BRANCH   8   9
HETATM    9  C   UNK N   1      22.265  12.216  11.280  0.00  0.00    -0.024 C 
HETATM   10  C   UNK N   1      23.097  11.852  12.250  0.00  0.00     0.008 C 
ENDBRANCH   8   9
ENDBRANCH   6   8
ENDBRANCH   1   6
TORSDOF 5
ENDMDL
MODEL 3
REMARK VINA RESULT:      -3.4      2.796      4.433
REMARK  5 active torsions:
REMARK  status: ('A' for Active; 'I' for Inactive)
REMARK    1  A    between atoms: S_1  and  C_2 
REMARK    2  A    between atoms: C_3  and  C_4 
REMARK    3  A    between atoms: C_4  and  S_5 
REMARK    4  A    between atoms: S_5  and  C_7 
REMARK    5  A    between atoms: C_7  and  C_8 
ROOT
HETATM    1  C   UNK N   1      34.486  17.272   8.908  0.00  0.00     0.136 C 
ENDROOT
BRANCH   1   2
HETATM    2  C   UNK N   1      34.939  16.146   9.775  0.00  0.00    -0.008 C 
HETATM    3  C   UNK N   1      35.328  16.370  11.023  0.00  0.00     0.038 C 
BRANCH   3   4
HETATM    4  S   UNK N   1      35.884  15.004  12.037  0.00  0.00    -0.155 SA
HETATM    5  H   UNK N   1      35.244  13.804  12.022  0.00  0.00     0.106 HD
ENDBRANCH   3   4
ENDBRANCH   1   2
BRANCH   1   6
HETATM    6  S   UNK N   1      34.206  16.650   7.225  0.00  0.00     0.021 S 
HETATM    7  O   UNK N   1      34.429  18.040   6.608  0.00  0.00    -0.258 OA
BRANCH   6   8
HETATM    8  C   UNK N   1      32.413  16.914   7.323  0.00  0.00     0.135 C 
BRANCH   8   9
HETATM    9  C   UNK N   1      32.125  17.945   8.360  0.00  0.00    -0.024 C 
HETATM   10  C   UNK N   1      30.880  18.140   8.781  0.00  0.00     0.008 C 
ENDBRANCH   8   9
ENDBRANCH   6   8
ENDBRANCH   1   6
TORSDOF 5
ENDMDL
MODEL 4
REMARK VINA RESULT:      -3.3      2.043      3.595
REMARK  5 active torsions:
REMARK  status: ('A' for Active; 'I' for Inactive)
REMARK    1  A    between atoms: S_1  and  C_2 
REMARK    2  A    between atoms: C_3  and  C_4 
REMARK    3  A    between atoms: C_4  and  S_5 
REMARK    4  A    between atoms: S_5  and  C_7 
REMARK    5  A    between atoms: C_7  and  C_8 
ROOT
HETATM    1  C   UNK N   1      32.356  17.309   7.563  0.00  0.00     0.136 C 
ENDROOT
BRANCH   1   2
HETATM    2  C   UNK N   1      31.269  17.820   8.448  0.00  0.00    -0.008 C 
HETATM    3  C   UNK N   1      30.010  17.454   8.249  0.00  0.00     0.038 C 
BRANCH   3   4
HETATM    4  S   UNK N   1      28.723  18.095   9.315  0.00  0.00    -0.155 SA
HETATM    5  H   UNK N   1      27.566  17.410   9.520  0.00  0.00     0.106 HD
ENDBRANCH   3   4
ENDBRANCH   1   2
BRANCH   1   6
HETATM    6  S   UNK N   1      33.954  17.921   8.170  0.00  0.00     0.021 S 
HETATM    7  O   UNK N   1      34.527  18.019   6.748  0.00  0.00    -0.258 OA
BRANCH   6   8
HETATM    8  C   UNK N   1      34.620  16.246   8.388  0.00  0.00     0.135 C 
BRANCH   8   9
HETATM    9  C   UNK N   1      34.660  15.920   9.842  0.00  0.00    -0.024 C 
HETATM   10  C   UNK N   1      35.373  16.670  10.676  0.00  0.00     0.008 C 
ENDBRANCH   8   9
ENDBRANCH   6   8
ENDBRANCH   1   6
TORSDOF 5
ENDMDL
MODEL 5
REMARK VINA RESULT:      -3.3     13.088     14.508
REMARK  5 active torsions:
REMARK  status: ('A' for Active; 'I' for Inactive)
REMARK    1  A    between atoms: S_1  and  C_2 
REMARK    2  A    between atoms: C_3  and  C_4 
REMARK    3  A    between atoms: C_4  and  S_5 
REMARK    4  A    between atoms: S_5  and  C_7 
REMARK    5  A    between atoms: C_7  and  C_8 
ROOT
HETATM    1  C   UNK N   1      28.112  24.291  -4.734  0.00  0.00     0.136 C 
ENDROOT
BRANCH   1   2
HETATM    2  C   UNK N   1      29.109  23.790  -3.744  0.00  0.00    -0.008 C 
HETATM    3  C   UNK N   1      29.994  22.864  -4.088  0.00  0.00     0.038 C 
BRANCH   3   4
HETATM    4  S   UNK N   1      31.170  22.268  -2.877  0.00  0.00    -0.155 SA
HETATM    5  H   UNK N   1      30.945  21.126  -2.174  0.00  0.00     0.106 HD
ENDBRANCH   3   4
ENDBRANCH   1   2
BRANCH   1   6
HETATM    6  S   UNK N   1      26.819  25.217  -3.858  0.00  0.00     0.021 S 
HETATM    7  O   UNK N   1      26.433  23.996  -3.009  0.00  0.00    -0.258 OA
BRANCH   6   8
HETATM    8  C   UNK N   1      25.560  24.824  -5.105  0.00  0.00     0.135 C 
BRANCH   8   9
HETATM    9  C   UNK N   1      25.391  25.991  -6.016  0.00  0.00    -0.024 C 
HETATM   10  C   UNK N   1      24.810  27.103  -5.578  0.00  0.00     0.008 C 
ENDBRANCH   8   9
ENDBRANCH   6   8
ENDBRANCH   1   6
TORSDOF 5
ENDMDL
MODEL 6
REMARK VINA RESULT:      -3.3     15.160     16.164
REMARK  5 active torsions:
REMARK  status: ('A' for Active; 'I' for Inactive)
REMARK    1  A    between atoms: S_1  and  C_2 
REMARK    2  A    between atoms: C_3  and  C_4 
REMARK    3  A    between atoms: C_4  and  S_5 
REMARK    4  A    between atoms: S_5  and  C_7 
REMARK    5  A    between atoms: C_7  and  C_8 
ROOT
HETATM    1  C   UNK N   1      25.053  26.441  -5.634  0.00  0.00     0.136 C 
ENDROOT
BRANCH   1   2
HETATM    2  C   UNK N   1      25.736  27.715  -5.263  0.00  0.00    -0.008 C 
HETATM    3  C   UNK N   1      25.696  28.163  -4.015  0.00  0.00     0.038 C 
BRANCH   3   4
HETATM    4  S   UNK N   1      26.509  29.703  -3.600  0.00  0.00    -0.155 SA
HETATM    5  H   UNK N   1      27.802  29.938  -3.950  0.00  0.00     0.106 HD
ENDBRANCH   3   4
ENDBRANCH   1   2
BRANCH   1   6
HETATM    6  S   UNK N   1      26.064  25.560  -6.859  0.00  0.00     0.021 S 
HETATM    7  O   UNK N   1      25.254  24.266  -6.688  0.00  0.00    -0.258 OA
BRANCH   6   8
HETATM    8  C   UNK N   1      27.280  25.035  -5.618  0.00  0.00     0.135 C 
BRANCH   8   9
HETATM    9  C   UNK N   1      26.591  24.243  -4.560  0.00  0.00    -0.024 C 
HETATM   10  C   UNK N   1      27.037  24.268  -3.309  0.00  0.00     0.008 C 
ENDBRANCH   8   9
ENDBRANCH   6   8
ENDBRANCH   1   6
TORSDOF 5
ENDMDL
MODEL 7
REMARK VINA RESULT:      -3.3      9.832     11.518
REMARK  5 active torsions:
REMARK  status: ('A' for Active; 'I' for Inactive)
REMARK    1  A    between atoms: S_1  and  C_2 
REMARK    2  A    between atoms: C_3  and  C_4 
REMARK    3  A    between atoms: C_4  and  S_5 
REMARK    4  A    between atoms: S_5  and  C_7 
REMARK    5  A    between atoms: C_7  and  C_8 
ROOT
HETATM    1  C   UNK N   1      36.568  13.456  15.335  0.00  0.00     0.136 C 
ENDROOT
BRANCH   1   2
HETATM    2  C   UNK N   1      35.944  13.877  14.047  0.00  0.00    -0.008 C 
HETATM    3  C   UNK N   1      36.531  13.598  12.890  0.00  0.00     0.038 C 
BRANCH   3   4
HETATM    4  S   UNK N   1      35.771  14.130  11.360  0.00  0.00    -0.155 SA
HETATM    5  H   UNK N   1      34.438  13.972  11.139  0.00  0.00     0.106 HD
ENDBRANCH   3   4
ENDBRANCH   1   2
BRANCH   1   6
HETATM    6  S   UNK N   1      35.375  12.460  16.274  0.00  0.00     0.021 S 
HETATM    7  O   UNK N   1      34.183  13.044  15.501  0.00  0.00    -0.258 OA
BRANCH   6   8
HETATM    8  C   UNK N   1      35.218  13.709  17.582  0.00  0.00     0.135 C 
BRANCH   8   9
HETATM    9  C   UNK N   1      35.200  13.030  18.909  0.00  0.00    -0.024 C 
HETATM   10  C   UNK N   1      35.387  11.717  18.991  0.00  0.00     0.008 C 
ENDBRANCH   8   9
ENDBRANCH   6   8
ENDBRANCH   1   6
TORSDOF 5
ENDMDL
MODEL 8
REMARK VINA RESULT:      -3.1     11.204     12.263
REMARK  5 active torsions:
REMARK  status: ('A' for Active; 'I' for Inactive)
REMARK    1  A    between atoms: S_1  and  C_2 
REMARK    2  A    between atoms: C_3  and  C_4 
REMARK    3  A    between atoms: C_4  and  S_5 
REMARK    4  A    between atoms: S_5  and  C_7 
REMARK    5  A    between atoms: C_7  and  C_8 
ROOT
HETATM    1  C   UNK N   1      35.966  11.553  16.416  0.00  0.00     0.136 C 
ENDROOT
BRANCH   1   2
HETATM    2  C   UNK N   1      35.634  10.824  17.674  0.00  0.00    -0.008 C 
HETATM    3  C   UNK N   1      35.368  11.490  18.789  0.00  0.00     0.038 C 
BRANCH   3   4
HETATM    4  S   UNK N   1      34.988  10.592  20.290  0.00  0.00    -0.155 SA
HETATM    5  H   UNK N   1      34.312   9.413  20.258  0.00  0.00     0.106 HD
ENDBRANCH   3   4
ENDBRANCH   1   2
BRANCH   1   6
HETATM    6  S   UNK N   1      35.440  13.283  16.575  0.00  0.00     0.021 S 
HETATM    7  O   UNK N   1      34.248  13.074  15.629  0.00  0.00    -0.258 OA
BRANCH   6   8
HETATM    8  C   UNK N   1      36.504  13.832  15.211  0.00  0.00     0.135 C 
BRANCH   8   9
HETATM    9  C   UNK N   1      37.266  15.040  15.638  0.00  0.00    -0.024 C 
HETATM   10  C   UNK N   1      37.090  15.546  16.854  0.00  0.00     0.008 C 
ENDBRANCH   8   9
ENDBRANCH   6   8
ENDBRANCH   1   6
TORSDOF 5
ENDMDL
MODEL 9
REMARK VINA RESULT:      -3.1      8.745     10.632
REMARK  5 active torsions:
REMARK  status: ('A' for Active; 'I' for Inactive)
REMARK    1  A    between atoms: S_1  and  C_2 
REMARK    2  A    between atoms: C_3  and  C_4 
REMARK    3  A    between atoms: C_4  and  S_5 
REMARK    4  A    between atoms: S_5  and  C_7 
REMARK    5  A    between atoms: C_7  and  C_8 
ROOT
HETATM    1  C   UNK N   1      35.427  13.842  13.219  0.00  0.00     0.136 C 
ENDROOT
BRANCH   1   2
HETATM    2  C   UNK N   1      36.440  13.902  12.126  0.00  0.00    -0.008 C 
HETATM    3  C   UNK N   1      37.170  12.837  11.823  0.00  0.00     0.038 C 
BRANCH   3   4
HETATM    4  S   UNK N   1      38.391  12.941  10.518  0.00  0.00    -0.155 SA
HETATM    5  H   UNK N   1      39.270  11.929  10.289  0.00  0.00     0.106 HD
ENDBRANCH   3   4
ENDBRANCH   1   2
BRANCH   1   6
HETATM    6  S   UNK N   1      35.640  12.292  14.141  0.00  0.00     0.021 S 
HETATM    7  O   UNK N   1      34.170  12.282  14.587  0.00  0.00    -0.258 OA
BRANCH   6   8
HETATM    8  C   UNK N   1      36.157  13.151  15.654  0.00  0.00     0.135 C 
BRANCH   8   9
HETATM    9  C   UNK N   1      35.031  13.146  16.630  0.00  0.00    -0.024 C 
HETATM   10  C   UNK N   1      35.182  13.703  17.827  0.00  0.00     0.008 C 
ENDBRANCH   8   9
ENDBRANCH   6   8
ENDBRANCH   1   6
TORSDOF 5
ENDMDL
