MODEL 1
REMARK VINA RESULT:      -7.3      0.000      0.000
REMARK  4 active torsions:
REMARK  status: ('A' for Active; 'I' for Inactive)
REMARK    1  A    between atoms: C_2  and  N_1 
REMARK    2  A    between atoms: C_5  and  O_13 
REMARK    3  A    between atoms: C_15  and  N_21 
REMARK    4  A    between atoms: P_22  and  O_24 
ROOT
HETATM    1  N   UNK N   1      35.646  13.922  12.672  0.00  0.00    -0.297 N 
HETATM    2  C   UNK N   1      35.185  12.794  13.230  0.00  0.00     0.142 A 
HETATM    3  C   UNK N   1      36.340  14.544  13.662  0.00  0.00     0.188 A 
HETATM    4  C   UNK N   1      35.582  12.736  14.517  0.00  0.00     0.122 A 
HETATM    5  N   UNK N   1      34.425  11.830  12.660  0.00  0.00    -0.336 N 
ATOM      6  HN  UNK N   1      34.132  11.899  11.686  1.00  0.00     0.168 HD
HETATM    7  N   UNK N   1      36.314  13.824  14.818  0.00  0.00    -0.346 N 
ATOM      8  HN  UNK N   1      36.750  14.056  15.711  1.00  0.00     0.167 HD
HETATM    9  C   UNK N   1      35.209  11.666  15.314  0.00  0.00     0.131 A 
HETATM   10  C   UNK N   1      34.061  10.758  13.431  0.00  0.00     0.183 A 
HETATM   11  N   UNK N   1      34.448  10.682  14.748  0.00  0.00    -0.337 N 
ATOM     12  HN  UNK N   1      34.164   9.881  15.311  1.00  0.00     0.168 HD
ENDROOT
BRANCH   1  13
HETATM   13  C   UNK N   1      35.396  14.434  11.323  0.00  0.00     0.262 C 
HETATM   14  C   UNK N   1      35.637  15.936  11.164  0.00  0.00     0.199 C 
HETATM   15  C   UNK N   1      34.877  16.054   9.905  0.00  0.00     0.197 C 
HETATM   16  O   UNK N   1      34.555  17.322   9.415  0.00  0.00    -0.286 OA
HETATM   17  C   UNK N   1      33.639  15.364  10.329  0.00  0.00     0.180 C 
HETATM   18  P   UNK N   1      34.146  16.986   7.733  0.00  0.00     0.393 P 
HETATM   19  O   UNK N   1      33.117  18.019   7.203  0.00  0.00    -0.631 OA
HETATM   20  O   UNK N   1      32.651  16.573   8.574  0.00  0.00    -0.294 OA
HETATM   21  C   UNK N   1      32.807  15.257   9.069  0.00  0.00     0.215 C 
HETATM   22  O   UNK N   1      34.070  14.149  10.886  0.00  0.00    -0.353 OA
BRANCH  14  23
HETATM   23  O   UNK N   1      36.984  16.216  10.944  0.00  0.00    -0.388 OA
HETATM   24  H   UNK N   1      37.464  16.939  11.379  0.00  0.00     0.210 HD
ENDBRANCH  14  23
BRANCH  18  25
HETATM   25  O   UNK N   1      34.920  18.532   7.882  0.00  0.00    -0.307 OA
HETATM   26  H   UNK N   1      35.449  18.873   8.621  0.00  0.00     0.222 HD
ENDBRANCH  18  25
ENDBRANCH   1  13
BRANCH   9  27
HETATM   27  N   UNK N   1      35.587  11.593  16.669  0.00  0.00    -0.383 N 
HETATM   28  H   UNK N   1      36.527  11.677  16.946  0.00  0.00     0.157 HD
HETATM   29  H   UNK N   1      34.893  11.454  17.355  0.00  0.00     0.157 HD
ENDBRANCH   9  27
TORSDOF 4
ENDMDL
MODEL 2
REMARK VINA RESULT:      -7.0     15.583     17.224
REMARK  4 active torsions:
REMARK  status: ('A' for Active; 'I' for Inactive)
REMARK    1  A    between atoms: C_2  and  N_1 
REMARK    2  A    between atoms: C_5  and  O_13 
REMARK    3  A    between atoms: C_15  and  N_21 
REMARK    4  A    between atoms: P_22  and  O_24 
ROOT
HETATM    1  N   UNK N   1      20.626  17.637   4.109  0.00  0.00    -0.297 N 
HETATM    2  C   UNK N   1      21.299  18.630   3.511  0.00  0.00     0.142 A 
HETATM    3  C   UNK N   1      19.490  17.492   3.377  0.00  0.00     0.188 A 
HETATM    4  C   UNK N   1      20.591  19.076   2.453  0.00  0.00     0.122 A 
HETATM    5  N   UNK N   1      22.492  19.163   3.863  0.00  0.00    -0.336 N 
ATOM      6  HN  UNK N   1      23.005  18.813   4.672  1.00  0.00     0.168 HD
HETATM    7  N   UNK N   1      19.448  18.376   2.341  0.00  0.00    -0.346 N 
ATOM      8  HN  UNK N   1      18.715  18.485   1.639  1.00  0.00     0.167 HD
HETATM    9  C   UNK N   1      21.075  20.121   1.683  0.00  0.00     0.131 A 
HETATM   10  C   UNK N   1      22.990  20.186   3.102  0.00  0.00     0.183 A 
HETATM   11  N   UNK N   1      22.282  20.662   2.024  0.00  0.00    -0.337 N 
ATOM     12  HN  UNK N   1      22.663  21.429   1.470  1.00  0.00     0.168 HD
ENDROOT
BRANCH   1  13
HETATM   13  C   UNK N   1      20.977  16.914   5.334  0.00  0.00     0.262 C 
HETATM   14  C   UNK N   1      20.625  15.425   5.310  0.00  0.00     0.199 C 
HETATM   15  C   UNK N   1      20.715  15.250   6.772  0.00  0.00     0.197 C 
HETATM   16  O   UNK N   1      20.231  14.075   7.352  0.00  0.00    -0.286 OA
HETATM   17  C   UNK N   1      19.862  16.387   7.183  0.00  0.00     0.180 C 
HETATM   18  P   UNK N   1      20.996  14.094   8.941  0.00  0.00     0.393 P 
HETATM   19  O   UNK N   1      20.115  13.353   9.981  0.00  0.00    -0.631 OA
HETATM   20  O   UNK N   1      19.613  15.166   9.175  0.00  0.00    -0.294 OA
HETATM   21  C   UNK N   1      19.993  16.440   8.691  0.00  0.00     0.215 C 
HETATM   22  O   UNK N   1      20.368  17.495   6.483  0.00  0.00    -0.353 OA
BRANCH  14  23
HETATM   23  O   UNK N   1      21.612  14.678   4.670  0.00  0.00    -0.388 OA
HETATM   24  H   UNK N   1      21.771  14.700   3.713  0.00  0.00     0.210 HD
ENDBRANCH  14  23
BRANCH  18  25
HETATM   25  O   UNK N   1      20.845  12.470   8.349  0.00  0.00    -0.307 OA
HETATM   26  H   UNK N   1      20.549  12.171   7.475  0.00  0.00     0.222 HD
ENDBRANCH  18  25
ENDBRANCH   1  13
BRANCH   9  27
HETATM   27  N   UNK N   1      20.345  20.625   0.588  0.00  0.00    -0.383 N 
HETATM   28  H   UNK N   1      19.745  21.399   0.682  0.00  0.00     0.157 HD
HETATM   29  H   UNK N   1      20.438  20.192  -0.292  0.00  0.00     0.157 HD
ENDBRANCH   9  27
TORSDOF 4
ENDMDL
MODEL 3
REMARK VINA RESULT:      -6.9      5.014      7.727
REMARK  4 active torsions:
REMARK  status: ('A' for Active; 'I' for Inactive)
REMARK    1  A    between atoms: C_2  and  N_1 
REMARK    2  A    between atoms: C_5  and  O_13 
REMARK    3  A    between atoms: C_15  and  N_21 
REMARK    4  A    between atoms: P_22  and  O_24 
ROOT
HETATM    1  N   UNK N   1      31.492  16.284   7.747  0.00  0.00    -0.297 N 
HETATM    2  C   UNK N   1      30.594  17.133   8.265  0.00  0.00     0.142 A 
HETATM    3  C   UNK N   1      30.992  15.945   6.529  0.00  0.00     0.188 A 
HETATM    4  C   UNK N   1      29.579  17.299   7.392  0.00  0.00     0.122 A 
HETATM    5  N   UNK N   1      30.624  17.750   9.470  0.00  0.00    -0.336 N 
ATOM      6  HN  UNK N   1      31.399  17.603  10.115  1.00  0.00     0.168 HD
HETATM    7  N   UNK N   1      29.803  16.566   6.287  0.00  0.00    -0.346 N 
ATOM      8  HN  UNK N   1      29.215  16.491   5.457  1.00  0.00     0.167 HD
HETATM    9  C   UNK N   1      28.511  18.121   7.714  0.00  0.00     0.131 A 
HETATM   10  C   UNK N   1      29.583  18.578   9.795  0.00  0.00     0.183 A 
HETATM   11  N   UNK N   1      28.535  18.756   8.924  0.00  0.00    -0.337 N 
ATOM     12  HN  UNK N   1      27.764  19.371   9.183  1.00  0.00     0.168 HD
ENDROOT
BRANCH   1  13
HETATM   13  C   UNK N   1      32.706  15.756   8.372  0.00  0.00     0.262 C 
HETATM   14  C   UNK N   1      32.452  14.855   9.582  0.00  0.00     0.199 C 
HETATM   15  C   UNK N   1      33.830  14.948  10.102  0.00  0.00     0.197 C 
HETATM   16  O   UNK N   1      34.110  14.483  11.389  0.00  0.00    -0.286 OA
HETATM   17  C   UNK N   1      33.978  16.420  10.070  0.00  0.00     0.180 C 
HETATM   18  P   UNK N   1      35.865  14.321  11.360  0.00  0.00     0.393 P 
HETATM   19  O   UNK N   1      36.456  14.521  12.780  0.00  0.00    -0.631 OA
HETATM   20  O   UNK N   1      35.650  16.045  11.676  0.00  0.00    -0.294 OA
HETATM   21  C   UNK N   1      35.428  16.668  10.426  0.00  0.00     0.215 C 
HETATM   22  O   UNK N   1      33.590  16.799   8.774  0.00  0.00    -0.353 OA
BRANCH  14  23
HETATM   23  O   UNK N   1      32.168  13.547   9.193  0.00  0.00    -0.388 OA
HETATM   24  H   UNK N   1      31.674  13.317   8.391  0.00  0.00     0.210 HD
ENDBRANCH  14  23
BRANCH  18  25
HETATM   25  O   UNK N   1      35.148  13.082  12.340  0.00  0.00    -0.307 OA
HETATM   26  H   UNK N   1      35.192  12.120  12.223  0.00  0.00     0.222 HD
ENDBRANCH  18  25
ENDBRANCH   1  13
BRANCH   9  27
HETATM   27  N   UNK N   1      27.426  18.293   6.833  0.00  0.00    -0.383 N 
HETATM   28  H   UNK N   1      27.346  19.093   6.265  0.00  0.00     0.157 HD
HETATM   29  H   UNK N   1      26.731  17.597   6.784  0.00  0.00     0.157 HD
ENDBRANCH   9  27
TORSDOF 4
ENDMDL
MODEL 4
REMARK VINA RESULT:      -6.9      1.416      2.104
REMARK  4 active torsions:
REMARK  status: ('A' for Active; 'I' for Inactive)
REMARK    1  A    between atoms: C_2  and  N_1 
REMARK    2  A    between atoms: C_5  and  O_13 
REMARK    3  A    between atoms: C_15  and  N_21 
REMARK    4  A    between atoms: P_22  and  O_24 
ROOT
HETATM    1  N   UNK N   1      35.945  13.142  11.567  0.00  0.00    -0.297 N 
HETATM    2  C   UNK N   1      36.306  13.412  12.829  0.00  0.00     0.142 A 
HETATM    3  C   UNK N   1      35.980  11.786  11.475  0.00  0.00     0.188 A 
HETATM    4  C   UNK N   1      36.556  12.257  13.480  0.00  0.00     0.122 A 
HETATM    5  N   UNK N   1      36.435  14.622  13.421  0.00  0.00    -0.336 N 
ATOM      6  HN  UNK N   1      36.246  15.481  12.906  1.00  0.00     0.168 HD
HETATM    7  N   UNK N   1      36.357  11.215  12.653  0.00  0.00    -0.346 N 
ATOM      8  HN  UNK N   1      36.465  10.222  12.862  1.00  0.00     0.167 HD
HETATM    9  C   UNK N   1      36.969  12.279  14.802  0.00  0.00     0.131 A 
HETATM   10  C   UNK N   1      36.827  14.659  14.733  0.00  0.00     0.183 A 
HETATM   11  N   UNK N   1      37.095  13.494  15.413  0.00  0.00    -0.337 N 
ATOM     12  HN  UNK N   1      37.393  13.538  16.388  1.00  0.00     0.168 HD
ENDROOT
BRANCH   1  13
HETATM   13  C   UNK N   1      35.658  14.086  10.485  0.00  0.00     0.262 C 
HETATM   14  C   UNK N   1      35.981  15.544  10.817  0.00  0.00     0.199 C 
HETATM   15  C   UNK N   1      35.165  16.107   9.724  0.00  0.00     0.197 C 
HETATM   16  O   UNK N   1      34.896  17.477   9.705  0.00  0.00    -0.286 OA
HETATM   17  C   UNK N   1      33.911  15.364   9.979  0.00  0.00     0.180 C 
HETATM   18  P   UNK N   1      34.382  17.741   8.040  0.00  0.00     0.393 P 
HETATM   19  O   UNK N   1      33.392  18.932   7.955  0.00  0.00    -0.631 OA
HETATM   20  O   UNK N   1      32.909  17.130   8.797  0.00  0.00    -0.294 OA
HETATM   21  C   UNK N   1      33.011  15.719   8.816  0.00  0.00     0.215 C 
HETATM   22  O   UNK N   1      34.296  14.017  10.071  0.00  0.00    -0.353 OA
BRANCH  14  23
HETATM   23  O   UNK N   1      37.330  15.827  10.611  0.00  0.00    -0.388 OA
HETATM   24  H   UNK N   1      38.022  15.670  11.272  0.00  0.00     0.210 HD
ENDBRANCH  14  23
BRANCH  18  25
HETATM   25  O   UNK N   1      35.256  19.115   8.639  0.00  0.00    -0.307 OA
HETATM   26  H   UNK N   1      36.175  19.158   8.948  0.00  0.00     0.222 HD
ENDBRANCH  18  25
ENDBRANCH   1  13
BRANCH   9  27
HETATM   27  N   UNK N   1      37.263  11.090  15.499  0.00  0.00    -0.383 N 
HETATM   28  H   UNK N   1      37.622  10.299  15.037  0.00  0.00     0.157 HD
HETATM   29  H   UNK N   1      37.106  11.051  16.470  0.00  0.00     0.157 HD
ENDBRANCH   9  27
TORSDOF 4
ENDMDL
MODEL 5
REMARK VINA RESULT:      -6.8      1.789      2.464
REMARK  4 active torsions:
REMARK  status: ('A' for Active; 'I' for Inactive)
REMARK    1  A    between atoms: C_2  and  N_1 
REMARK    2  A    between atoms: C_5  and  O_13 
REMARK    3  A    between atoms: C_15  and  N_21 
REMARK    4  A    between atoms: P_22  and  O_24 
ROOT
HETATM    1  N   UNK N   1      35.242  14.949  11.374  0.00  0.00    -0.297 N 
HETATM    2  C   UNK N   1      35.234  13.731  11.930  0.00  0.00     0.142 A 
HETATM    3  C   UNK N   1      36.014  15.706  12.198  0.00  0.00     0.188 A 
HETATM    4  C   UNK N   1      35.972  13.749  13.058  0.00  0.00     0.122 A 
HETATM    5  N   UNK N   1      34.596  12.618  11.497  0.00  0.00    -0.336 N 
ATOM      6  HN  UNK N   1      34.038  12.631  10.644  1.00  0.00     0.168 HD
HETATM    7  N   UNK N   1      36.479  14.979  13.252  0.00  0.00    -0.346 N 
ATOM      8  HN  UNK N   1      37.077  15.296  14.017  1.00  0.00     0.167 HD
HETATM    9  C   UNK N   1      36.098  12.603  13.827  0.00  0.00     0.131 A 
HETATM   10  C   UNK N   1      34.724  11.473  12.238  0.00  0.00     0.183 A 
HETATM   11  N   UNK N   1      35.466  11.470  13.395  0.00  0.00    -0.337 N 
ATOM     12  HN  UNK N   1      35.546  10.612  13.939  1.00  0.00     0.168 HD
ENDROOT
BRANCH   1  13
HETATM   13  C   UNK N   1      34.516  15.410  10.188  0.00  0.00     0.262 C 
HETATM   14  C   UNK N   1      35.111  14.937   8.860  0.00  0.00     0.199 C 
HETATM   15  C   UNK N   1      34.402  15.937   8.039  0.00  0.00     0.197 C 
HETATM   16  O   UNK N   1      34.779  16.123   6.707  0.00  0.00    -0.286 OA
HETATM   17  C   UNK N   1      34.745  17.146   8.819  0.00  0.00     0.180 C 
HETATM   18  P   UNK N   1      33.388  16.971   6.034  0.00  0.00     0.393 P 
HETATM   19  O   UNK N   1      33.821  17.884   4.857  0.00  0.00    -0.631 OA
HETATM   20  O   UNK N   1      34.286  18.276   6.812  0.00  0.00    -0.294 OA
HETATM   21  C   UNK N   1      33.937  18.257   8.182  0.00  0.00     0.215 C 
HETATM   22  O   UNK N   1      34.416  16.831  10.148  0.00  0.00    -0.353 OA
BRANCH  14  23
HETATM   23  O   UNK N   1      34.681  13.651   8.538  0.00  0.00    -0.388 OA
HETATM   24  H   UNK N   1      33.820  13.455   8.136  0.00  0.00     0.210 HD
ENDBRANCH  14  23
BRANCH  18  25
HETATM   25  O   UNK N   1      34.091  15.909   4.856  0.00  0.00    -0.307 OA
HETATM   26  H   UNK N   1      33.794  15.025   4.586  0.00  0.00     0.222 HD
ENDBRANCH  18  25
ENDBRANCH   1  13
BRANCH   9  27
HETATM   27  N   UNK N   1      36.841  12.599  15.024  0.00  0.00    -0.383 N 
HETATM   28  H   UNK N   1      37.734  13.008  15.075  0.00  0.00     0.157 HD
HETATM   29  H   UNK N   1      36.457  12.178  15.827  0.00  0.00     0.157 HD
ENDBRANCH   9  27
TORSDOF 4
ENDMDL
MODEL 6
REMARK VINA RESULT:      -6.7      5.499      8.272
REMARK  4 active torsions:
REMARK  status: ('A' for Active; 'I' for Inactive)
REMARK    1  A    between atoms: C_2  and  N_1 
REMARK    2  A    between atoms: C_5  and  O_13 
REMARK    3  A    between atoms: C_15  and  N_21 
REMARK    4  A    between atoms: P_22  and  O_24 
ROOT
HETATM    1  N   UNK N   1      31.925  17.269   6.656  0.00  0.00    -0.297 N 
HETATM    2  C   UNK N   1      30.603  17.290   6.434  0.00  0.00     0.142 A 
HETATM    3  C   UNK N   1      32.488  17.353   5.421  0.00  0.00     0.188 A 
HETATM    4  C   UNK N   1      30.373  17.379   5.109  0.00  0.00     0.122 A 
HETATM    5  N   UNK N   1      29.602  17.221   7.343  0.00  0.00    -0.336 N 
ATOM      6  HN  UNK N   1      29.802  17.147   8.340  1.00  0.00     0.168 HD
HETATM    7  N   UNK N   1      31.541  17.423   4.444  0.00  0.00    -0.346 N 
ATOM      8  HN  UNK N   1      31.685  17.493   3.436  1.00  0.00     0.167 HD
HETATM    9  C   UNK N   1      29.074  17.395   4.627  0.00  0.00     0.131 A 
HETATM   10  C   UNK N   1      28.313  17.252   6.883  0.00  0.00     0.183 A 
HETATM   11  N   UNK N   1      28.054  17.334   5.535  0.00  0.00    -0.337 N 
ATOM     12  HN  UNK N   1      27.089  17.350   5.208  1.00  0.00     0.168 HD
ENDROOT
BRANCH   1  13
HETATM   13  C   UNK N   1      32.628  17.104   7.930  0.00  0.00     0.262 C 
HETATM   14  C   UNK N   1      34.147  16.979   7.800  0.00  0.00     0.199 C 
HETATM   15  C   UNK N   1      34.344  16.412   9.148  0.00  0.00     0.197 C 
HETATM   16  O   UNK N   1      35.581  15.858   9.484  0.00  0.00    -0.286 OA
HETATM   17  C   UNK N   1      33.327  15.339   9.085  0.00  0.00     0.180 C 
HETATM   18  P   UNK N   1      35.507  15.805  11.245  0.00  0.00     0.393 P 
HETATM   19  O   UNK N   1      36.372  14.641  11.794  0.00  0.00    -0.631 OA
HETATM   20  O   UNK N   1      34.614  14.353  10.786  0.00  0.00    -0.294 OA
HETATM   21  C   UNK N   1      33.293  14.760  10.484  0.00  0.00     0.215 C 
HETATM   22  O   UNK N   1      32.151  15.974   8.654  0.00  0.00    -0.353 OA
BRANCH  14  23
HETATM   23  O   UNK N   1      34.756  18.230   7.707  0.00  0.00    -0.388 OA
HETATM   24  H   UNK N   1      34.748  18.888   8.419  0.00  0.00     0.210 HD
ENDBRANCH  14  23
BRANCH  18  25
HETATM   25  O   UNK N   1      37.123  16.133  10.707  0.00  0.00    -0.307 OA
HETATM   26  H   UNK N   1      37.416  16.747  10.015  0.00  0.00     0.222 HD
ENDBRANCH  18  25
ENDBRANCH   1  13
BRANCH   9  27
HETATM   27  N   UNK N   1      28.803  17.461   3.246  0.00  0.00    -0.383 N 
HETATM   28  H   UNK N   1      27.895  17.628   2.908  0.00  0.00     0.157 HD
HETATM   29  H   UNK N   1      29.541  17.337   2.606  0.00  0.00     0.157 HD
ENDBRANCH   9  27
TORSDOF 4
ENDMDL
MODEL 7
REMARK VINA RESULT:      -6.6      3.072      4.371
REMARK  4 active torsions:
REMARK  status: ('A' for Active; 'I' for Inactive)
REMARK    1  A    between atoms: C_2  and  N_1 
REMARK    2  A    between atoms: C_5  and  O_13 
REMARK    3  A    between atoms: C_15  and  N_21 
REMARK    4  A    between atoms: P_22  and  O_24 
ROOT
HETATM    1  N   UNK N   1      35.861  12.674  16.590  0.00  0.00    -0.297 N 
HETATM    2  C   UNK N   1      35.847  11.549  17.317  0.00  0.00     0.142 A 
HETATM    3  C   UNK N   1      35.355  13.630  17.414  0.00  0.00     0.188 A 
HETATM    4  C   UNK N   1      35.345  11.812  18.540  0.00  0.00     0.122 A 
HETATM    5  N   UNK N   1      36.243  10.309  16.946  0.00  0.00    -0.336 N 
ATOM      6  HN  UNK N   1      36.614  10.133  16.013  1.00  0.00     0.168 HD
HETATM    7  N   UNK N   1      35.028  13.116  18.633  0.00  0.00    -0.346 N 
ATOM      8  HN  UNK N   1      34.632  13.608  19.434  1.00  0.00     0.167 HD
HETATM    9  C   UNK N   1      35.210  10.795  19.472  0.00  0.00     0.131 A 
HETATM   10  C   UNK N   1      36.130   9.296  17.861  0.00  0.00     0.183 A 
HETATM   11  N   UNK N   1      35.614   9.540  19.112  0.00  0.00    -0.337 N 
ATOM     12  HN  UNK N   1      35.530   8.775  19.780  1.00  0.00     0.168 HD
ENDROOT
BRANCH   1  13
HETATM   13  C   UNK N   1      36.249  12.843  15.188  0.00  0.00     0.262 C 
HETATM   14  C   UNK N   1      36.356  14.300  14.734  0.00  0.00     0.199 C 
HETATM   15  C   UNK N   1      36.305  13.988  13.292  0.00  0.00     0.197 C 
HETATM   16  O   UNK N   1      36.119  15.024  12.374  0.00  0.00    -0.286 OA
HETATM   17  C   UNK N   1      35.110  13.116  13.298  0.00  0.00     0.180 C 
HETATM   18  P   UNK N   1      36.632  14.284  10.859  0.00  0.00     0.393 P 
HETATM   19  O   UNK N   1      35.883  14.918   9.658  0.00  0.00    -0.631 OA
HETATM   20  O   UNK N   1      34.978  13.693  11.025  0.00  0.00    -0.294 OA
HETATM   21  C   UNK N   1      35.025  12.573  11.887  0.00  0.00     0.215 C 
HETATM   22  O   UNK N   1      35.353  12.170  14.307  0.00  0.00    -0.353 OA
BRANCH  14  23
HETATM   23  O   UNK N   1      37.594  14.848  15.068  0.00  0.00    -0.388 OA
HETATM   24  H   UNK N   1      38.192  15.261  14.426  0.00  0.00     0.210 HD
ENDBRANCH  14  23
BRANCH  18  25
HETATM   25  O   UNK N   1      37.044  15.969  10.892  0.00  0.00    -0.307 OA
HETATM   26  H   UNK N   1      37.086  16.595  10.151  0.00  0.00     0.222 HD
ENDBRANCH  18  25
ENDBRANCH   1  13
BRANCH   9  27
HETATM   27  N   UNK N   1      34.664  11.036  20.748  0.00  0.00    -0.383 N 
HETATM   28  H   UNK N   1      35.120  10.737  21.567  0.00  0.00     0.157 HD
HETATM   29  H   UNK N   1      33.807  11.516  20.821  0.00  0.00     0.157 HD
ENDBRANCH   9  27
TORSDOF 4
ENDMDL
MODEL 8
REMARK VINA RESULT:      -6.5      4.351      7.220
REMARK  4 active torsions:
REMARK  status: ('A' for Active; 'I' for Inactive)
REMARK    1  A    between atoms: C_2  and  N_1 
REMARK    2  A    between atoms: C_5  and  O_13 
REMARK    3  A    between atoms: C_15  and  N_21 
REMARK    4  A    between atoms: P_22  and  O_24 
ROOT
HETATM    1  N   UNK N   1      33.749  15.683   8.734  0.00  0.00    -0.297 N 
HETATM    2  C   UNK N   1      32.642  16.257   8.244  0.00  0.00     0.142 A 
HETATM    3  C   UNK N   1      34.596  15.591   7.674  0.00  0.00     0.188 A 
HETATM    4  C   UNK N   1      32.810  16.500   6.928  0.00  0.00     0.122 A 
HETATM    5  N   UNK N   1      31.496  16.558   8.899  0.00  0.00    -0.336 N 
ATOM      6  HN  UNK N   1      31.391  16.358   9.892  1.00  0.00     0.168 HD
HETATM    7  N   UNK N   1      34.032  16.095   6.541  0.00  0.00    -0.346 N 
ATOM      8  HN  UNK N   1      34.443  16.151   5.608  1.00  0.00     0.167 HD
HETATM    9  C   UNK N   1      31.787  17.075   6.191  0.00  0.00     0.131 A 
HETATM   10  C   UNK N   1      30.482  17.141   8.186  0.00  0.00     0.183 A 
HETATM   11  N   UNK N   1      30.628  17.391   6.842  0.00  0.00    -0.337 N 
ATOM     12  HN  UNK N   1      29.861  17.820   6.324  1.00  0.00     0.168 HD
ENDROOT
BRANCH   1  13
HETATM   13  C   UNK N   1      33.985  15.178  10.089  0.00  0.00     0.262 C 
HETATM   14  C   UNK N   1      35.230  15.751  10.768  0.00  0.00     0.199 C 
HETATM   15  C   UNK N   1      35.305  14.701  11.803  0.00  0.00     0.197 C 
HETATM   16  O   UNK N   1      36.453  14.596  12.591  0.00  0.00    -0.286 OA
HETATM   17  C   UNK N   1      35.203  13.516  10.922  0.00  0.00     0.180 C 
HETATM   18  P   UNK N   1      35.895  13.617  13.946  0.00  0.00     0.393 P 
HETATM   19  O   UNK N   1      37.064  12.791  14.543  0.00  0.00    -0.631 OA
HETATM   20  O   UNK N   1      36.232  12.399  12.714  0.00  0.00    -0.294 OA
HETATM   21  C   UNK N   1      35.098  12.341  11.871  0.00  0.00     0.215 C 
HETATM   22  O   UNK N   1      34.081  13.756  10.113  0.00  0.00    -0.353 OA
BRANCH  14  23
HETATM   23  O   UNK N   1      34.968  16.989  11.352  0.00  0.00    -0.388 OA
HETATM   24  H   UNK N   1      35.635  17.684  11.466  0.00  0.00     0.210 HD
ENDBRANCH  14  23
BRANCH  18  25
HETATM   25  O   UNK N   1      37.067  14.783  14.470  0.00  0.00    -0.307 OA
HETATM   26  H   UNK N   1      36.983  15.749  14.506  0.00  0.00     0.222 HD
ENDBRANCH  18  25
ENDBRANCH   1  13
BRANCH   9  27
HETATM   27  N   UNK N   1      31.924  17.317   4.809  0.00  0.00    -0.383 N 
HETATM   28  H   UNK N   1      32.443  18.081   4.470  0.00  0.00     0.157 HD
HETATM   29  H   UNK N   1      31.491  16.706   4.169  0.00  0.00     0.157 HD
ENDBRANCH   9  27
TORSDOF 4
ENDMDL
MODEL 9
REMARK VINA RESULT:      -6.5      3.101      4.588
REMARK  4 active torsions:
REMARK  status: ('A' for Active; 'I' for Inactive)
REMARK    1  A    between atoms: C_2  and  N_1 
REMARK    2  A    between atoms: C_5  and  O_13 
REMARK    3  A    between atoms: C_15  and  N_21 
REMARK    4  A    between atoms: P_22  and  O_24 
ROOT
HETATM    1  N   UNK N   1      34.704  15.918   8.940  0.00  0.00    -0.297 N 
HETATM    2  C   UNK N   1      35.254  14.962   9.701  0.00  0.00     0.142 A 
HETATM    3  C   UNK N   1      34.668  17.020   9.734  0.00  0.00     0.188 A 
HETATM    4  C   UNK N   1      35.538  15.467  10.919  0.00  0.00     0.122 A 
HETATM    5  N   UNK N   1      35.501  13.671   9.374  0.00  0.00    -0.336 N 
ATOM      6  HN  UNK N   1      35.271  13.311   8.449  1.00  0.00     0.168 HD
HETATM    7  N   UNK N   1      35.183  16.763  10.970  0.00  0.00    -0.346 N 
ATOM      8  HN  UNK N   1      35.277  17.407  11.756  1.00  0.00     0.167 HD
HETATM    9  C   UNK N   1      36.097  14.658  11.895  0.00  0.00     0.131 A 
HETATM   10  C   UNK N   1      36.068  12.864  10.324  0.00  0.00     0.183 A 
HETATM   11  N   UNK N   1      36.359  13.356  11.574  0.00  0.00    -0.337 N 
ATOM     12  HN  UNK N   1      36.775  12.740  12.273  1.00  0.00     0.168 HD
ENDROOT
BRANCH   1  13
HETATM   13  C   UNK N   1      34.171  15.800   7.581  0.00  0.00     0.262 C 
HETATM   14  C   UNK N   1      33.536  17.082   7.040  0.00  0.00     0.199 C 
HETATM   15  C   UNK N   1      32.799  16.409   5.952  0.00  0.00     0.197 C 
HETATM   16  O   UNK N   1      31.815  17.112   5.254  0.00  0.00    -0.286 OA
HETATM   17  C   UNK N   1      32.163  15.336   6.749  0.00  0.00     0.180 C 
HETATM   18  P   UNK N   1      31.608  16.135   3.802  0.00  0.00     0.393 P 
HETATM   19  O   UNK N   1      30.164  16.270   3.252  0.00  0.00    -0.631 OA
HETATM   20  O   UNK N   1      30.618  15.272   4.981  0.00  0.00    -0.294 OA
HETATM   21  C   UNK N   1      31.491  14.445   5.726  0.00  0.00     0.215 C 
HETATM   22  O   UNK N   1      33.211  14.752   7.478  0.00  0.00    -0.353 OA
BRANCH  14  23
HETATM   23  O   UNK N   1      34.496  17.944   6.513  0.00  0.00    -0.388 OA
HETATM   24  H   UNK N   1      34.909  18.664   7.014  0.00  0.00     0.210 HD
ENDBRANCH  14  23
BRANCH  18  25
HETATM   25  O   UNK N   1      31.403  17.820   3.444  0.00  0.00    -0.307 OA
HETATM   26  H   UNK N   1      31.177  18.234   2.596  0.00  0.00     0.222 HD
ENDBRANCH  18  25
ENDBRANCH   1  13
BRANCH   9  27
HETATM   27  N   UNK N   1      36.380  15.152  13.184  0.00  0.00    -0.383 N 
HETATM   28  H   UNK N   1      36.599  16.099  13.335  0.00  0.00     0.157 HD
HETATM   29  H   UNK N   1      36.358  14.534  13.951  0.00  0.00     0.157 HD
ENDBRANCH   9  27
TORSDOF 4
ENDMDL
