MODEL 1
REMARK VINA RESULT:      -7.4      0.000      0.000
REMARK  9 active torsions:
REMARK  status: ('A' for Active; 'I' for Inactive)
REMARK    1  A    between atoms: C_8  and  C_4 
REMARK    2  A    between atoms: O_17  and  C_4 
REMARK    3  A    between atoms: C_12  and  C_5 
REMARK    4  A    between atoms: N_16  and  C_6 
REMARK    5  A    between atoms: O_24  and  C_7 
REMARK    6  A    between atoms: C_9  and  O_18 
REMARK    7  A    between atoms: C_10  and  O_19 
REMARK    8  A    between atoms: O_21  and  C_12 
REMARK    9  A    between atoms: C_13  and  O_24 
ROOT
HETATM    1  C   UNK N   1      20.520  17.982   1.971  0.00  0.00     0.179 C 
HETATM    2  C   UNK N   1      20.265  19.504   1.811  0.00  0.00     0.180 C 
HETATM    3  C   UNK N   1      20.829  20.307   3.002  0.00  0.00     0.183 C 
HETATM    4  C   UNK N   1      21.622  19.421   3.953  0.00  0.00     0.205 C 
HETATM    5  C   UNK N   1      20.745  18.181   4.351  0.00  0.00     0.298 C 
HETATM    6  O   UNK N   1      22.831  19.017   3.377  0.00  0.00    -0.388 OA
HETATM    7  O   UNK N   1      20.116  17.510   3.249  0.00  0.00    -0.348 OA
HETATM    8  H   UNK N   1      23.607  18.698   2.889  0.00  0.00     0.210 HD
ENDROOT
BRANCH   3   9
HETATM    9  O   UNK N   1      21.606  21.395   2.585  0.00  0.00    -0.390 OA
HETATM   10  H   UNK N   1      21.238  22.285   2.478  0.00  0.00     0.210 HD
ENDBRANCH   3   9
BRANCH   5  11
HETATM   11  O   UNK N   1      21.398  17.228   5.145  0.00  0.00    -0.318 OA
BRANCH  11  12
HETATM   12  C   UNK N   1      21.023  16.842   6.399  0.00  0.00     0.075 A 
HETATM   13  C   UNK N   1      20.315  17.716   7.236  0.00  0.00     0.052 A 
HETATM   14  C   UNK N   1      19.984  17.323   8.550  0.00  0.00     0.019 A 
HETATM   15  C   UNK N   1      20.352  16.044   9.007  0.00  0.00     0.052 A 
HETATM   16  C   UNK N   1      21.031  15.162   8.161  0.00  0.00     0.106 A 
HETATM   17  C   UNK N   1      21.349  15.579   6.879  0.00  0.00     0.073 A 
BRANCH  14  18
HETATM   18  C   UNK N   1      19.288  18.259   9.457  0.00  0.00     0.144 C 
HETATM   19  N   UNK N   1      18.053  18.076   9.755  0.00  0.00    -0.380 N 
HETATM   20  H   UNK N   1      17.589  17.258   9.463  0.00  0.00     0.158 HD
ATOM     21  HN  UNK N   1      17.550  18.780  10.295  1.00  0.00     0.158 HD
BRANCH  18  22
HETATM   22  O   UNK N   1      19.950  19.301   9.994  0.00  0.00    -0.346 OA
HETATM   23  H   UNK N   1      19.533  20.138  10.062  0.00  0.00     0.219 HD
ENDBRANCH  18  22
ENDBRANCH  14  18
BRANCH  16  24
HETATM   24  N   UNK N   1      21.430  13.864   8.589  0.00  0.00    -0.116 N 
HETATM   25  O   UNK N   1      20.794  12.905   8.272  0.00  0.00    -0.532 OA
HETATM   26  O   UNK N   1      22.420  13.722   9.240  0.00  0.00    -0.532 OA
ENDBRANCH  16  24
ENDBRANCH  11  12
ENDBRANCH   5  11
BRANCH   2  27
HETATM   27  O   UNK N   1      20.811  19.947   0.602  0.00  0.00    -0.390 OA
HETATM   28  H   UNK N   1      20.380  20.218  -0.223  0.00  0.00     0.210 HD
ENDBRANCH   2  27
BRANCH   1  29
HETATM   29  C   UNK N   1      19.802  17.199   0.874  0.00  0.00     0.198 C 
BRANCH  29  30
HETATM   30  O   UNK N   1      20.349  17.472  -0.381  0.00  0.00    -0.398 OA
HETATM   31  H   UNK N   1      20.305  17.540  -1.347  0.00  0.00     0.209 HD
ENDBRANCH  29  30
ENDBRANCH   1  29
TORSDOF 9
ENDMDL
MODEL 2
REMARK VINA RESULT:      -7.3      0.753      3.094
REMARK  9 active torsions:
REMARK  status: ('A' for Active; 'I' for Inactive)
REMARK    1  A    between atoms: C_8  and  C_4 
REMARK    2  A    between atoms: O_17  and  C_4 
REMARK    3  A    between atoms: C_12  and  C_5 
REMARK    4  A    between atoms: N_16  and  C_6 
REMARK    5  A    between atoms: O_24  and  C_7 
REMARK    6  A    between atoms: C_9  and  O_18 
REMARK    7  A    between atoms: C_10  and  O_19 
REMARK    8  A    between atoms: O_21  and  C_12 
REMARK    9  A    between atoms: C_13  and  O_24 
ROOT
HETATM    1  C   UNK N   1      20.553  17.962   2.007  0.00  0.00     0.179 C 
HETATM    2  C   UNK N   1      20.250  19.478   1.885  0.00  0.00     0.180 C 
HETATM    3  C   UNK N   1      20.829  20.276   3.072  0.00  0.00     0.183 C 
HETATM    4  C   UNK N   1      21.678  19.396   3.980  0.00  0.00     0.205 C 
HETATM    5  C   UNK N   1      20.849  18.123   4.382  0.00  0.00     0.298 C 
HETATM    6  O   UNK N   1      22.879  19.038   3.358  0.00  0.00    -0.388 OA
HETATM    7  O   UNK N   1      20.205  17.455   3.288  0.00  0.00    -0.348 OA
HETATM    8  H   UNK N   1      23.646  18.751   2.840  0.00  0.00     0.210 HD
ENDROOT
BRANCH   3   9
HETATM    9  O   UNK N   1      21.561  21.393   2.652  0.00  0.00    -0.390 OA
HETATM   10  H   UNK N   1      21.967  22.013   3.276  0.00  0.00     0.210 HD
ENDBRANCH   3   9
BRANCH   5  11
HETATM   11  O   UNK N   1      21.555  17.176   5.137  0.00  0.00    -0.318 OA
BRANCH  11  12
HETATM   12  C   UNK N   1      21.232  16.756   6.394  0.00  0.00     0.075 A 
HETATM   13  C   UNK N   1      21.591  15.473   6.834  0.00  0.00     0.052 A 
HETATM   14  C   UNK N   1      21.200  15.032   8.116  0.00  0.00     0.019 A 
HETATM   15  C   UNK N   1      20.466  15.891   8.954  0.00  0.00     0.052 A 
HETATM   16  C   UNK N   1      20.135  17.181   8.525  0.00  0.00     0.106 A 
HETATM   17  C   UNK N   1      20.525  17.582   7.259  0.00  0.00     0.073 A 
BRANCH  14  18
HETATM   18  C   UNK N   1      21.526  13.662   8.566  0.00  0.00     0.144 C 
HETATM   19  N   UNK N   1      22.649  13.127   8.254  0.00  0.00    -0.380 N 
HETATM   20  H   UNK N   1      23.342  13.659   7.799  0.00  0.00     0.158 HD
ATOM     21  HN  UNK N   1      22.825  12.147   8.477  1.00  0.00     0.158 HD
BRANCH  18  22
HETATM   22  O   UNK N   1      20.653  12.973   9.325  0.00  0.00    -0.346 OA
HETATM   23  H   UNK N   1      20.963  12.318   9.920  0.00  0.00     0.219 HD
ENDBRANCH  18  22
ENDBRANCH  14  18
BRANCH  16  24
HETATM   24  N   UNK N   1      19.384  18.076   9.339  0.00  0.00    -0.116 N 
HETATM   25  O   UNK N   1      18.241  17.844   9.590  0.00  0.00    -0.532 OA
HETATM   26  O   UNK N   1      19.902  19.047   9.801  0.00  0.00    -0.532 OA
ENDBRANCH  16  24
ENDBRANCH  11  12
ENDBRANCH   5  11
BRANCH   2  27
HETATM   27  O   UNK N   1      20.744  19.958   0.667  0.00  0.00    -0.390 OA
HETATM   28  H   UNK N   1      20.341  20.551   0.013  0.00  0.00     0.210 HD
ENDBRANCH   2  27
BRANCH   1  29
HETATM   29  C   UNK N   1      19.823  17.178   0.919  0.00  0.00     0.198 C 
BRANCH  29  30
HETATM   30  O   UNK N   1      20.332  17.477  -0.346  0.00  0.00    -0.398 OA
HETATM   31  H   UNK N   1      21.048  17.544  -0.996  0.00  0.00     0.209 HD
ENDBRANCH  29  30
ENDBRANCH   1  29
TORSDOF 9
ENDMDL
MODEL 3
REMARK VINA RESULT:      -6.7      1.627      2.478
REMARK  9 active torsions:
REMARK  status: ('A' for Active; 'I' for Inactive)
REMARK    1  A    between atoms: C_8  and  C_4 
REMARK    2  A    between atoms: O_17  and  C_4 
REMARK    3  A    between atoms: C_12  and  C_5 
REMARK    4  A    between atoms: N_16  and  C_6 
REMARK    5  A    between atoms: O_24  and  C_7 
REMARK    6  A    between atoms: C_9  and  O_18 
REMARK    7  A    between atoms: C_10  and  O_19 
REMARK    8  A    between atoms: O_21  and  C_12 
REMARK    9  A    between atoms: C_13  and  O_24 
ROOT
HETATM    1  C   UNK N   1      22.504  19.663   3.065  0.00  0.00     0.179 C 
HETATM    2  C   UNK N   1      23.844  20.407   3.297  0.00  0.00     0.180 C 
HETATM    3  C   UNK N   1      24.808  19.590   4.183  0.00  0.00     0.183 C 
HETATM    4  C   UNK N   1      24.259  18.201   4.479  0.00  0.00     0.205 C 
HETATM    5  C   UNK N   1      22.799  18.336   5.042  0.00  0.00     0.298 C 
HETATM    6  O   UNK N   1      24.285  17.394   3.337  0.00  0.00    -0.388 OA
HETATM    7  O   UNK N   1      21.939  19.200   4.285  0.00  0.00    -0.348 OA
HETATM    8  H   UNK N   1      24.244  16.919   2.492  0.00  0.00     0.210 HD
ENDROOT
BRANCH   3   9
HETATM    9  O   UNK N   1      26.089  19.501   3.627  0.00  0.00    -0.390 OA
HETATM   10  H   UNK N   1      26.249  19.126   2.748  0.00  0.00     0.210 HD
ENDBRANCH   3   9
BRANCH   5  11
HETATM   11  O   UNK N   1      22.138  17.119   5.259  0.00  0.00    -0.318 OA
BRANCH  11  12
HETATM   12  C   UNK N   1      21.546  16.729   6.425  0.00  0.00     0.075 A 
HETATM   13  C   UNK N   1      20.749  17.622   7.156  0.00  0.00     0.052 A 
HETATM   14  C   UNK N   1      20.190  17.222   8.389  0.00  0.00     0.019 A 
HETATM   15  C   UNK N   1      20.421  15.920   8.869  0.00  0.00     0.052 A 
HETATM   16  C   UNK N   1      21.191  15.021   8.123  0.00  0.00     0.106 A 
HETATM   17  C   UNK N   1      21.733  15.445   6.922  0.00  0.00     0.073 A 
BRANCH  14  18
HETATM   18  C   UNK N   1      19.396  18.175   9.193  0.00  0.00     0.144 C 
HETATM   19  N   UNK N   1      18.131  18.008   9.333  0.00  0.00    -0.380 N 
HETATM   20  H   UNK N   1      17.698  17.192   8.992  0.00  0.00     0.158 HD
ATOM     21  HN  UNK N   1      17.573  18.723   9.799  1.00  0.00     0.158 HD
BRANCH  18  22
HETATM   22  O   UNK N   1      19.997  19.215   9.800  0.00  0.00    -0.346 OA
HETATM   23  H   UNK N   1      20.220  19.981   9.308  0.00  0.00     0.219 HD
ENDBRANCH  18  22
ENDBRANCH  14  18
BRANCH  16  24
HETATM   24  N   UNK N   1      21.457  13.699   8.579  0.00  0.00    -0.116 N 
HETATM   25  O   UNK N   1      22.144  13.520   9.538  0.00  0.00    -0.532 OA
HETATM   26  O   UNK N   1      20.968  12.761   8.024  0.00  0.00    -0.532 OA
ENDBRANCH  16  24
ENDBRANCH  11  12
ENDBRANCH   5  11
BRANCH   2  27
HETATM   27  O   UNK N   1      24.430  20.711   2.063  0.00  0.00    -0.390 OA
HETATM   28  H   UNK N   1      24.969  21.471   1.791  0.00  0.00     0.210 HD
ENDBRANCH   2  27
BRANCH   1  29
HETATM   29  C   UNK N   1      21.507  20.561   2.337  0.00  0.00     0.198 C 
BRANCH  29  30
HETATM   30  O   UNK N   1      21.755  20.579   0.963  0.00  0.00    -0.398 OA
HETATM   31  H   UNK N   1      22.028  21.011   0.140  0.00  0.00     0.209 HD
ENDBRANCH  29  30
ENDBRANCH   1  29
TORSDOF 9
ENDMDL
MODEL 4
REMARK VINA RESULT:      -6.7      2.985      7.567
REMARK  9 active torsions:
REMARK  status: ('A' for Active; 'I' for Inactive)
REMARK    1  A    between atoms: C_8  and  C_4 
REMARK    2  A    between atoms: O_17  and  C_4 
REMARK    3  A    between atoms: C_12  and  C_5 
REMARK    4  A    between atoms: N_16  and  C_6 
REMARK    5  A    between atoms: O_24  and  C_7 
REMARK    6  A    between atoms: C_9  and  O_18 
REMARK    7  A    between atoms: C_10  and  O_19 
REMARK    8  A    between atoms: O_21  and  C_12 
REMARK    9  A    between atoms: C_13  and  O_24 
ROOT
HETATM    1  C   UNK N   1      21.258  14.272   8.151  0.00  0.00     0.179 C 
HETATM    2  C   UNK N   1      20.353  15.079   9.117  0.00  0.00     0.180 C 
HETATM    3  C   UNK N   1      19.678  16.273   8.409  0.00  0.00     0.183 C 
HETATM    4  C   UNK N   1      19.953  16.266   6.911  0.00  0.00     0.205 C 
HETATM    5  C   UNK N   1      21.501  16.146   6.674  0.00  0.00     0.298 C 
HETATM    6  O   UNK N   1      19.266  15.226   6.276  0.00  0.00    -0.388 OA
HETATM    7  O   UNK N   1      22.149  15.115   7.433  0.00  0.00    -0.348 OA
HETATM    8  H   UNK N   1      18.840  14.434   5.912  0.00  0.00     0.210 HD
ENDROOT
BRANCH   3   9
HETATM    9  O   UNK N   1      18.301  16.322   8.653  0.00  0.00    -0.390 OA
HETATM   10  H   UNK N   1      17.766  17.106   8.454  0.00  0.00     0.210 HD
ENDBRANCH   3   9
BRANCH   5  11
HETATM   11  O   UNK N   1      21.883  16.025   5.330  0.00  0.00    -0.318 OA
BRANCH  11  12
HETATM   12  C   UNK N   1      21.364  16.734   4.286  0.00  0.00     0.075 A 
HETATM   13  C   UNK N   1      20.790  16.076   3.188  0.00  0.00     0.052 A 
HETATM   14  C   UNK N   1      20.311  16.821   2.090  0.00  0.00     0.019 A 
HETATM   15  C   UNK N   1      20.395  18.226   2.112  0.00  0.00     0.052 A 
HETATM   16  C   UNK N   1      20.940  18.881   3.221  0.00  0.00     0.106 A 
HETATM   17  C   UNK N   1      21.410  18.122   4.279  0.00  0.00     0.073 A 
BRANCH  14  18
HETATM   18  C   UNK N   1      19.755  16.133   0.906  0.00  0.00     0.144 C 
HETATM   19  N   UNK N   1      18.974  16.755   0.101  0.00  0.00    -0.380 N 
HETATM   20  H   UNK N   1      18.819  17.722   0.209  0.00  0.00     0.158 HD
ATOM     21  HN  UNK N   1      18.511  16.248  -0.653  1.00  0.00     0.158 HD
BRANCH  18  22
HETATM   22  O   UNK N   1      20.081  14.851   0.653  0.00  0.00    -0.346 OA
HETATM   23  H   UNK N   1      19.551  14.156   0.992  0.00  0.00     0.219 HD
ENDBRANCH  18  22
ENDBRANCH  14  18
BRANCH  16  24
HETATM   24  N   UNK N   1      21.052  20.299   3.276  0.00  0.00    -0.116 N 
HETATM   25  O   UNK N   1      20.231  20.945   3.853  0.00  0.00    -0.532 OA
HETATM   26  O   UNK N   1      21.986  20.849   2.774  0.00  0.00    -0.532 OA
ENDBRANCH  16  24
ENDBRANCH  11  12
ENDBRANCH   5  11
BRANCH   2  27
HETATM   27  O   UNK N   1      19.399  14.228   9.687  0.00  0.00    -0.390 OA
HETATM   28  H   UNK N   1      19.427  13.708  10.505  0.00  0.00     0.210 HD
ENDBRANCH   2  27
BRANCH   1  29
HETATM   29  C   UNK N   1      22.046  13.209   8.912  0.00  0.00     0.198 C 
BRANCH  29  30
HETATM   30  O   UNK N   1      22.186  13.553  10.258  0.00  0.00    -0.398 OA
HETATM   31  H   UNK N   1      22.026  13.423  11.205  0.00  0.00     0.209 HD
ENDBRANCH  29  30
ENDBRANCH   1  29
TORSDOF 9
ENDMDL
MODEL 5
REMARK VINA RESULT:      -6.6     15.599     18.000
REMARK  9 active torsions:
REMARK  status: ('A' for Active; 'I' for Inactive)
REMARK    1  A    between atoms: C_8  and  C_4 
REMARK    2  A    between atoms: O_17  and  C_4 
REMARK    3  A    between atoms: C_12  and  C_5 
REMARK    4  A    between atoms: N_16  and  C_6 
REMARK    5  A    between atoms: O_24  and  C_7 
REMARK    6  A    between atoms: C_9  and  O_18 
REMARK    7  A    between atoms: C_10  and  O_19 
REMARK    8  A    between atoms: O_21  and  C_12 
REMARK    9  A    between atoms: C_13  and  O_24 
ROOT
HETATM    1  C   UNK N   1      34.817  13.995  11.058  0.00  0.00     0.179 C 
HETATM    2  C   UNK N   1      36.320  14.126  10.703  0.00  0.00     0.180 C 
HETATM    3  C   UNK N   1      37.203  13.246  11.614  0.00  0.00     0.183 C 
HETATM    4  C   UNK N   1      36.364  12.363  12.527  0.00  0.00     0.205 C 
HETATM    5  C   UNK N   1      35.317  13.256  13.285  0.00  0.00     0.298 C 
HETATM    6  O   UNK N   1      35.728  11.348  11.804  0.00  0.00    -0.388 OA
HETATM    7  O   UNK N   1      34.586  14.166  12.450  0.00  0.00    -0.348 OA
HETATM    8  H   UNK N   1      35.245  10.729  11.235  0.00  0.00     0.210 HD
ENDROOT
BRANCH   3   9
HETATM    9  O   UNK N   1      38.110  12.471  10.882  0.00  0.00    -0.390 OA
HETATM   10  H   UNK N   1      39.070  12.579  10.963  0.00  0.00     0.210 HD
ENDBRANCH   3   9
BRANCH   5  11
HETATM   11  O   UNK N   1      34.409  12.548  14.084  0.00  0.00    -0.318 OA
BRANCH  11  12
HETATM   12  C   UNK N   1      34.641  12.104  15.354  0.00  0.00     0.075 A 
HETATM   13  C   UNK N   1      34.778  13.011  16.415  0.00  0.00     0.052 A 
HETATM   14  C   UNK N   1      35.074  12.540  17.712  0.00  0.00     0.019 A 
HETATM   15  C   UNK N   1      35.212  11.157  17.936  0.00  0.00     0.052 A 
HETATM   16  C   UNK N   1      35.045  10.253  16.882  0.00  0.00     0.106 A 
HETATM   17  C   UNK N   1      34.763  10.746  15.620  0.00  0.00     0.073 A 
BRANCH  14  18
HETATM   18  C   UNK N   1      35.275  13.492  18.825  0.00  0.00     0.144 C 
HETATM   19  N   UNK N   1      35.321  14.754  18.598  0.00  0.00    -0.380 N 
HETATM   20  H   UNK N   1      35.122  15.104  17.699  0.00  0.00     0.158 HD
ATOM     21  HN  UNK N   1      35.564  15.397  19.351  1.00  0.00     0.158 HD
BRANCH  18  22
HETATM   22  O   UNK N   1      35.394  13.042  20.088  0.00  0.00    -0.346 OA
HETATM   23  H   UNK N   1      36.222  13.084  20.526  0.00  0.00     0.219 HD
ENDBRANCH  18  22
ENDBRANCH  14  18
BRANCH  16  24
HETATM   24  N   UNK N   1      35.187   8.848  17.066  0.00  0.00    -0.116 N 
HETATM   25  O   UNK N   1      35.729   8.185  16.235  0.00  0.00    -0.532 OA
HETATM   26  O   UNK N   1      34.793   8.329  18.067  0.00  0.00    -0.532 OA
ENDBRANCH  16  24
ENDBRANCH  11  12
ENDBRANCH   5  11
BRANCH   2  27
HETATM   27  O   UNK N   1      36.513  13.804   9.355  0.00  0.00    -0.390 OA
HETATM   28  H   UNK N   1      37.292  13.452   8.896  0.00  0.00     0.210 HD
ENDBRANCH   2  27
BRANCH   1  29
HETATM   29  C   UNK N   1      33.987  15.001  10.265  0.00  0.00     0.198 C 
BRANCH  29  30
HETATM   30  O   UNK N   1      32.699  15.119  10.791  0.00  0.00    -0.398 OA
HETATM   31  H   UNK N   1      32.001  15.590  11.271  0.00  0.00     0.209 HD
ENDBRANCH  29  30
ENDBRANCH   1  29
TORSDOF 9
ENDMDL
MODEL 6
REMARK VINA RESULT:      -6.6     14.133     17.246
REMARK  9 active torsions:
REMARK  status: ('A' for Active; 'I' for Inactive)
REMARK    1  A    between atoms: C_8  and  C_4 
REMARK    2  A    between atoms: O_17  and  C_4 
REMARK    3  A    between atoms: C_12  and  C_5 
REMARK    4  A    between atoms: N_16  and  C_6 
REMARK    5  A    between atoms: O_24  and  C_7 
REMARK    6  A    between atoms: C_9  and  O_18 
REMARK    7  A    between atoms: C_10  and  O_19 
REMARK    8  A    between atoms: O_21  and  C_12 
REMARK    9  A    between atoms: C_13  and  O_24 
ROOT
HETATM    1  C   UNK N   1      36.489  13.716  13.929  0.00  0.00     0.179 C 
HETATM    2  C   UNK N   1      36.910  12.269  13.565  0.00  0.00     0.180 C 
HETATM    3  C   UNK N   1      36.691  11.968  12.067  0.00  0.00     0.183 C 
HETATM    4  C   UNK N   1      36.261  13.211  11.300  0.00  0.00     0.205 C 
HETATM    5  C   UNK N   1      35.031  13.864  12.029  0.00  0.00     0.298 C 
HETATM    6  O   UNK N   1      37.316  14.122  11.182  0.00  0.00    -0.388 OA
HETATM    7  O   UNK N   1      35.189  14.025  13.446  0.00  0.00    -0.348 OA
HETATM    8  H   UNK N   1      38.057  14.747  11.215  0.00  0.00     0.210 HD
ENDROOT
BRANCH   3   9
HETATM    9  O   UNK N   1      37.821  11.394  11.472  0.00  0.00    -0.390 OA
HETATM   10  H   UNK N   1      38.391  10.766  11.940  0.00  0.00     0.210 HD
ENDBRANCH   3   9
BRANCH   5  11
HETATM   11  O   UNK N   1      34.600  15.080  11.481  0.00  0.00    -0.318 OA
BRANCH  11  12
HETATM   12  C   UNK N   1      34.232  15.284  10.183  0.00  0.00     0.075 A 
HETATM   13  C   UNK N   1      33.608  14.266   9.447  0.00  0.00     0.052 A 
HETATM   14  C   UNK N   1      33.285  14.473   8.089  0.00  0.00     0.019 A 
HETATM   15  C   UNK N   1      33.575  15.710   7.485  0.00  0.00     0.052 A 
HETATM   16  C   UNK N   1      34.170  16.734   8.229  0.00  0.00     0.106 A 
HETATM   17  C   UNK N   1      34.483  16.499   9.557  0.00  0.00     0.073 A 
BRANCH  14  18
HETATM   18  C   UNK N   1      32.678  13.386   7.292  0.00  0.00     0.144 C 
HETATM   19  N   UNK N   1      31.909  13.660   6.301  0.00  0.00    -0.380 N 
HETATM   20  H   UNK N   1      31.799  14.592   6.003  0.00  0.00     0.158 HD
ATOM     21  HN  UNK N   1      31.411  12.911   5.821  1.00  0.00     0.158 HD
BRANCH  18  22
HETATM   22  O   UNK N   1      32.942  12.100   7.588  0.00  0.00    -0.346 OA
HETATM   23  H   UNK N   1      32.275  11.449   7.491  0.00  0.00     0.219 HD
ENDBRANCH  18  22
ENDBRANCH  14  18
BRANCH  16  24
HETATM   24  N   UNK N   1      34.490  17.996   7.652  0.00  0.00    -0.116 N 
HETATM   25  O   UNK N   1      34.308  18.188   6.488  0.00  0.00    -0.532 OA
HETATM   26  O   UNK N   1      34.911  18.881   8.334  0.00  0.00    -0.532 OA
ENDBRANCH  16  24
ENDBRANCH  11  12
ENDBRANCH   5  11
BRANCH   2  27
HETATM   27  O   UNK N   1      38.245  12.063  13.928  0.00  0.00    -0.390 OA
HETATM   28  H   UNK N   1      38.984  12.688  13.993  0.00  0.00     0.210 HD
ENDBRANCH   2  27
BRANCH   1  29
HETATM   29  C   UNK N   1      36.550  13.931  15.439  0.00  0.00     0.198 C 
BRANCH  29  30
HETATM   30  O   UNK N   1      37.688  14.654  15.800  0.00  0.00    -0.398 OA
HETATM   31  H   UNK N   1      38.372  15.323  15.646  0.00  0.00     0.209 HD
ENDBRANCH  29  30
ENDBRANCH   1  29
TORSDOF 9
ENDMDL
MODEL 7
REMARK VINA RESULT:      -6.6      1.571      3.939
REMARK  9 active torsions:
REMARK  status: ('A' for Active; 'I' for Inactive)
REMARK    1  A    between atoms: C_8  and  C_4 
REMARK    2  A    between atoms: O_17  and  C_4 
REMARK    3  A    between atoms: C_12  and  C_5 
REMARK    4  A    between atoms: N_16  and  C_6 
REMARK    5  A    between atoms: O_24  and  C_7 
REMARK    6  A    between atoms: C_9  and  O_18 
REMARK    7  A    between atoms: C_10  and  O_19 
REMARK    8  A    between atoms: O_21  and  C_12 
REMARK    9  A    between atoms: C_13  and  O_24 
ROOT
HETATM    1  C   UNK N   1      20.388  18.438   2.440  0.00  0.00     0.179 C 
HETATM    2  C   UNK N   1      20.228  17.190   1.532  0.00  0.00     0.180 C 
HETATM    3  C   UNK N   1      20.198  15.884   2.354  0.00  0.00     0.183 C 
HETATM    4  C   UNK N   1      20.181  16.161   3.851  0.00  0.00     0.205 C 
HETATM    5  C   UNK N   1      21.360  17.136   4.206  0.00  0.00     0.298 C 
HETATM    6  O   UNK N   1      18.951  16.693   4.252  0.00  0.00    -0.388 OA
HETATM    7  O   UNK N   1      21.463  18.289   3.357  0.00  0.00    -0.348 OA
HETATM    8  H   UNK N   1      18.114  17.142   4.449  0.00  0.00     0.210 HD
ENDROOT
BRANCH   3   9
HETATM    9  O   UNK N   1      19.123  15.060   1.997  0.00  0.00    -0.390 OA
HETATM   10  H   UNK N   1      18.460  15.327   1.343  0.00  0.00     0.210 HD
ENDBRANCH   3   9
BRANCH   5  11
HETATM   11  O   UNK N   1      21.394  17.555   5.543  0.00  0.00    -0.318 OA
BRANCH  11  12
HETATM   12  C   UNK N   1      20.990  16.822   6.620  0.00  0.00     0.075 A 
HETATM   13  C   UNK N   1      21.628  15.615   6.944  0.00  0.00     0.052 A 
HETATM   14  C   UNK N   1      21.162  14.839   8.026  0.00  0.00     0.019 A 
HETATM   15  C   UNK N   1      20.069  15.291   8.788  0.00  0.00     0.052 A 
HETATM   16  C   UNK N   1      19.453  16.509   8.482  0.00  0.00     0.106 A 
HETATM   17  C   UNK N   1      19.927  17.244   7.409  0.00  0.00     0.073 A 
BRANCH  14  18
HETATM   18  C   UNK N   1      21.794  13.539   8.340  0.00  0.00     0.144 C 
HETATM   19  N   UNK N   1      22.920  13.497   8.952  0.00  0.00    -0.380 N 
HETATM   20  H   UNK N   1      23.323  14.323   9.307  0.00  0.00     0.158 HD
ATOM     21  HN  UNK N   1      23.400  12.605   9.072  1.00  0.00     0.158 HD
BRANCH  18  22
HETATM   22  O   UNK N   1      21.181  12.390   8.001  0.00  0.00    -0.346 OA
HETATM   23  H   UNK N   1      21.091  11.702   8.632  0.00  0.00     0.219 HD
ENDBRANCH  18  22
ENDBRANCH  14  18
BRANCH  16  24
HETATM   24  N   UNK N   1      18.338  16.995   9.221  0.00  0.00    -0.116 N 
HETATM   25  O   UNK N   1      18.422  18.017   9.833  0.00  0.00    -0.532 OA
HETATM   26  O   UNK N   1      17.302  16.402   9.208  0.00  0.00    -0.532 OA
ENDBRANCH  16  24
ENDBRANCH  11  12
ENDBRANCH   5  11
BRANCH   2  27
HETATM   27  O   UNK N   1      19.073  17.322   0.754  0.00  0.00    -0.390 OA
HETATM   28  H   UNK N   1      18.818  16.886  -0.074  0.00  0.00     0.210 HD
ENDBRANCH   2  27
BRANCH   1  29
HETATM   29  C   UNK N   1      20.591  19.694   1.597  0.00  0.00     0.198 C 
BRANCH  29  30
HETATM   30  O   UNK N   1      20.686  19.381   0.240  0.00  0.00    -0.398 OA
HETATM   31  H   UNK N   1      21.139  19.375  -0.616  0.00  0.00     0.209 HD
ENDBRANCH  29  30
ENDBRANCH   1  29
TORSDOF 9
ENDMDL
MODEL 8
REMARK VINA RESULT:      -6.5     16.088     18.064
REMARK  9 active torsions:
REMARK  status: ('A' for Active; 'I' for Inactive)
REMARK    1  A    between atoms: C_8  and  C_4 
REMARK    2  A    between atoms: O_17  and  C_4 
REMARK    3  A    between atoms: C_12  and  C_5 
REMARK    4  A    between atoms: N_16  and  C_6 
REMARK    5  A    between atoms: O_24  and  C_7 
REMARK    6  A    between atoms: C_9  and  O_18 
REMARK    7  A    between atoms: C_10  and  O_19 
REMARK    8  A    between atoms: O_21  and  C_12 
REMARK    9  A    between atoms: C_13  and  O_24 
ROOT
HETATM    1  C   UNK N   1      35.362  14.934  11.427  0.00  0.00     0.179 C 
HETATM    2  C   UNK N   1      36.363  14.262  10.452  0.00  0.00     0.180 C 
HETATM    3  C   UNK N   1      36.440  12.736  10.671  0.00  0.00     0.183 C 
HETATM    4  C   UNK N   1      35.407  12.260  11.684  0.00  0.00     0.205 C 
HETATM    5  C   UNK N   1      35.534  13.122  12.991  0.00  0.00     0.298 C 
HETATM    6  O   UNK N   1      34.113  12.334  11.157  0.00  0.00    -0.388 OA
HETATM    7  O   UNK N   1      35.591  14.540  12.773  0.00  0.00    -0.348 OA
HETATM    8  H   UNK N   1      33.239  12.496  10.769  0.00  0.00     0.210 HD
ENDROOT
BRANCH   3   9
HETATM    9  O   UNK N   1      36.315  12.023   9.474  0.00  0.00    -0.390 OA
HETATM   10  H   UNK N   1      36.979  11.381   9.179  0.00  0.00     0.210 HD
ENDBRANCH   3   9
BRANCH   5  11
HETATM   11  O   UNK N   1      34.566  12.854  13.969  0.00  0.00    -0.318 OA
BRANCH  11  12
HETATM   12  C   UNK N   1      34.812  12.391  15.228  0.00  0.00     0.075 A 
HETATM   13  C   UNK N   1      34.917  11.014  15.477  0.00  0.00     0.052 A 
HETATM   14  C   UNK N   1      35.114  10.548  16.794  0.00  0.00     0.019 A 
HETATM   15  C   UNK N   1      35.222  11.471  17.851  0.00  0.00     0.052 A 
HETATM   16  C   UNK N   1      35.147  12.844  17.597  0.00  0.00     0.106 A 
HETATM   17  C   UNK N   1      34.945  13.271  16.295  0.00  0.00     0.073 A 
BRANCH  14  18
HETATM   18  C   UNK N   1      35.170   9.097  17.073  0.00  0.00     0.144 C 
HETATM   19  N   UNK N   1      34.707   8.630  18.174  0.00  0.00    -0.380 N 
HETATM   20  H   UNK N   1      34.221   9.218  18.797  0.00  0.00     0.158 HD
ATOM     21  HN  UNK N   1      34.843   7.646  18.406  1.00  0.00     0.158 HD
BRANCH  18  22
HETATM   22  O   UNK N   1      35.691   8.253  16.163  0.00  0.00    -0.346 OA
HETATM   23  H   UNK N   1      35.989   7.404  16.426  0.00  0.00     0.219 HD
ENDBRANCH  18  22
ENDBRANCH  14  18
BRANCH  16  24
HETATM   24  N   UNK N   1      35.242  13.809  18.639  0.00  0.00    -0.116 N 
HETATM   25  O   UNK N   1      35.625  14.914  18.402  0.00  0.00    -0.532 OA
HETATM   26  O   UNK N   1      34.908  13.529  19.751  0.00  0.00    -0.532 OA
ENDBRANCH  16  24
ENDBRANCH  11  12
ENDBRANCH   5  11
BRANCH   2  27
HETATM   27  O   UNK N   1      36.006  14.562   9.133  0.00  0.00    -0.390 OA
HETATM   28  H   UNK N   1      35.151  14.491   8.679  0.00  0.00     0.210 HD
ENDBRANCH   2  27
BRANCH   1  29
HETATM   29  C   UNK N   1      35.434  16.454  11.309  0.00  0.00     0.198 C 
BRANCH  29  30
HETATM   30  O   UNK N   1      34.564  16.925  10.325  0.00  0.00    -0.398 OA
HETATM   31  H   UNK N   1      34.269  17.578   9.672  0.00  0.00     0.209 HD
ENDBRANCH  29  30
ENDBRANCH   1  29
TORSDOF 9
ENDMDL
MODEL 9
REMARK VINA RESULT:      -6.5      9.685     11.293
REMARK  9 active torsions:
REMARK  status: ('A' for Active; 'I' for Inactive)
REMARK    1  A    between atoms: C_8  and  C_4 
REMARK    2  A    between atoms: O_17  and  C_4 
REMARK    3  A    between atoms: C_12  and  C_5 
REMARK    4  A    between atoms: N_16  and  C_6 
REMARK    5  A    between atoms: O_24  and  C_7 
REMARK    6  A    between atoms: C_9  and  O_18 
REMARK    7  A    between atoms: C_10  and  O_19 
REMARK    8  A    between atoms: O_21  and  C_12 
REMARK    9  A    between atoms: C_13  and  O_24 
ROOT
HETATM    1  C   UNK N   1      27.859  18.809   5.737  0.00  0.00     0.179 C 
HETATM    2  C   UNK N   1      26.858  17.675   5.396  0.00  0.00     0.180 C 
HETATM    3  C   UNK N   1      26.989  16.483   6.368  0.00  0.00     0.183 C 
HETATM    4  C   UNK N   1      27.959  16.786   7.502  0.00  0.00     0.205 C 
HETATM    5  C   UNK N   1      29.315  17.295   6.894  0.00  0.00     0.298 C 
HETATM    6  O   UNK N   1      27.422  17.726   8.388  0.00  0.00    -0.388 OA
HETATM    7  O   UNK N   1      29.182  18.316   5.895  0.00  0.00    -0.348 OA
HETATM    8  H   UNK N   1      27.033  18.445   8.911  0.00  0.00     0.210 HD
ENDROOT
BRANCH   3   9
HETATM    9  O   UNK N   1      25.750  16.080   6.879  0.00  0.00    -0.390 OA
HETATM   10  H   UNK N   1      25.582  15.174   7.179  0.00  0.00     0.210 HD
ENDBRANCH   3   9
BRANCH   5  11
HETATM   11  O   UNK N   1      30.264  17.709   7.840  0.00  0.00    -0.318 OA
BRANCH  11  12
HETATM   12  C   UNK N   1      31.476  17.123   8.064  0.00  0.00     0.075 A 
HETATM   13  C   UNK N   1      31.618  15.728   8.008  0.00  0.00     0.052 A 
HETATM   14  C   UNK N   1      32.864  15.133   8.299  0.00  0.00     0.019 A 
HETATM   15  C   UNK N   1      33.964  15.947   8.626  0.00  0.00     0.052 A 
HETATM   16  C   UNK N   1      33.828  17.339   8.652  0.00  0.00     0.106 A 
HETATM   17  C   UNK N   1      32.591  17.893   8.370  0.00  0.00     0.073 A 
BRANCH  14  18
HETATM   18  C   UNK N   1      33.008  13.662   8.296  0.00  0.00     0.144 C 
HETATM   19  N   UNK N   1      33.836  13.093   7.499  0.00  0.00    -0.380 N 
HETATM   20  H   UNK N   1      34.454  13.635   6.956  0.00  0.00     0.158 HD
ATOM     21  HN  UNK N   1      33.856  12.076   7.428  1.00  0.00     0.158 HD
BRANCH  18  22
HETATM   22  O   UNK N   1      32.283  12.909   9.145  0.00  0.00    -0.346 OA
HETATM   23  H   UNK N   1      31.362  12.803   9.009  0.00  0.00     0.219 HD
ENDBRANCH  18  22
ENDBRANCH  14  18
BRANCH  16  24
HETATM   24  N   UNK N   1      34.914  18.195   8.989  0.00  0.00    -0.116 N 
HETATM   25  O   UNK N   1      35.112  19.190   8.360  0.00  0.00    -0.532 OA
HETATM   26  O   UNK N   1      35.615  17.940   9.921  0.00  0.00    -0.532 OA
ENDBRANCH  16  24
ENDBRANCH  11  12
ENDBRANCH   5  11
BRANCH   2  27
HETATM   27  O   UNK N   1      25.554  18.184   5.397  0.00  0.00    -0.390 OA
HETATM   28  H   UNK N   1      24.942  18.350   4.664  0.00  0.00     0.210 HD
ENDBRANCH   2  27
BRANCH   1  29
HETATM   29  C   UNK N   1      27.831  19.894   4.663  0.00  0.00     0.198 C 
BRANCH  29  30
HETATM   30  O   UNK N   1      26.839  20.840   4.927  0.00  0.00    -0.398 OA
HETATM   31  H   UNK N   1      26.370  21.464   5.502  0.00  0.00     0.209 HD
ENDBRANCH  29  30
ENDBRANCH   1  29
TORSDOF 9
ENDMDL
