MODEL 1
REMARK VINA RESULT:      -5.8      0.000      0.000
REMARK  5 active torsions:
REMARK  status: ('A' for Active; 'I' for Inactive)
REMARK    1  A    between atoms: C_2  and  N_1 
REMARK    2  A    between atoms: C_2  and  C_3 
REMARK    3  A    between atoms: C_2  and  C_13 
REMARK    4  A    between atoms: C_3  and  N_4 
REMARK    5  A    between atoms: C_13  and  O_14 
ROOT
HETATM    1  N   UNK N   1      34.844  15.475  10.111  0.00  0.00    -0.304 N 
HETATM    2  C   UNK N   1      34.509  14.225  10.529  0.00  0.00     0.143 A 
HETATM    3  C   UNK N   1      34.976  13.716  11.736  0.00  0.00     0.199 A 
HETATM    4  F   UNK N   1      34.625  12.465  12.129  0.00  0.00    -0.199 F 
HETATM    5  C   UNK N   1      35.799  14.510  12.526  0.00  0.00     0.289 A 
HETATM    6  O   UNK N   1      36.214  14.096  13.594  0.00  0.00    -0.265 OA
HETATM    7  N   UNK N   1      36.146  15.760  12.096  0.00  0.00    -0.273 N 
HETATM    8  C   UNK N   1      35.688  16.251  10.900  0.00  0.00     0.329 A 
HETATM    9  O   UNK N   1      36.038  17.362  10.549  0.00  0.00    -0.246 OA
HETATM   10  H   UNK N   1      36.734  16.318  12.655  0.00  0.00     0.173 HD
ENDROOT
BRANCH   1  11
HETATM   11  C   UNK N   1      34.258  15.876   8.820  0.00  0.00     0.168 C 
BRANCH  11  12
HETATM   12  C   UNK N   1      33.551  17.234   8.719  0.00  0.00     0.192 C 
BRANCH  12  13
HETATM   13  N   UNK N   1      32.223  17.065   8.151  0.00  0.00    -0.416 N 
HETATM   14  H   UNK N   1      31.267  16.750   8.314  0.00  0.00     0.150 HD
HETATM   15  H   UNK N   1      32.266  17.400   7.189  0.00  0.00     0.150 HD
ENDBRANCH  12  13
BRANCH  12  16
HETATM   16  C   UNK N   1      34.326  18.180   7.836  0.00  0.00     0.164 C 
HETATM   17  O   UNK N   1      34.280  18.084   6.618  0.00  0.00    -0.648 OA
BRANCH  16  18
HETATM   18  O   UNK N   1      35.064  19.157   8.395  0.00  0.00    -0.775 OA
HETATM   19  H   UNK N   1      34.647  19.917   8.749  0.00  0.00     0.167 HD
ENDBRANCH  16  18
ENDBRANCH  12  16
ENDBRANCH  11  12
ENDBRANCH   1  11
TORSDOF 5
ENDMDL
MODEL 2
REMARK VINA RESULT:      -5.7      1.839      2.263
REMARK  5 active torsions:
REMARK  status: ('A' for Active; 'I' for Inactive)
REMARK    1  A    between atoms: C_2  and  N_1 
REMARK    2  A    between atoms: C_2  and  C_3 
REMARK    3  A    between atoms: C_2  and  C_13 
REMARK    4  A    between atoms: C_3  and  N_4 
REMARK    5  A    between atoms: C_13  and  O_14 
ROOT
HETATM    1  N   UNK N   1      35.011  15.054  10.243  0.00  0.00    -0.304 N 
HETATM    2  C   UNK N   1      35.676  15.526  11.332  0.00  0.00     0.143 A 
HETATM    3  C   UNK N   1      35.796  14.768  12.492  0.00  0.00     0.199 A 
HETATM    4  F   UNK N   1      36.465  15.264  13.563  0.00  0.00    -0.199 F 
HETATM    5  C   UNK N   1      35.224  13.502  12.529  0.00  0.00     0.289 A 
HETATM    6  O   UNK N   1      35.322  12.810  13.527  0.00  0.00    -0.265 OA
HETATM    7  N   UNK N   1      34.543  13.036  11.438  0.00  0.00    -0.273 N 
HETATM    8  C   UNK N   1      34.423  13.794  10.302  0.00  0.00     0.329 A 
HETATM    9  O   UNK N   1      33.792  13.346   9.362  0.00  0.00    -0.246 OA
HETATM   10  H   UNK N   1      34.134  12.141  11.470  0.00  0.00     0.173 HD
ENDROOT
BRANCH   1  11
HETATM   11  C   UNK N   1      34.985  15.966   9.087  0.00  0.00     0.168 C 
BRANCH  11  12
HETATM   12  C   UNK N   1      34.196  17.278   9.197  0.00  0.00     0.192 C 
BRANCH  12  13
HETATM   13  N   UNK N   1      32.783  17.031   8.963  0.00  0.00    -0.416 N 
HETATM   14  H   UNK N   1      32.093  16.479   8.453  0.00  0.00     0.150 HD
HETATM   15  H   UNK N   1      32.265  17.681   9.553  0.00  0.00     0.150 HD
ENDBRANCH  12  13
BRANCH  12  16
HETATM   16  C   UNK N   1      34.676  18.282   8.179  0.00  0.00     0.164 C 
HETATM   17  O   UNK N   1      35.302  19.275   8.521  0.00  0.00    -0.648 OA
BRANCH  16  18
HETATM   18  O   UNK N   1      34.430  18.073   6.872  0.00  0.00    -0.775 OA
HETATM   19  H   UNK N   1      34.103  18.770   6.338  0.00  0.00     0.167 HD
ENDBRANCH  16  18
ENDBRANCH  12  16
ENDBRANCH  11  12
ENDBRANCH   1  11
TORSDOF 5
ENDMDL
MODEL 3
REMARK VINA RESULT:      -5.6     14.982     16.521
REMARK  5 active torsions:
REMARK  status: ('A' for Active; 'I' for Inactive)
REMARK    1  A    between atoms: C_2  and  N_1 
REMARK    2  A    between atoms: C_2  and  C_3 
REMARK    3  A    between atoms: C_2  and  C_13 
REMARK    4  A    between atoms: C_3  and  N_4 
REMARK    5  A    between atoms: C_13  and  O_14 
ROOT
HETATM    1  N   UNK N   1      30.278  23.168  -3.670  0.00  0.00    -0.304 N 
HETATM    2  C   UNK N   1      29.437  23.496  -4.688  0.00  0.00     0.143 A 
HETATM    3  C   UNK N   1      28.110  23.838  -4.449  0.00  0.00     0.199 A 
HETATM    4  F   UNK N   1      27.293  24.160  -5.483  0.00  0.00    -0.199 F 
HETATM    5  C   UNK N   1      27.644  23.846  -3.139  0.00  0.00     0.289 A 
HETATM    6  O   UNK N   1      26.490  24.153  -2.898  0.00  0.00    -0.265 OA
HETATM    7  N   UNK N   1      28.488  23.503  -2.120  0.00  0.00    -0.273 N 
HETATM    8  C   UNK N   1      29.792  23.158  -2.366  0.00  0.00     0.329 A 
HETATM    9  O   UNK N   1      30.502  22.842  -1.430  0.00  0.00    -0.246 OA
HETATM   10  H   UNK N   1      28.154  23.503  -1.194  0.00  0.00     0.173 HD
ENDROOT
BRANCH   1  11
HETATM   11  C   UNK N   1      31.656  22.846  -4.082  0.00  0.00     0.168 C 
BRANCH  11  12
HETATM   12  C   UNK N   1      32.083  21.374  -4.149  0.00  0.00     0.192 C 
BRANCH  12  13
HETATM   13  N   UNK N   1      30.954  20.512  -3.836  0.00  0.00    -0.416 N 
HETATM   14  H   UNK N   1      30.419  19.687  -4.107  0.00  0.00     0.150 HD
HETATM   15  H   UNK N   1      30.515  20.889  -2.997  0.00  0.00     0.150 HD
ENDBRANCH  12  13
BRANCH  12  16
HETATM   16  C   UNK N   1      33.185  21.088  -3.161  0.00  0.00     0.164 C 
HETATM   17  O   UNK N   1      34.312  20.802  -3.540  0.00  0.00    -0.648 OA
BRANCH  16  18
HETATM   18  O   UNK N   1      32.931  21.166  -1.841  0.00  0.00    -0.775 OA
HETATM   19  H   UNK N   1      33.079  20.424  -1.289  0.00  0.00     0.167 HD
ENDBRANCH  16  18
ENDBRANCH  12  16
ENDBRANCH  11  12
ENDBRANCH   1  11
TORSDOF 5
ENDMDL
MODEL 4
REMARK VINA RESULT:      -5.5      2.627      3.965
REMARK  5 active torsions:
REMARK  status: ('A' for Active; 'I' for Inactive)
REMARK    1  A    between atoms: C_2  and  N_1 
REMARK    2  A    between atoms: C_2  and  C_3 
REMARK    3  A    between atoms: C_2  and  C_13 
REMARK    4  A    between atoms: C_3  and  N_4 
REMARK    5  A    between atoms: C_13  and  O_14 
ROOT
HETATM    1  N   UNK N   1      35.417  13.330  13.222  0.00  0.00    -0.304 N 
HETATM    2  C   UNK N   1      34.652  12.206  13.276  0.00  0.00     0.143 A 
HETATM    3  C   UNK N   1      34.455  11.520  14.470  0.00  0.00     0.199 A 
HETATM    4  F   UNK N   1      33.688  10.402  14.494  0.00  0.00    -0.199 F 
HETATM    5  C   UNK N   1      35.053  12.004  15.628  0.00  0.00     0.289 A 
HETATM    6  O   UNK N   1      34.889  11.433  16.691  0.00  0.00    -0.265 OA
HETATM    7  N   UNK N   1      35.832  13.126  15.568  0.00  0.00    -0.273 N 
HETATM    8  C   UNK N   1      36.028  13.790  14.384  0.00  0.00     0.329 A 
HETATM    9  O   UNK N   1      36.744  14.774  14.375  0.00  0.00    -0.246 OA
HETATM   10  H   UNK N   1      36.259  13.463  16.389  0.00  0.00     0.173 HD
ENDROOT
BRANCH   1  11
HETATM   11  C   UNK N   1      35.516  13.950  11.889  0.00  0.00     0.168 C 
BRANCH  11  12
HETATM   12  C   UNK N   1      34.764  15.261  11.625  0.00  0.00     0.192 C 
BRANCH  12  13
HETATM   13  N   UNK N   1      33.610  15.012  10.776  0.00  0.00    -0.416 N 
HETATM   14  H   UNK N   1      33.097  14.323  10.226  0.00  0.00     0.150 HD
HETATM   15  H   UNK N   1      33.102  15.892  10.699  0.00  0.00     0.150 HD
ENDBRANCH  12  13
BRANCH  12  16
HETATM   16  C   UNK N   1      35.654  16.261  10.931  0.00  0.00     0.164 C 
HETATM   17  O   UNK N   1      35.189  17.275  10.428  0.00  0.00    -0.648 OA
BRANCH  16  18
HETATM   18  O   UNK N   1      36.982  16.047  10.879  0.00  0.00    -0.775 OA
HETATM   19  H   UNK N   1      37.358  15.596  10.149  0.00  0.00     0.167 HD
ENDBRANCH  16  18
ENDBRANCH  12  16
ENDBRANCH  11  12
ENDBRANCH   1  11
TORSDOF 5
ENDMDL
MODEL 5
REMARK VINA RESULT:      -5.5     16.402     17.142
REMARK  5 active torsions:
REMARK  status: ('A' for Active; 'I' for Inactive)
REMARK    1  A    between atoms: C_2  and  N_1 
REMARK    2  A    between atoms: C_2  and  C_3 
REMARK    3  A    between atoms: C_2  and  C_13 
REMARK    4  A    between atoms: C_3  and  N_4 
REMARK    5  A    between atoms: C_13  and  O_14 
ROOT
HETATM    1  N   UNK N   1      20.380  16.791   2.497  0.00  0.00    -0.304 N 
HETATM    2  C   UNK N   1      20.108  16.073   3.619  0.00  0.00     0.143 A 
HETATM    3  C   UNK N   1      19.529  14.810   3.549  0.00  0.00     0.199 A 
HETATM    4  F   UNK N   1      19.268  14.117   4.685  0.00  0.00    -0.199 F 
HETATM    5  C   UNK N   1      19.228  14.279   2.300  0.00  0.00     0.289 A 
HETATM    6  O   UNK N   1      18.732  13.171   2.206  0.00  0.00    -0.265 OA
HETATM    7  N   UNK N   1      19.490  15.009   1.174  0.00  0.00    -0.273 N 
HETATM    8  C   UNK N   1      20.053  16.257   1.254  0.00  0.00     0.329 A 
HETATM    9  O   UNK N   1      20.251  16.878   0.227  0.00  0.00    -0.246 OA
HETATM   10  H   UNK N   1      19.270  14.632   0.292  0.00  0.00     0.173 HD
ENDROOT
BRANCH   1  11
HETATM   11  C   UNK N   1      21.009  18.103   2.735  0.00  0.00     0.168 C 
BRANCH  11  12
HETATM   12  C   UNK N   1      20.164  19.371   2.557  0.00  0.00     0.192 C 
BRANCH  12  13
HETATM   13  N   UNK N   1      18.784  19.016   2.268  0.00  0.00    -0.416 N 
HETATM   14  H   UNK N   1      17.886  19.338   1.908  0.00  0.00     0.150 HD
HETATM   15  H   UNK N   1      18.665  18.040   2.537  0.00  0.00     0.150 HD
ENDBRANCH  12  13
BRANCH  12  16
HETATM   16  C   UNK N   1      20.686  20.210   1.417  0.00  0.00     0.164 C 
HETATM   17  O   UNK N   1      21.236  21.282   1.625  0.00  0.00    -0.648 OA
BRANCH  16  18
HETATM   18  O   UNK N   1      20.562  19.764   0.153  0.00  0.00    -0.775 OA
HETATM   19  H   UNK N   1      19.826  19.238  -0.090  0.00  0.00     0.167 HD
ENDBRANCH  16  18
ENDBRANCH  12  16
ENDBRANCH  11  12
ENDBRANCH   1  11
TORSDOF 5
ENDMDL
MODEL 6
REMARK VINA RESULT:      -5.4     12.208     14.265
REMARK  5 active torsions:
REMARK  status: ('A' for Active; 'I' for Inactive)
REMARK    1  A    between atoms: C_2  and  N_1 
REMARK    2  A    between atoms: C_2  and  C_3 
REMARK    3  A    between atoms: C_2  and  C_13 
REMARK    4  A    between atoms: C_3  and  N_4 
REMARK    5  A    between atoms: C_13  and  O_14 
ROOT
HETATM    1  N   UNK N   1      23.287  19.336   3.739  0.00  0.00    -0.304 N 
HETATM    2  C   UNK N   1      24.174  20.132   3.083  0.00  0.00     0.143 A 
HETATM    3  C   UNK N   1      25.512  20.190   3.460  0.00  0.00     0.199 A 
HETATM    4  F   UNK N   1      26.374  20.993   2.788  0.00  0.00    -0.199 F 
HETATM    5  C   UNK N   1      25.942  19.412   4.529  0.00  0.00     0.289 A 
HETATM    6  O   UNK N   1      27.109  19.433   4.875  0.00  0.00    -0.265 OA
HETATM    7  N   UNK N   1      25.045  18.624   5.195  0.00  0.00    -0.273 N 
HETATM    8  C   UNK N   1      23.726  18.580   4.822  0.00  0.00     0.329 A 
HETATM    9  O   UNK N   1      22.960  17.879   5.456  0.00  0.00    -0.246 OA
HETATM   10  H   UNK N   1      25.352  18.079   5.956  0.00  0.00     0.173 HD
ENDROOT
BRANCH   1  11
HETATM   11  C   UNK N   1      21.912  19.371   3.211  0.00  0.00     0.168 C 
BRANCH  11  12
HETATM   12  C   UNK N   1      21.488  20.552   2.328  0.00  0.00     0.192 C 
BRANCH  12  13
HETATM   13  N   UNK N   1      20.450  21.324   2.992  0.00  0.00    -0.416 N 
HETATM   14  H   UNK N   1      19.852  22.150   2.950  0.00  0.00     0.150 HD
HETATM   15  H   UNK N   1      20.225  20.838   3.859  0.00  0.00     0.150 HD
ENDBRANCH  12  13
BRANCH  12  16
HETATM   16  C   UNK N   1      20.946  20.069   1.006  0.00  0.00     0.164 C 
HETATM   17  O   UNK N   1      20.630  18.899   0.846  0.00  0.00    -0.648 OA
BRANCH  16  18
HETATM   18  O   UNK N   1      20.791  20.941  -0.007  0.00  0.00    -0.775 OA
HETATM   19  H   UNK N   1      20.349  20.679  -0.790  0.00  0.00     0.167 HD
ENDBRANCH  16  18
ENDBRANCH  12  16
ENDBRANCH  11  12
ENDBRANCH   1  11
TORSDOF 5
ENDMDL
MODEL 7
REMARK VINA RESULT:      -5.4      4.840      6.607
REMARK  5 active torsions:
REMARK  status: ('A' for Active; 'I' for Inactive)
REMARK    1  A    between atoms: C_2  and  N_1 
REMARK    2  A    between atoms: C_2  and  C_3 
REMARK    3  A    between atoms: C_2  and  C_13 
REMARK    4  A    between atoms: C_3  and  N_4 
REMARK    5  A    between atoms: C_13  and  O_14 
ROOT
HETATM    1  N   UNK N   1      30.635  17.410   7.125  0.00  0.00    -0.304 N 
HETATM    2  C   UNK N   1      31.515  17.642   8.136  0.00  0.00     0.143 A 
HETATM    3  C   UNK N   1      32.885  17.706   7.902  0.00  0.00     0.199 A 
HETATM    4  F   UNK N   1      33.740  17.938   8.930  0.00  0.00    -0.199 F 
HETATM    5  C   UNK N   1      33.354  17.533   6.606  0.00  0.00     0.289 A 
HETATM    6  O   UNK N   1      34.547  17.596   6.369  0.00  0.00    -0.265 OA
HETATM    7  N   UNK N   1      32.468  17.286   5.594  0.00  0.00    -0.273 N 
HETATM    8  C   UNK N   1      31.120  17.215   5.835  0.00  0.00     0.329 A 
HETATM    9  O   UNK N   1      30.370  16.975   4.907  0.00  0.00    -0.246 OA
HETATM   10  H   UNK N   1      32.804  17.158   4.678  0.00  0.00     0.173 HD
ENDROOT
BRANCH   1  11
HETATM   11  C   UNK N   1      29.218  17.387   7.528  0.00  0.00     0.168 C 
BRANCH  11  12
HETATM   12  C   UNK N   1      28.588  18.667   8.092  0.00  0.00     0.192 C 
BRANCH  12  13
HETATM   13  N   UNK N   1      27.671  18.339   9.171  0.00  0.00    -0.416 N 
HETATM   14  H   UNK N   1      27.531  18.303  10.181  0.00  0.00     0.150 HD
HETATM   15  H   UNK N   1      26.810  18.005   8.740  0.00  0.00     0.150 HD
ENDBRANCH  12  13
BRANCH  12  16
HETATM   16  C   UNK N   1      27.818  19.403   7.025  0.00  0.00     0.164 C 
HETATM   17  O   UNK N   1      28.079  19.249   5.840  0.00  0.00    -0.648 OA
BRANCH  16  18
HETATM   18  O   UNK N   1      26.816  20.229   7.379  0.00  0.00    -0.775 OA
HETATM   19  H   UNK N   1      26.702  20.474   8.276  0.00  0.00     0.167 HD
ENDBRANCH  16  18
ENDBRANCH  12  16
ENDBRANCH  11  12
ENDBRANCH   1  11
TORSDOF 5
ENDMDL
MODEL 8
REMARK VINA RESULT:      -5.3      2.385      5.333
REMARK  5 active torsions:
REMARK  status: ('A' for Active; 'I' for Inactive)
REMARK    1  A    between atoms: C_2  and  N_1 
REMARK    2  A    between atoms: C_2  and  C_3 
REMARK    3  A    between atoms: C_2  and  C_13 
REMARK    4  A    between atoms: C_3  and  N_4 
REMARK    5  A    between atoms: C_13  and  O_14 
ROOT
HETATM    1  N   UNK N   1      34.090  15.842   9.627  0.00  0.00    -0.304 N 
HETATM    2  C   UNK N   1      33.353  15.430   8.561  0.00  0.00     0.143 A 
HETATM    3  C   UNK N   1      33.350  16.141   7.365  0.00  0.00     0.199 A 
HETATM    4  F   UNK N   1      32.605  15.707   6.318  0.00  0.00    -0.199 F 
HETATM    5  C   UNK N   1      34.122  17.292   7.267  0.00  0.00     0.289 A 
HETATM    6  O   UNK N   1      34.148  17.929   6.229  0.00  0.00    -0.265 OA
HETATM    7  N   UNK N   1      34.850  17.711   8.345  0.00  0.00    -0.273 N 
HETATM    8  C   UNK N   1      34.841  17.009   9.523  0.00  0.00     0.329 A 
HETATM    9  O   UNK N   1      35.490  17.430  10.462  0.00  0.00    -0.246 OA
HETATM   10  H   UNK N   1      35.391  18.531   8.274  0.00  0.00     0.173 HD
ENDROOT
BRANCH   1  11
HETATM   11  C   UNK N   1      34.002  14.975  10.816  0.00  0.00     0.168 C 
BRANCH  11  12
HETATM   12  C   UNK N   1      35.038  13.857  10.995  0.00  0.00     0.192 C 
BRANCH  12  13
HETATM   13  N   UNK N   1      34.421  12.562  10.760  0.00  0.00    -0.416 N 
HETATM   14  H   UNK N   1      33.640  11.944  10.982  0.00  0.00     0.150 HD
HETATM   15  H   UNK N   1      35.015  12.064  10.097  0.00  0.00     0.150 HD
ENDBRANCH  12  13
BRANCH  12  16
HETATM   16  C   UNK N   1      35.603  13.865  12.393  0.00  0.00     0.164 C 
HETATM   17  O   UNK N   1      34.889  13.647  13.361  0.00  0.00    -0.648 OA
BRANCH  16  18
HETATM   18  O   UNK N   1      36.916  14.098  12.578  0.00  0.00    -0.775 OA
HETATM   19  H   UNK N   1      37.534  13.858  11.917  0.00  0.00     0.167 HD
ENDBRANCH  16  18
ENDBRANCH  12  16
ENDBRANCH  11  12
ENDBRANCH   1  11
TORSDOF 5
ENDMDL
MODEL 9
REMARK VINA RESULT:      -5.3      3.405      6.164
REMARK  5 active torsions:
REMARK  status: ('A' for Active; 'I' for Inactive)
REMARK    1  A    between atoms: C_2  and  N_1 
REMARK    2  A    between atoms: C_2  and  C_3 
REMARK    3  A    between atoms: C_2  and  C_13 
REMARK    4  A    between atoms: C_3  and  N_4 
REMARK    5  A    between atoms: C_13  and  O_14 
ROOT
HETATM    1  N   UNK N   1      32.587  17.132   7.259  0.00  0.00    -0.304 N 
HETATM    2  C   UNK N   1      31.402  16.680   6.767  0.00  0.00     0.143 A 
HETATM    3  C   UNK N   1      31.134  16.687   5.402  0.00  0.00     0.199 A 
HETATM    4  F   UNK N   1      29.943  16.231   4.940  0.00  0.00    -0.199 F 
HETATM    5  C   UNK N   1      32.106  17.163   4.530  0.00  0.00     0.289 A 
HETATM    6  O   UNK N   1      31.906  17.170   3.329  0.00  0.00    -0.265 OA
HETATM    7  N   UNK N   1      33.291  17.629   5.028  0.00  0.00    -0.273 N 
HETATM    8  C   UNK N   1      33.542  17.627   6.376  0.00  0.00     0.329 A 
HETATM    9  O   UNK N   1      34.603  18.069   6.776  0.00  0.00    -0.246 OA
HETATM   10  H   UNK N   1      33.975  17.972   4.409  0.00  0.00     0.173 HD
ENDROOT
BRANCH   1  11
HETATM   11  C   UNK N   1      32.726  17.045   8.723  0.00  0.00     0.168 C 
BRANCH  11  12
HETATM   12  C   UNK N   1      33.657  15.980   9.316  0.00  0.00     0.192 C 
BRANCH  12  13
HETATM   13  N   UNK N   1      32.932  15.160  10.274  0.00  0.00    -0.416 N 
HETATM   14  H   UNK N   1      32.167  15.123  10.947  0.00  0.00     0.150 HD
HETATM   15  H   UNK N   1      33.372  14.240  10.272  0.00  0.00     0.150 HD
ENDBRANCH  12  13
BRANCH  12  16
HETATM   16  C   UNK N   1      34.823  16.620  10.028  0.00  0.00     0.164 C 
HETATM   17  O   UNK N   1      35.385  16.051  10.953  0.00  0.00    -0.648 OA
BRANCH  16  18
HETATM   18  O   UNK N   1      35.264  17.827   9.628  0.00  0.00    -0.775 OA
HETATM   19  H   UNK N   1      35.820  18.333  10.186  0.00  0.00     0.167 HD
ENDBRANCH  16  18
ENDBRANCH  12  16
ENDBRANCH  11  12
ENDBRANCH   1  11
TORSDOF 5
ENDMDL
