REMARK  6 active torsions:
REMARK  status: ('A' for Active; 'I' for Inactive)
REMARK    1  A    between atoms: S_2  and  C_3 
REMARK    2  A    between atoms: C_3  and  C_4 
REMARK    3  A    between atoms: C_4  and  C_5 
REMARK    4  A    between atoms: C_5  and  N_6 
REMARK    5  A    between atoms: C_5  and  C_7 
REMARK    6  A    between atoms: C_7  and  O_8 
ROOT
HETATM    1  C   UNK N   1       4.950   2.282  -0.000  0.00  0.00     0.174 C 
ENDROOT
BRANCH   1   2
HETATM    2  C   UNK N   1       3.414   2.234   0.000  0.00  0.00     0.045 C 
BRANCH   2   3
HETATM    3  C   UNK N   1       2.842   0.821  -0.000  0.00  0.00     0.076 C 
BRANCH   3   4
HETATM    4  S   UNK N   1       1.006   0.681   0.000  0.00  0.00    -0.173 SA
HETATM    5  C   UNK N   1       0.550   2.443  -0.000  0.00  0.00     0.089 C 
ENDBRANCH   3   4
ENDBRANCH   2   3
ENDBRANCH   1   2
BRANCH   1   6
HETATM    6  N   UNK N   1       5.542   3.609   0.000  0.00  0.00    -0.418 N 
HETATM    7  H   UNK N   1       6.557   3.714   0.000  0.00  0.00     0.150 HD
HETATM    8  H   UNK N   1       4.944   4.435   0.000  0.00  0.00     0.150 HD
ENDBRANCH   1   6
BRANCH   1   9
HETATM    9  C   UNK N   1       5.913   1.121   0.000  0.00  0.00     0.163 C 
HETATM   10  O   UNK N   1       5.507  -0.030   0.000  0.00  0.00    -0.648 OA
BRANCH   9  11
HETATM   11  O   UNK N   1       7.240   1.352   0.000  0.00  0.00    -0.775 OA
HETATM   12  H   UNK N   1       7.841   0.633  -0.000  0.00  0.00     0.167 HD
ENDBRANCH   9  11
ENDBRANCH   1   9
TORSDOF 6
