REMARK  16 active torsions:
REMARK  status: ('A' for Active; 'I' for Inactive)
REMARK    1  A    between atoms: C_3  and  C_2 
REMARK    2  A    between atoms: C_8  and  C_2 
REMARK    3  A    between atoms: C_15  and  C_3 
REMARK    4  A    between atoms: N_18  and  C_8 
REMARK    5  A    between atoms: C_16  and  C_9 
REMARK    6  A    between atoms: N_19  and  C_9 
REMARK    7  A    between atoms: C_12  and  C_10 
REMARK    8  A    between atoms: S_28  and  C_10 
REMARK    9  A    between atoms: C_14  and  C_11 
REMARK   10  A    between atoms: S_28  and  C_11 
REMARK   11  A    between atoms: O_27  and  C_13 
REMARK   12  A    between atoms: C_17  and  C_14 
REMARK   13  A    between atoms: C_14  and  N_21 
REMARK   14  A    between atoms: C_15  and  O_23 
REMARK   15  A    between atoms: O_25  and  C_16 
REMARK   16  A    between atoms: O_26  and  C_17 
ROOT
HETATM    1  C   UNK N   1       0.443   1.962  -0.420  0.00  0.00     0.167 C 
ENDROOT
BRANCH   1   2
HETATM    2  C   UNK N   1      -0.126   2.496   0.898  0.00  0.00     0.107 C 
BRANCH   2   3
HETATM    3  S   UNK N   1      -0.877   4.163   0.794  0.00  0.00    -0.162 SA
BRANCH   3   4
HETATM    4  C   UNK N   1      -2.129   3.862  -0.521  0.00  0.00     0.112 C 
BRANCH   4   5
HETATM    5  C   UNK N   1      -3.117   2.764  -0.262  0.00  0.00    -0.049 A 
HETATM    6  C   UNK N   1      -4.460   3.066  -0.011  0.00  0.00     0.011 A 
HETATM    7  C   UNK N   1      -5.399   2.035   0.130  0.00  0.00     0.037 A 
HETATM    8  C   UNK N   1      -5.006   0.696   0.003  0.00  0.00     0.068 A 
HETATM    9  C   UNK N   1      -3.660   0.399  -0.258  0.00  0.00     0.037 A 
HETATM   10  C   UNK N   1      -2.730   1.428  -0.396  0.00  0.00     0.011 A 
BRANCH   8  11
HETATM   11  O   UNK N   1      -5.934  -0.283   0.128  0.00  0.00    -0.356 OA
HETATM   12  C   UNK N   1      -5.639  -1.622  -0.012  0.00  0.00     0.210 C 
ENDBRANCH   8  11
ENDBRANCH   4   5
ENDBRANCH   3   4
ENDBRANCH   2   3
ENDBRANCH   1   2
BRANCH   1  13
HETATM   13  C   UNK N   1       0.622   0.460  -0.319  0.00  0.00     0.136 C 
HETATM   14  N   UNK N   1       1.737  -0.089  -0.656  0.00  0.00    -0.363 N 
ATOM     15  HN  UNK N   1       2.502   0.506  -0.974  1.00  0.00     0.161 HD
BRANCH  14  16
HETATM   16  C   UNK N   1       1.940  -1.514  -0.601  0.00  0.00     0.231 C 
BRANCH  16  17
HETATM   17  C   UNK N   1       3.138  -1.820   0.231  0.00  0.00     0.158 C 
HETATM   18  O   UNK N   1       4.226  -1.356  -0.069  0.00  0.00    -0.649 OA
BRANCH  17  19
HETATM   19  O   UNK N   1       3.023  -2.622   1.305  0.00  0.00    -0.775 OA
HETATM   20  H   UNK N   1       2.499  -2.832   2.053  0.00  0.00     0.167 HD
ENDBRANCH  17  19
ENDBRANCH  16  17
ENDBRANCH  14  16
BRANCH  13  21
HETATM   21  O   UNK N   1      -0.410  -0.304   0.100  0.00  0.00    -0.348 OA
HETATM   22  H   UNK N   1      -1.227   0.051   0.391  0.00  0.00     0.219 HD
ENDBRANCH  13  21
ENDBRANCH   1  13
BRANCH   1  23
HETATM   23  N   UNK N   1       1.666   2.640  -0.833  0.00  0.00    -0.362 N 
HETATM   24  C   UNK N   1       2.773   2.631  -0.165  0.00  0.00     0.111 C 
ATOM     25  HN  UNK N   1       1.648   3.159  -1.711  1.00  0.00     0.162 HD
BRANCH  24  26
HETATM   26  C   UNK N   1       3.998   3.248  -0.756  0.00  0.00     0.085 C 
BRANCH  26  27
HETATM   27  C   UNK N   1       4.000   4.754  -0.605  0.00  0.00     0.027 C 
BRANCH  27  28
HETATM   28  C   UNK N   1       4.925   5.118   0.539  0.00  0.00     0.111 C 
BRANCH  28  29
HETATM   29  N   UNK N   1       5.082   6.558   0.599  0.00  0.00    -0.430 N 
HETATM   30  H   UNK N   1       6.015   6.969   0.642  0.00  0.00     0.149 HD
HETATM   31  H   UNK N   1       4.259   7.161   0.599  0.00  0.00     0.149 HD
ENDBRANCH  28  29
ENDBRANCH  27  28
ENDBRANCH  26  27
ENDBRANCH  24  26
BRANCH  24  32
HETATM   32  O   UNK N   1       2.866   1.994   1.021  0.00  0.00    -0.350 OA
HETATM   33  H   UNK N   1       2.515   1.717   1.845  0.00  0.00     0.219 HD
ENDBRANCH  24  32
ENDBRANCH   1  23
TORSDOF 16
