MODEL 1
REMARK VINA RESULT:      -6.2      0.000      0.000
REMARK  13 active torsions:
REMARK  status: ('A' for Active; 'I' for Inactive)
REMARK    1  A    between atoms: C_1  and  O_2 
REMARK    2  A    between atoms: C_1  and  C_5 
REMARK    3  A    between atoms: C_6  and  O_2 
REMARK    4  A    between atoms: C_4  and  O_9 
REMARK    5  A    between atoms: C_5  and  O_10 
REMARK    6  A    between atoms: C_7  and  C_13 
REMARK    7  A    between atoms: C_8  and  O_14 
REMARK    8  A    between atoms: C_12  and  O_17 
REMARK    9  A    between atoms: C_13  and  O_18 
REMARK   10  A    between atoms: C_15  and  C_20 
REMARK   11  A    between atoms: C_16  and  O_21 
REMARK   12  A    between atoms: C_19  and  O_22 
REMARK   13  A    between atoms: C_20  and  O_23 
ROOT
HETATM    1  O   UNK N   1      34.862  16.838   9.626  0.00  0.00    -0.318 OA
ENDROOT
BRANCH   1   2
HETATM    2  C   UNK N   1      34.038  17.097   8.498  0.00  0.00     0.217 C 
HETATM    3  O   UNK N   1      32.689  17.083   8.938  0.00  0.00    -0.341 OA
HETATM    4  C   UNK N   1      31.959  16.263   8.047  0.00  0.00     0.180 C 
HETATM    5  C   UNK N   1      32.818  16.004   6.834  0.00  0.00     0.183 C 
HETATM    6  C   UNK N   1      34.148  15.961   7.484  0.00  0.00     0.214 C 
BRANCH   4   7
HETATM    7  C   UNK N   1      30.661  16.947   7.650  0.00  0.00     0.198 C 
BRANCH   7   8
HETATM    8  O   UNK N   1      30.640  17.192   6.276  0.00  0.00    -0.398 OA
HETATM    9  H   UNK N   1      30.225  16.558   5.670  0.00  0.00     0.209 HD
ENDBRANCH   7   8
ENDBRANCH   4   7
BRANCH   5  10
HETATM   10  O   UNK N   1      32.510  14.771   6.257  0.00  0.00    -0.390 OA
HETATM   11  H   UNK N   1      33.105  14.015   6.380  0.00  0.00     0.210 HD
ENDBRANCH   5  10
BRANCH   6  12
HETATM   12  O   UNK N   1      35.183  16.140   6.562  0.00  0.00    -0.387 OA
HETATM   13  H   UNK N   1      35.444  16.228   5.632  0.00  0.00     0.210 HD
ENDBRANCH   6  12
BRANCH   2  14
HETATM   14  C   UNK N   1      34.291  18.478   7.856  0.00  0.00     0.235 C 
BRANCH  14  15
HETATM   15  O   UNK N   1      35.282  19.171   8.554  0.00  0.00    -0.395 OA
HETATM   16  H   UNK N   1      35.401  20.132   8.512  0.00  0.00     0.209 HD
ENDBRANCH  14  15
ENDBRANCH   2  14
ENDBRANCH   1   2
BRANCH   1  17
HETATM   17  C   UNK N   1      35.147  15.465   9.786  0.00  0.00     0.295 C 
HETATM   18  O   UNK N   1      36.552  15.318   9.831  0.00  0.00    -0.348 OA
HETATM   19  C   UNK N   1      36.878  13.945   9.835  0.00  0.00     0.179 C 
HETATM   20  C   UNK N   1      36.408  13.308  11.157  0.00  0.00     0.180 C 
HETATM   21  C   UNK N   1      34.901  13.495  11.277  0.00  0.00     0.183 C 
HETATM   22  C   UNK N   1      34.554  14.969  11.114  0.00  0.00     0.204 C 
BRANCH  19  23
HETATM   23  C   UNK N   1      38.393  13.835   9.691  0.00  0.00     0.198 C 
BRANCH  23  24
HETATM   24  O   UNK N   1      38.986  13.418  10.884  0.00  0.00    -0.398 OA
HETATM   25  H   UNK N   1      38.993  12.569  11.354  0.00  0.00     0.209 HD
ENDBRANCH  23  24
ENDBRANCH  19  23
BRANCH  20  26
HETATM   26  O   UNK N   1      36.703  11.944  11.189  0.00  0.00    -0.390 OA
HETATM   27  H   UNK N   1      36.443  11.226  10.590  0.00  0.00     0.210 HD
ENDBRANCH  20  26
BRANCH  21  28
HETATM   28  O   UNK N   1      34.457  13.033  12.516  0.00  0.00    -0.390 OA
HETATM   29  H   UNK N   1      35.036  12.591  13.156  0.00  0.00     0.210 HD
ENDBRANCH  21  28
BRANCH  22  30
HETATM   30  O   UNK N   1      33.169  15.126  11.138  0.00  0.00    -0.388 OA
HETATM   31  H   UNK N   1      32.572  14.368  11.243  0.00  0.00     0.210 HD
ENDBRANCH  22  30
ENDBRANCH   1  17
TORSDOF 13
ENDMDL
MODEL 2
REMARK VINA RESULT:      -5.9      2.775      7.131
REMARK  13 active torsions:
REMARK  status: ('A' for Active; 'I' for Inactive)
REMARK    1  A    between atoms: C_1  and  O_2 
REMARK    2  A    between atoms: C_1  and  C_5 
REMARK    3  A    between atoms: C_6  and  O_2 
REMARK    4  A    between atoms: C_4  and  O_9 
REMARK    5  A    between atoms: C_5  and  O_10 
REMARK    6  A    between atoms: C_7  and  C_13 
REMARK    7  A    between atoms: C_8  and  O_14 
REMARK    8  A    between atoms: C_12  and  O_17 
REMARK    9  A    between atoms: C_13  and  O_18 
REMARK   10  A    between atoms: C_15  and  C_20 
REMARK   11  A    between atoms: C_16  and  O_21 
REMARK   12  A    between atoms: C_19  and  O_22 
REMARK   13  A    between atoms: C_20  and  O_23 
ROOT
HETATM    1  O   UNK N   1      31.475  15.852   7.186  0.00  0.00    -0.318 OA
ENDROOT
BRANCH   1   2
HETATM    2  C   UNK N   1      32.862  16.108   7.353  0.00  0.00     0.217 C 
HETATM    3  O   UNK N   1      33.173  15.919   8.724  0.00  0.00    -0.341 OA
HETATM    4  C   UNK N   1      33.918  17.042   9.150  0.00  0.00     0.180 C 
HETATM    5  C   UNK N   1      34.352  17.812   7.927  0.00  0.00     0.183 C 
HETATM    6  C   UNK N   1      33.173  17.574   7.063  0.00  0.00     0.214 C 
BRANCH   4   7
HETATM    7  C   UNK N   1      35.127  16.593   9.957  0.00  0.00     0.198 C 
BRANCH   7   8
HETATM    8  O   UNK N   1      35.857  17.698  10.398  0.00  0.00    -0.398 OA
HETATM    9  H   UNK N   1      35.703  18.068  11.280  0.00  0.00     0.209 HD
ENDBRANCH   7   8
ENDBRANCH   4   7
BRANCH   5  10
HETATM   10  O   UNK N   1      34.488  19.171   8.214  0.00  0.00    -0.390 OA
HETATM   11  H   UNK N   1      33.726  19.765   8.127  0.00  0.00     0.210 HD
ENDBRANCH   5  10
BRANCH   6  12
HETATM   12  O   UNK N   1      33.457  17.824   5.717  0.00  0.00    -0.387 OA
HETATM   13  H   UNK N   1      33.118  18.066   4.841  0.00  0.00     0.210 HD
ENDBRANCH   6  12
BRANCH   2  14
HETATM   14  C   UNK N   1      33.765  15.150   6.548  0.00  0.00     0.235 C 
BRANCH  14  15
HETATM   15  O   UNK N   1      33.261  14.967   5.259  0.00  0.00    -0.395 OA
HETATM   16  H   UNK N   1      33.796  14.671   4.506  0.00  0.00     0.209 HD
ENDBRANCH  14  15
ENDBRANCH   2  14
ENDBRANCH   1   2
BRANCH   1  17
HETATM   17  C   UNK N   1      30.695  17.028   7.237  0.00  0.00     0.295 C 
HETATM   18  O   UNK N   1      29.890  17.062   6.076  0.00  0.00    -0.348 OA
HETATM   19  C   UNK N   1      29.212  18.299   6.015  0.00  0.00     0.179 C 
HETATM   20  C   UNK N   1      28.189  18.381   7.165  0.00  0.00     0.180 C 
HETATM   21  C   UNK N   1      28.933  18.250   8.487  0.00  0.00     0.183 C 
HETATM   22  C   UNK N   1      29.783  16.987   8.472  0.00  0.00     0.204 C 
BRANCH  19  23
HETATM   23  C   UNK N   1      28.510  18.369   4.661  0.00  0.00     0.198 C 
BRANCH  23  24
HETATM   24  O   UNK N   1      28.371  19.689   4.231  0.00  0.00    -0.398 OA
HETATM   25  H   UNK N   1      28.903  20.488   4.374  0.00  0.00     0.209 HD
ENDBRANCH  23  24
ENDBRANCH  19  23
BRANCH  20  26
HETATM   26  O   UNK N   1      27.507  19.600   7.143  0.00  0.00    -0.390 OA
HETATM   27  H   UNK N   1      27.809  20.497   7.355  0.00  0.00     0.210 HD
ENDBRANCH  20  26
BRANCH  21  28
HETATM   28  O   UNK N   1      28.025  18.205   9.546  0.00  0.00    -0.390 OA
HETATM   29  H   UNK N   1      28.148  18.698  10.372  0.00  0.00     0.210 HD
ENDBRANCH  21  28
BRANCH  22  30
HETATM   30  O   UNK N   1      30.528  16.915   9.648  0.00  0.00    -0.388 OA
HETATM   31  H   UNK N   1      30.134  17.109  10.514  0.00  0.00     0.210 HD
ENDBRANCH  22  30
ENDBRANCH   1  17
TORSDOF 13
ENDMDL
MODEL 3
REMARK VINA RESULT:      -5.8      2.335      6.612
REMARK  13 active torsions:
REMARK  status: ('A' for Active; 'I' for Inactive)
REMARK    1  A    between atoms: C_1  and  O_2 
REMARK    2  A    between atoms: C_1  and  C_5 
REMARK    3  A    between atoms: C_6  and  O_2 
REMARK    4  A    between atoms: C_4  and  O_9 
REMARK    5  A    between atoms: C_5  and  O_10 
REMARK    6  A    between atoms: C_7  and  C_13 
REMARK    7  A    between atoms: C_8  and  O_14 
REMARK    8  A    between atoms: C_12  and  O_17 
REMARK    9  A    between atoms: C_13  and  O_18 
REMARK   10  A    between atoms: C_15  and  C_20 
REMARK   11  A    between atoms: C_16  and  O_21 
REMARK   12  A    between atoms: C_19  and  O_22 
REMARK   13  A    between atoms: C_20  and  O_23 
ROOT
HETATM    1  O   UNK N   1      33.197  17.074   8.477  0.00  0.00    -0.318 OA
ENDROOT
BRANCH   1   2
HETATM    2  C   UNK N   1      33.841  15.873   8.874  0.00  0.00     0.217 C 
HETATM    3  O   UNK N   1      34.294  15.218   7.700  0.00  0.00    -0.341 OA
HETATM    4  C   UNK N   1      33.886  13.867   7.781  0.00  0.00     0.180 C 
HETATM    5  C   UNK N   1      33.431  13.597   9.193  0.00  0.00     0.183 C 
HETATM    6  C   UNK N   1      32.838  14.915   9.513  0.00  0.00     0.214 C 
BRANCH   4   7
HETATM    7  C   UNK N   1      35.037  12.949   7.403  0.00  0.00     0.198 C 
BRANCH   7   8
HETATM    8  O   UNK N   1      35.539  12.305   8.535  0.00  0.00    -0.398 OA
HETATM    9  H   UNK N   1      35.067  11.551   8.921  0.00  0.00     0.209 HD
ENDBRANCH   7   8
ENDBRANCH   4   7
BRANCH   5  10
HETATM   10  O   UNK N   1      32.457  12.597   9.221  0.00  0.00    -0.390 OA
HETATM   11  H   UNK N   1      31.818  12.520   8.495  0.00  0.00     0.210 HD
ENDBRANCH   5  10
BRANCH   6  12
HETATM   12  O   UNK N   1      32.696  15.100  10.891  0.00  0.00    -0.387 OA
HETATM   13  H   UNK N   1      32.945  14.817  11.785  0.00  0.00     0.210 HD
ENDBRANCH   6  12
BRANCH   2  14
HETATM   14  C   UNK N   1      35.077  16.105   9.769  0.00  0.00     0.235 C 
BRANCH  14  15
HETATM   15  O   UNK N   1      34.850  17.158  10.657  0.00  0.00    -0.395 OA
HETATM   16  H   UNK N   1      33.980  17.557  10.812  0.00  0.00     0.209 HD
ENDBRANCH  14  15
ENDBRANCH   2  14
ENDBRANCH   1   2
BRANCH   1  17
HETATM   17  C   UNK N   1      31.862  16.866   8.066  0.00  0.00     0.295 C 
HETATM   18  O   UNK N   1      31.038  17.732   8.818  0.00  0.00    -0.348 OA
HETATM   19  C   UNK N   1      29.684  17.442   8.546  0.00  0.00     0.179 C 
HETATM   20  C   UNK N   1      29.361  17.816   7.087  0.00  0.00     0.180 C 
HETATM   21  C   UNK N   1      30.270  17.012   6.167  0.00  0.00     0.183 C 
HETATM   22  C   UNK N   1      31.722  17.217   6.577  0.00  0.00     0.204 C 
BRANCH  19  23
HETATM   23  C   UNK N   1      28.837  18.263   9.515  0.00  0.00     0.198 C 
BRANCH  23  24
HETATM   24  O   UNK N   1      27.490  17.907   9.436  0.00  0.00    -0.398 OA
HETATM   25  H   UNK N   1      26.754  17.972  10.065  0.00  0.00     0.209 HD
ENDBRANCH  23  24
ENDBRANCH  19  23
BRANCH  20  26
HETATM   26  O   UNK N   1      28.030  17.529   6.779  0.00  0.00    -0.390 OA
HETATM   27  H   UNK N   1      27.587  17.426   5.921  0.00  0.00     0.210 HD
ENDBRANCH  20  26
BRANCH  21  28
HETATM   28  O   UNK N   1      30.086  17.410   4.842  0.00  0.00    -0.390 OA
HETATM   29  H   UNK N   1      29.756  18.287   4.592  0.00  0.00     0.210 HD
ENDBRANCH  21  28
BRANCH  22  30
HETATM   30  O   UNK N   1      32.545  16.414   5.789  0.00  0.00    -0.388 OA
HETATM   31  H   UNK N   1      32.671  16.586   4.842  0.00  0.00     0.210 HD
ENDBRANCH  22  30
ENDBRANCH   1  17
TORSDOF 13
ENDMDL
MODEL 4
REMARK VINA RESULT:      -5.8      2.697      6.850
REMARK  13 active torsions:
REMARK  status: ('A' for Active; 'I' for Inactive)
REMARK    1  A    between atoms: C_1  and  O_2 
REMARK    2  A    between atoms: C_1  and  C_5 
REMARK    3  A    between atoms: C_6  and  O_2 
REMARK    4  A    between atoms: C_4  and  O_9 
REMARK    5  A    between atoms: C_5  and  O_10 
REMARK    6  A    between atoms: C_7  and  C_13 
REMARK    7  A    between atoms: C_8  and  O_14 
REMARK    8  A    between atoms: C_12  and  O_17 
REMARK    9  A    between atoms: C_13  and  O_18 
REMARK   10  A    between atoms: C_15  and  C_20 
REMARK   11  A    between atoms: C_16  and  O_21 
REMARK   12  A    between atoms: C_19  and  O_22 
REMARK   13  A    between atoms: C_20  and  O_23 
ROOT
HETATM    1  O   UNK N   1      31.241  15.710   8.605  0.00  0.00    -0.318 OA
ENDROOT
BRANCH   1   2
HETATM    2  C   UNK N   1      32.640  15.948   8.590  0.00  0.00     0.217 C 
HETATM    3  O   UNK N   1      32.842  17.345   8.727  0.00  0.00    -0.341 OA
HETATM    4  C   UNK N   1      33.758  17.744   7.727  0.00  0.00     0.180 C 
HETATM    5  C   UNK N   1      34.387  16.503   7.143  0.00  0.00     0.183 C 
HETATM    6  C   UNK N   1      33.230  15.582   7.230  0.00  0.00     0.214 C 
BRANCH   4   7
HETATM    7  C   UNK N   1      34.821  18.653   8.323  0.00  0.00     0.198 C 
BRANCH   7   8
HETATM    8  O   UNK N   1      35.338  18.097   9.493  0.00  0.00    -0.398 OA
HETATM    9  H   UNK N   1      34.818  17.460  10.006  0.00  0.00     0.209 HD
ENDBRANCH   7   8
ENDBRANCH   4   7
BRANCH   5  10
HETATM   10  O   UNK N   1      34.756  16.708   5.812  0.00  0.00    -0.390 OA
HETATM   11  H   UNK N   1      34.109  17.052   5.176  0.00  0.00     0.210 HD
ENDBRANCH   5  10
BRANCH   6  12
HETATM   12  O   UNK N   1      33.623  14.244   7.138  0.00  0.00    -0.387 OA
HETATM   13  H   UNK N   1      33.406  13.314   7.308  0.00  0.00     0.210 HD
ENDBRANCH   6  12
BRANCH   2  14
HETATM   14  C   UNK N   1      33.392  15.266   9.753  0.00  0.00     0.235 C 
BRANCH  14  15
HETATM   15  O   UNK N   1      32.545  15.088  10.849  0.00  0.00    -0.395 OA
HETATM   16  H   UNK N   1      32.678  14.411  11.531  0.00  0.00     0.209 HD
ENDBRANCH  14  15
ENDBRANCH   2  14
ENDBRANCH   1   2
BRANCH   1  17
HETATM   17  C   UNK N   1      30.495  16.825   8.164  0.00  0.00     0.295 C 
HETATM   18  O   UNK N   1      29.980  16.521   6.884  0.00  0.00    -0.348 OA
HETATM   19  C   UNK N   1      29.360  17.669   6.345  0.00  0.00     0.179 C 
HETATM   20  C   UNK N   1      28.102  18.008   7.168  0.00  0.00     0.180 C 
HETATM   21  C   UNK N   1      28.518  18.258   8.612  0.00  0.00     0.183 C 
HETATM   22  C   UNK N   1      29.322  17.072   9.125  0.00  0.00     0.204 C 
BRANCH  19  23
HETATM   23  C   UNK N   1      28.991  17.353   4.899  0.00  0.00     0.198 C 
BRANCH  23  24
HETATM   24  O   UNK N   1      28.803  18.521   4.157  0.00  0.00    -0.398 OA
HETATM   25  H   UNK N   1      28.278  19.322   4.313  0.00  0.00     0.209 HD
ENDBRANCH  23  24
ENDBRANCH  19  23
BRANCH  20  26
HETATM   26  O   UNK N   1      27.469  19.149   6.670  0.00  0.00    -0.390 OA
HETATM   27  H   UNK N   1      27.546  20.080   6.932  0.00  0.00     0.210 HD
ENDBRANCH  20  26
BRANCH  21  28
HETATM   28  O   UNK N   1      27.390  18.454   9.409  0.00  0.00    -0.390 OA
HETATM   29  H   UNK N   1      27.204  17.930  10.203  0.00  0.00     0.210 HD
ENDBRANCH  21  28
BRANCH  22  30
HETATM   30  O   UNK N   1      29.774  17.340  10.415  0.00  0.00    -0.388 OA
HETATM   31  H   UNK N   1      30.160  16.647  10.975  0.00  0.00     0.210 HD
ENDBRANCH  22  30
ENDBRANCH   1  17
TORSDOF 13
ENDMDL
MODEL 5
REMARK VINA RESULT:      -5.8      1.690      2.376
REMARK  13 active torsions:
REMARK  status: ('A' for Active; 'I' for Inactive)
REMARK    1  A    between atoms: C_1  and  O_2 
REMARK    2  A    between atoms: C_1  and  C_5 
REMARK    3  A    between atoms: C_6  and  O_2 
REMARK    4  A    between atoms: C_4  and  O_9 
REMARK    5  A    between atoms: C_5  and  O_10 
REMARK    6  A    between atoms: C_7  and  C_13 
REMARK    7  A    between atoms: C_8  and  O_14 
REMARK    8  A    between atoms: C_12  and  O_17 
REMARK    9  A    between atoms: C_13  and  O_18 
REMARK   10  A    between atoms: C_15  and  C_20 
REMARK   11  A    between atoms: C_16  and  O_21 
REMARK   12  A    between atoms: C_19  and  O_22 
REMARK   13  A    between atoms: C_20  and  O_23 
ROOT
HETATM    1  O   UNK N   1      34.886  16.437   8.232  0.00  0.00    -0.318 OA
ENDROOT
BRANCH   1   2
HETATM    2  C   UNK N   1      33.757  17.219   7.872  0.00  0.00     0.217 C 
HETATM    3  O   UNK N   1      32.663  16.786   8.663  0.00  0.00    -0.341 OA
HETATM    4  C   UNK N   1      31.564  16.581   7.797  0.00  0.00     0.180 C 
HETATM    5  C   UNK N   1      31.895  17.203   6.463  0.00  0.00     0.183 C 
HETATM    6  C   UNK N   1      33.351  16.938   6.427  0.00  0.00     0.214 C 
BRANCH   4   7
HETATM    7  C   UNK N   1      30.310  17.209   8.384  0.00  0.00     0.198 C 
BRANCH   7   8
HETATM    8  O   UNK N   1      30.634  18.019   9.473  0.00  0.00    -0.398 OA
HETATM    9  H   UNK N   1      30.849  17.625  10.332  0.00  0.00     0.209 HD
ENDBRANCH   7   8
ENDBRANCH   4   7
BRANCH   5  10
HETATM   10  O   UNK N   1      31.245  16.533   5.424  0.00  0.00    -0.390 OA
HETATM   11  H   UNK N   1      31.170  15.567   5.442  0.00  0.00     0.210 HD
ENDBRANCH   5  10
BRANCH   6  12
HETATM   12  O   UNK N   1      34.006  17.753   5.499  0.00  0.00    -0.387 OA
HETATM   13  H   UNK N   1      34.791  18.278   5.282  0.00  0.00     0.210 HD
ENDBRANCH   6  12
BRANCH   2  14
HETATM   14  C   UNK N   1      33.942  18.728   8.141  0.00  0.00     0.235 C 
BRANCH  14  15
HETATM   15  O   UNK N   1      35.271  19.010   8.462  0.00  0.00    -0.395 OA
HETATM   16  H   UNK N   1      35.925  18.335   8.700  0.00  0.00     0.209 HD
ENDBRANCH  14  15
ENDBRANCH   2  14
ENDBRANCH   1   2
BRANCH   1  17
HETATM   17  C   UNK N   1      34.662  15.659   9.388  0.00  0.00     0.295 C 
HETATM   18  O   UNK N   1      34.740  14.298   9.014  0.00  0.00    -0.348 OA
HETATM   19  C   UNK N   1      34.368  13.491  10.111  0.00  0.00     0.179 C 
HETATM   20  C   UNK N   1      35.424  13.618  11.226  0.00  0.00     0.180 C 
HETATM   21  C   UNK N   1      35.509  15.080  11.649  0.00  0.00     0.183 C 
HETATM   22  C   UNK N   1      35.756  15.952  10.426  0.00  0.00     0.204 C 
BRANCH  19  23
HETATM   23  C   UNK N   1      34.282  12.052   9.610  0.00  0.00     0.198 C 
BRANCH  23  24
HETATM   24  O   UNK N   1      33.523  11.260  10.473  0.00  0.00    -0.398 OA
HETATM   25  H   UNK N   1      33.285  10.319  10.465  0.00  0.00     0.209 HD
ENDBRANCH  23  24
ENDBRANCH  19  23
BRANCH  20  26
HETATM   26  O   UNK N   1      35.079  12.842  12.334  0.00  0.00    -0.390 OA
HETATM   27  H   UNK N   1      34.245  12.404  12.564  0.00  0.00     0.210 HD
ENDBRANCH  20  26
BRANCH  21  28
HETATM   28  O   UNK N   1      36.537  15.251  12.576  0.00  0.00    -0.390 OA
HETATM   29  H   UNK N   1      36.875  14.533  13.133  0.00  0.00     0.210 HD
ENDBRANCH  21  28
BRANCH  22  30
HETATM   30  O   UNK N   1      35.748  17.293  10.803  0.00  0.00    -0.388 OA
HETATM   31  H   UNK N   1      36.284  17.957  10.339  0.00  0.00     0.210 HD
ENDBRANCH  22  30
ENDBRANCH   1  17
TORSDOF 13
ENDMDL
MODEL 6
REMARK VINA RESULT:      -5.8      1.410      6.124
REMARK  13 active torsions:
REMARK  status: ('A' for Active; 'I' for Inactive)
REMARK    1  A    between atoms: C_1  and  O_2 
REMARK    2  A    between atoms: C_1  and  C_5 
REMARK    3  A    between atoms: C_6  and  O_2 
REMARK    4  A    between atoms: C_4  and  O_9 
REMARK    5  A    between atoms: C_5  and  O_10 
REMARK    6  A    between atoms: C_7  and  C_13 
REMARK    7  A    between atoms: C_8  and  O_14 
REMARK    8  A    between atoms: C_12  and  O_17 
REMARK    9  A    between atoms: C_13  and  O_18 
REMARK   10  A    between atoms: C_15  and  C_20 
REMARK   11  A    between atoms: C_16  and  O_21 
REMARK   12  A    between atoms: C_19  and  O_22 
REMARK   13  A    between atoms: C_20  and  O_23 
ROOT
HETATM    1  O   UNK N   1      34.096  14.899  10.421  0.00  0.00    -0.318 OA
ENDROOT
BRANCH   1   2
HETATM    2  C   UNK N   1      35.163  14.067  10.853  0.00  0.00     0.217 C 
HETATM    3  O   UNK N   1      36.292  14.362  10.047  0.00  0.00    -0.341 OA
HETATM    4  C   UNK N   1      36.823  13.133   9.592  0.00  0.00     0.180 C 
HETATM    5  C   UNK N   1      36.190  12.022  10.390  0.00  0.00     0.183 C 
HETATM    6  C   UNK N   1      34.840  12.600  10.580  0.00  0.00     0.214 C 
BRANCH   4   7
HETATM    7  C   UNK N   1      38.335  13.121   9.761  0.00  0.00     0.198 C 
BRANCH   7   8
HETATM    8  O   UNK N   1      38.676  13.295  11.103  0.00  0.00    -0.398 OA
HETATM    9  H   UNK N   1      38.272  14.006  11.625  0.00  0.00     0.209 HD
ENDBRANCH   7   8
ENDBRANCH   4   7
BRANCH   5  10
HETATM   10  O   UNK N   1      36.122  10.845   9.642  0.00  0.00    -0.390 OA
HETATM   11  H   UNK N   1      35.961  10.885   8.686  0.00  0.00     0.210 HD
ENDBRANCH   5  10
BRANCH   6  12
HETATM   12  O   UNK N   1      34.152  11.980  11.627  0.00  0.00    -0.387 OA
HETATM   13  H   UNK N   1      33.864  11.151  12.039  0.00  0.00     0.210 HD
ENDBRANCH   6  12
BRANCH   2  14
HETATM   14  C   UNK N   1      35.577  14.310  12.320  0.00  0.00     0.235 C 
BRANCH  14  15
HETATM   15  O   UNK N   1      36.585  15.273  12.393  0.00  0.00    -0.395 OA
HETATM   16  H   UNK N   1      37.481  15.146  12.044  0.00  0.00     0.209 HD
ENDBRANCH  14  15
ENDBRANCH   2  14
ENDBRANCH   1   2
BRANCH   1  17
HETATM   17  C   UNK N   1      34.388  15.577   9.218  0.00  0.00     0.295 C 
HETATM   18  O   UNK N   1      33.307  15.370   8.332  0.00  0.00    -0.348 OA
HETATM   19  C   UNK N   1      33.632  15.902   7.066  0.00  0.00     0.179 C 
HETATM   20  C   UNK N   1      33.728  17.437   7.162  0.00  0.00     0.180 C 
HETATM   21  C   UNK N   1      34.805  17.793   8.179  0.00  0.00     0.183 C 
HETATM   22  C   UNK N   1      34.520  17.082   9.495  0.00  0.00     0.204 C 
BRANCH  19  23
HETATM   23  C   UNK N   1      32.525  15.489   6.099  0.00  0.00     0.198 C 
BRANCH  23  24
HETATM   24  O   UNK N   1      31.621  16.532   5.891  0.00  0.00    -0.398 OA
HETATM   25  H   UNK N   1      31.300  16.976   5.090  0.00  0.00     0.209 HD
ENDBRANCH  23  24
ENDBRANCH  19  23
BRANCH  20  26
HETATM   26  O   UNK N   1      34.062  17.997   5.927  0.00  0.00    -0.390 OA
HETATM   27  H   UNK N   1      34.928  18.186   5.532  0.00  0.00     0.210 HD
ENDBRANCH  20  26
BRANCH  21  28
HETATM   28  O   UNK N   1      34.840  19.174   8.377  0.00  0.00    -0.390 OA
HETATM   29  H   UNK N   1      34.045  19.709   8.526  0.00  0.00     0.210 HD
ENDBRANCH  21  28
BRANCH  22  30
HETATM   30  O   UNK N   1      35.552  17.341  10.395  0.00  0.00    -0.388 OA
HETATM   31  H   UNK N   1      36.444  17.579  10.094  0.00  0.00     0.210 HD
ENDBRANCH  22  30
ENDBRANCH   1  17
TORSDOF 13
ENDMDL
MODEL 7
REMARK VINA RESULT:      -5.6      2.375      7.022
REMARK  13 active torsions:
REMARK  status: ('A' for Active; 'I' for Inactive)
REMARK    1  A    between atoms: C_1  and  O_2 
REMARK    2  A    between atoms: C_1  and  C_5 
REMARK    3  A    between atoms: C_6  and  O_2 
REMARK    4  A    between atoms: C_4  and  O_9 
REMARK    5  A    between atoms: C_5  and  O_10 
REMARK    6  A    between atoms: C_7  and  C_13 
REMARK    7  A    between atoms: C_8  and  O_14 
REMARK    8  A    between atoms: C_12  and  O_17 
REMARK    9  A    between atoms: C_13  and  O_18 
REMARK   10  A    between atoms: C_15  and  C_20 
REMARK   11  A    between atoms: C_16  and  O_21 
REMARK   12  A    between atoms: C_19  and  O_22 
REMARK   13  A    between atoms: C_20  and  O_23 
ROOT
HETATM    1  O   UNK N   1      32.084  17.538   6.559  0.00  0.00    -0.318 OA
ENDROOT
BRANCH   1   2
HETATM    2  C   UNK N   1      33.183  16.839   7.125  0.00  0.00     0.217 C 
HETATM    3  O   UNK N   1      32.668  15.716   7.820  0.00  0.00    -0.341 OA
HETATM    4  C   UNK N   1      33.264  15.698   9.102  0.00  0.00     0.180 C 
HETATM    5  C   UNK N   1      34.422  16.664   9.096  0.00  0.00     0.183 C 
HETATM    6  C   UNK N   1      33.873  17.694   8.185  0.00  0.00     0.214 C 
BRANCH   4   7
HETATM    7  C   UNK N   1      33.740  14.293   9.439  0.00  0.00     0.198 C 
BRANCH   7   8
HETATM    8  O   UNK N   1      33.949  14.165  10.813  0.00  0.00    -0.398 OA
HETATM    9  H   UNK N   1      34.560  13.497  11.157  0.00  0.00     0.209 HD
ENDBRANCH   7   8
ENDBRANCH   4   7
BRANCH   5  10
HETATM   10  O   UNK N   1      34.637  17.195  10.369  0.00  0.00    -0.390 OA
HETATM   11  H   UNK N   1      35.487  17.056  10.816  0.00  0.00     0.210 HD
ENDBRANCH   5  10
BRANCH   6  12
HETATM   12  O   UNK N   1      34.875  18.518   7.667  0.00  0.00    -0.387 OA
HETATM   13  H   UNK N   1      35.825  18.689   7.570  0.00  0.00     0.210 HD
ENDBRANCH   6  12
BRANCH   2  14
HETATM   14  C   UNK N   1      34.177  16.303   6.072  0.00  0.00     0.235 C 
BRANCH  14  15
HETATM   15  O   UNK N   1      33.533  15.446   5.178  0.00  0.00    -0.395 OA
HETATM   16  H   UNK N   1      33.958  14.682   4.759  0.00  0.00     0.209 HD
ENDBRANCH  14  15
ENDBRANCH   2  14
ENDBRANCH   1   2
BRANCH   1  17
HETATM   17  C   UNK N   1      30.841  16.956   6.890  0.00  0.00     0.295 C 
HETATM   18  O   UNK N   1      30.162  17.847   7.750  0.00  0.00    -0.348 OA
HETATM   19  C   UNK N   1      28.984  17.231   8.225  0.00  0.00     0.179 C 
HETATM   20  C   UNK N   1      27.998  17.038   7.057  0.00  0.00     0.180 C 
HETATM   21  C   UNK N   1      28.663  16.165   6.000  0.00  0.00     0.183 C 
HETATM   22  C   UNK N   1      30.007  16.766   5.614  0.00  0.00     0.204 C 
BRANCH  19  23
HETATM   23  C   UNK N   1      28.388  18.146   9.291  0.00  0.00     0.198 C 
BRANCH  23  24
HETATM   24  O   UNK N   1      27.441  19.013   8.741  0.00  0.00    -0.398 OA
HETATM   25  H   UNK N   1      26.673  18.870   8.166  0.00  0.00     0.209 HD
ENDBRANCH  23  24
ENDBRANCH  19  23
BRANCH  20  26
HETATM   26  O   UNK N   1      26.825  16.417   7.490  0.00  0.00    -0.390 OA
HETATM   27  H   UNK N   1      25.929  16.428   7.118  0.00  0.00     0.210 HD
ENDBRANCH  20  26
BRANCH  21  28
HETATM   28  O   UNK N   1      27.842  16.064   4.876  0.00  0.00    -0.390 OA
HETATM   29  H   UNK N   1      26.876  16.149   4.915  0.00  0.00     0.210 HD
ENDBRANCH  21  28
BRANCH  22  30
HETATM   30  O   UNK N   1      30.651  15.922   4.711  0.00  0.00    -0.388 OA
HETATM   31  H   UNK N   1      31.605  15.749   4.765  0.00  0.00     0.210 HD
ENDBRANCH  22  30
ENDBRANCH   1  17
TORSDOF 13
ENDMDL
MODEL 8
REMARK VINA RESULT:      -5.6      2.475      3.733
REMARK  13 active torsions:
REMARK  status: ('A' for Active; 'I' for Inactive)
REMARK    1  A    between atoms: C_1  and  O_2 
REMARK    2  A    between atoms: C_1  and  C_5 
REMARK    3  A    between atoms: C_6  and  O_2 
REMARK    4  A    between atoms: C_4  and  O_9 
REMARK    5  A    between atoms: C_5  and  O_10 
REMARK    6  A    between atoms: C_7  and  C_13 
REMARK    7  A    between atoms: C_8  and  O_14 
REMARK    8  A    between atoms: C_12  and  O_17 
REMARK    9  A    between atoms: C_13  and  O_18 
REMARK   10  A    between atoms: C_15  and  C_20 
REMARK   11  A    between atoms: C_16  and  O_21 
REMARK   12  A    between atoms: C_19  and  O_22 
REMARK   13  A    between atoms: C_20  and  O_23 
ROOT
HETATM    1  O   UNK N   1      34.350  14.444  11.649  0.00  0.00    -0.318 OA
ENDROOT
BRANCH   1   2
HETATM    2  C   UNK N   1      34.927  14.997  10.475  0.00  0.00     0.217 C 
HETATM    3  O   UNK N   1      34.584  16.373  10.434  0.00  0.00    -0.341 OA
HETATM    4  C   UNK N   1      34.094  16.651   9.137  0.00  0.00     0.180 C 
HETATM    5  C   UNK N   1      34.431  15.481   8.246  0.00  0.00     0.183 C 
HETATM    6  C   UNK N   1      34.296  14.382   9.228  0.00  0.00     0.214 C 
BRANCH   4   7
HETATM    7  C   UNK N   1      34.720  17.930   8.604  0.00  0.00     0.198 C 
BRANCH   7   8
HETATM    8  O   UNK N   1      34.592  17.993   7.216  0.00  0.00    -0.398 OA
HETATM    9  H   UNK N   1      34.854  18.792   6.734  0.00  0.00     0.209 HD
ENDBRANCH   7   8
ENDBRANCH   4   7
BRANCH   5  10
HETATM   10  O   UNK N   1      33.492  15.347   7.222  0.00  0.00    -0.390 OA
HETATM   11  H   UNK N   1      33.654  15.755   6.357  0.00  0.00     0.210 HD
ENDBRANCH   5  10
BRANCH   6  12
HETATM   12  O   UNK N   1      34.941  13.219   8.798  0.00  0.00    -0.387 OA
HETATM   13  H   UNK N   1      35.029  12.256   8.876  0.00  0.00     0.210 HD
ENDBRANCH   6  12
BRANCH   2  14
HETATM   14  C   UNK N   1      36.468  14.914  10.450  0.00  0.00     0.235 C 
BRANCH  14  15
HETATM   15  O   UNK N   1      37.033  16.123  10.859  0.00  0.00    -0.395 OA
HETATM   16  H   UNK N   1      36.941  16.489  11.752  0.00  0.00     0.209 HD
ENDBRANCH  14  15
ENDBRANCH   2  14
ENDBRANCH   1   2
BRANCH   1  17
HETATM   17  C   UNK N   1      35.238  13.594  12.343  0.00  0.00     0.295 C 
HETATM   18  O   UNK N   1      35.394  14.106  13.650  0.00  0.00    -0.348 OA
HETATM   19  C   UNK N   1      36.394  13.372  14.323  0.00  0.00     0.179 C 
HETATM   20  C   UNK N   1      35.903  11.930  14.559  0.00  0.00     0.180 C 
HETATM   21  C   UNK N   1      35.597  11.295  13.209  0.00  0.00     0.183 C 
HETATM   22  C   UNK N   1      34.635  12.183  12.432  0.00  0.00     0.204 C 
BRANCH  19  23
HETATM   23  C   UNK N   1      36.662  14.075  15.651  0.00  0.00     0.198 C 
BRANCH  23  24
HETATM   24  O   UNK N   1      37.695  15.006  15.531  0.00  0.00    -0.398 OA
HETATM   25  H   UNK N   1      38.193  15.343  14.770  0.00  0.00     0.209 HD
ENDBRANCH  23  24
ENDBRANCH  19  23
BRANCH  20  26
HETATM   26  O   UNK N   1      36.875  11.170  15.212  0.00  0.00    -0.390 OA
HETATM   27  H   UNK N   1      37.731  10.835  14.901  0.00  0.00     0.210 HD
ENDBRANCH  20  26
BRANCH  21  28
HETATM   28  O   UNK N   1      35.040  10.028  13.390  0.00  0.00    -0.390 OA
HETATM   29  H   UNK N   1      34.726   9.477  12.656  0.00  0.00     0.210 HD
ENDBRANCH  21  28
BRANCH  22  30
HETATM   30  O   UNK N   1      34.425  11.643  11.164  0.00  0.00    -0.388 OA
HETATM   31  H   UNK N   1      34.916  11.957  10.388  0.00  0.00     0.210 HD
ENDBRANCH  22  30
ENDBRANCH   1  17
TORSDOF 13
ENDMDL
MODEL 9
REMARK VINA RESULT:      -5.5     13.855     15.165
REMARK  13 active torsions:
REMARK  status: ('A' for Active; 'I' for Inactive)
REMARK    1  A    between atoms: C_1  and  O_2 
REMARK    2  A    between atoms: C_1  and  C_5 
REMARK    3  A    between atoms: C_6  and  O_2 
REMARK    4  A    between atoms: C_4  and  O_9 
REMARK    5  A    between atoms: C_5  and  O_10 
REMARK    6  A    between atoms: C_7  and  C_13 
REMARK    7  A    between atoms: C_8  and  O_14 
REMARK    8  A    between atoms: C_12  and  O_17 
REMARK    9  A    between atoms: C_13  and  O_18 
REMARK   10  A    between atoms: C_15  and  C_20 
REMARK   11  A    between atoms: C_16  and  O_21 
REMARK   12  A    between atoms: C_19  and  O_22 
REMARK   13  A    between atoms: C_20  and  O_23 
ROOT
HETATM    1  O   UNK N   1      19.664  16.389   4.241  0.00  0.00    -0.318 OA
ENDROOT
BRANCH   1   2
HETATM    2  C   UNK N   1      20.498  17.072   3.317  0.00  0.00     0.217 C 
HETATM    3  O   UNK N   1      21.356  17.924   4.058  0.00  0.00    -0.341 OA
HETATM    4  C   UNK N   1      21.311  19.203   3.456  0.00  0.00     0.180 C 
HETATM    5  C   UNK N   1      20.643  19.066   2.111  0.00  0.00     0.183 C 
HETATM    6  C   UNK N   1      19.668  17.999   2.432  0.00  0.00     0.214 C 
BRANCH   4   7
HETATM    7  C   UNK N   1      22.718  19.759   3.303  0.00  0.00     0.198 C 
BRANCH   7   8
HETATM    8  O   UNK N   1      22.676  21.054   2.785  0.00  0.00    -0.398 OA
HETATM    9  H   UNK N   1      23.083  21.254   1.928  0.00  0.00     0.209 HD
ENDBRANCH   7   8
ENDBRANCH   4   7
BRANCH   5  10
HETATM   10  O   UNK N   1      19.986  20.246   1.757  0.00  0.00    -0.390 OA
HETATM   11  H   UNK N   1      20.486  21.072   1.664  0.00  0.00     0.210 HD
ENDBRANCH   5  10
BRANCH   6  12
HETATM   12  O   UNK N   1      19.181  17.376   1.280  0.00  0.00    -0.387 OA
HETATM   13  H   UNK N   1      18.569  16.728   0.896  0.00  0.00     0.210 HD
ENDBRANCH   6  12
BRANCH   2  14
HETATM   14  C   UNK N   1      21.400  16.131   2.490  0.00  0.00     0.235 C 
BRANCH  14  15
HETATM   15  O   UNK N   1      20.677  15.022   2.046  0.00  0.00    -0.395 OA
HETATM   16  H   UNK N   1      20.234  14.974   1.185  0.00  0.00     0.209 HD
ENDBRANCH  14  15
ENDBRANCH   2  14
ENDBRANCH   1   2
BRANCH   1  17
HETATM   17  C   UNK N   1      20.328  16.082   5.449  0.00  0.00     0.295 C 
HETATM   18  O   UNK N   1      19.729  16.844   6.476  0.00  0.00    -0.348 OA
HETATM   19  C   UNK N   1      20.466  16.681   7.669  0.00  0.00     0.179 C 
HETATM   20  C   UNK N   1      20.323  15.231   8.168  0.00  0.00     0.180 C 
HETATM   21  C   UNK N   1      20.848  14.292   7.089  0.00  0.00     0.183 C 
HETATM   22  C   UNK N   1      20.150  14.590   5.769  0.00  0.00     0.204 C 
BRANCH  19  23
HETATM   23  C   UNK N   1      19.901  17.663   8.693  0.00  0.00     0.198 C 
BRANCH  23  24
HETATM   24  O   UNK N   1      20.274  18.975   8.395  0.00  0.00    -0.398 OA
HETATM   25  H   UNK N   1      20.786  19.640   8.881  0.00  0.00     0.209 HD
ENDBRANCH  23  24
ENDBRANCH  19  23
BRANCH  20  26
HETATM   26  O   UNK N   1      21.053  15.030   9.342  0.00  0.00    -0.390 OA
HETATM   27  H   UNK N   1      21.400  15.666   9.987  0.00  0.00     0.210 HD
ENDBRANCH  20  26
BRANCH  21  28
HETATM   28  O   UNK N   1      20.628  12.965   7.458  0.00  0.00    -0.390 OA
HETATM   29  H   UNK N   1      21.052  12.213   7.015  0.00  0.00     0.210 HD
ENDBRANCH  21  28
BRANCH  22  30
HETATM   30  O   UNK N   1      20.692  13.790   4.765  0.00  0.00    -0.388 OA
HETATM   31  H   UNK N   1      20.509  13.956   3.826  0.00  0.00     0.210 HD
ENDBRANCH  22  30
ENDBRANCH   1  17
TORSDOF 13
ENDMDL
