MODEL 1
REMARK VINA RESULT:      -5.7      0.000      0.000
REMARK  6 active torsions:
REMARK  status: ('A' for Active; 'I' for Inactive)
REMARK    1  A    between atoms: C_1  and  O_7 
REMARK    2  A    between atoms: C_2  and  O_8 
REMARK    3  A    between atoms: C_3  and  O_9 
REMARK    4  A    between atoms: C_4  and  C_5 
REMARK    5  A    between atoms: O_11  and  C_5 
REMARK    6  A    between atoms: C_6  and  O_12 
ROOT
HETATM    1  C   UNK N   1      35.021  13.481  11.406  0.00  0.00     0.183 C 
HETATM    2  C   UNK N   1      34.576  14.947  11.308  0.00  0.00     0.189 C 
HETATM    3  C   UNK N   1      36.553  13.412  11.469  0.00  0.00     0.204 C 
HETATM    4  C   UNK N   1      35.274  15.573  10.078  0.00  0.00     0.253 C 
HETATM    5  C   UNK N   1      37.139  14.178  10.267  0.00  0.00     0.289 C 
HETATM    6  O   UNK N   1      36.685  15.522  10.248  0.00  0.00    -0.340 OA
ENDROOT
BRANCH   4   7
HETATM    7  C   UNK N   1      34.878  17.009   9.842  0.00  0.00     0.172 C 
HETATM    8  O   UNK N   1      35.692  17.898  10.037  0.00  0.00    -0.648 OA
BRANCH   7   9
HETATM    9  O   UNK N   1      33.643  17.329   9.406  0.00  0.00    -0.774 OA
HETATM   10  H   UNK N   1      33.240  18.175   9.442  0.00  0.00     0.167 HD
ENDBRANCH   7   9
ENDBRANCH   4   7
BRANCH   2  11
HETATM   11  O   UNK N   1      33.187  15.004  11.167  0.00  0.00    -0.390 OA
HETATM   12  H   UNK N   1      32.679  15.516  10.518  0.00  0.00     0.210 HD
ENDBRANCH   2  11
BRANCH   1  13
HETATM   13  O   UNK N   1      34.458  12.870  12.530  0.00  0.00    -0.390 OA
HETATM   14  H   UNK N   1      33.608  12.410  12.459  0.00  0.00     0.210 HD
ENDBRANCH   1  13
BRANCH   5  15
HETATM   15  O   UNK N   1      38.532  14.175  10.359  0.00  0.00    -0.368 OA
HETATM   16  H   UNK N   1      39.091  13.574  10.877  0.00  0.00     0.212 HD
ENDBRANCH   5  15
BRANCH   3  17
HETATM   17  O   UNK N   1      37.007  13.983  12.662  0.00  0.00    -0.388 OA
HETATM   18  H   UNK N   1      37.298  14.085  13.583  0.00  0.00     0.210 HD
ENDBRANCH   3  17
TORSDOF 6
ENDMDL
MODEL 2
REMARK VINA RESULT:      -5.3     16.029     17.572
REMARK  6 active torsions:
REMARK  status: ('A' for Active; 'I' for Inactive)
REMARK    1  A    between atoms: C_1  and  O_7 
REMARK    2  A    between atoms: C_2  and  O_8 
REMARK    3  A    between atoms: C_3  and  O_9 
REMARK    4  A    between atoms: C_4  and  C_5 
REMARK    5  A    between atoms: O_11  and  C_5 
REMARK    6  A    between atoms: C_6  and  O_12 
ROOT
HETATM    1  C   UNK N   1      20.205  17.502   1.481  0.00  0.00     0.183 C 
HETATM    2  C   UNK N   1      20.350  19.030   1.524  0.00  0.00     0.189 C 
HETATM    3  C   UNK N   1      20.088  16.957   2.910  0.00  0.00     0.204 C 
HETATM    4  C   UNK N   1      21.569  19.366   2.415  0.00  0.00     0.253 C 
HETATM    5  C   UNK N   1      21.287  17.461   3.739  0.00  0.00     0.289 C 
HETATM    6  O   UNK N   1      21.350  18.878   3.733  0.00  0.00    -0.340 OA
ENDROOT
BRANCH   4   7
HETATM    7  C   UNK N   1      21.849  20.846   2.498  0.00  0.00     0.172 C 
HETATM    8  O   UNK N   1      22.919  21.231   2.943  0.00  0.00    -0.648 OA
BRANCH   7   9
HETATM    9  O   UNK N   1      20.944  21.751   2.077  0.00  0.00    -0.774 OA
HETATM   10  H   UNK N   1      20.630  21.861   1.200  0.00  0.00     0.167 HD
ENDBRANCH   7   9
ENDBRANCH   4   7
BRANCH   2  11
HETATM   11  O   UNK N   1      20.539  19.517   0.227  0.00  0.00    -0.390 OA
HETATM   12  H   UNK N   1      21.363  19.531  -0.284  0.00  0.00     0.210 HD
ENDBRANCH   2  11
BRANCH   1  13
HETATM   13  O   UNK N   1      19.088  17.135   0.726  0.00  0.00    -0.390 OA
HETATM   14  H   UNK N   1      18.915  16.200   0.535  0.00  0.00     0.210 HD
ENDBRANCH   1  13
BRANCH   5  15
HETATM   15  O   UNK N   1      21.147  17.023   5.056  0.00  0.00    -0.368 OA
HETATM   16  H   UNK N   1      20.482  17.300   5.707  0.00  0.00     0.212 HD
ENDBRANCH   5  15
BRANCH   3  17
HETATM   17  O   UNK N   1      18.893  17.392   3.491  0.00  0.00    -0.388 OA
HETATM   18  H   UNK N   1      18.122  17.938   3.713  0.00  0.00     0.210 HD
ENDBRANCH   3  17
TORSDOF 6
ENDMDL
MODEL 3
REMARK VINA RESULT:      -5.1     14.704     17.075
REMARK  6 active torsions:
REMARK  status: ('A' for Active; 'I' for Inactive)
REMARK    1  A    between atoms: C_1  and  O_7 
REMARK    2  A    between atoms: C_2  and  O_8 
REMARK    3  A    between atoms: C_3  and  O_9 
REMARK    4  A    between atoms: C_4  and  C_5 
REMARK    5  A    between atoms: O_11  and  C_5 
REMARK    6  A    between atoms: C_6  and  O_12 
ROOT
HETATM    1  C   UNK N   1      20.373  19.074   3.193  0.00  0.00     0.183 C 
HETATM    2  C   UNK N   1      21.897  18.983   3.356  0.00  0.00     0.189 C 
HETATM    3  C   UNK N   1      20.031  19.403   1.734  0.00  0.00     0.204 C 
HETATM    4  C   UNK N   1      22.506  20.317   2.864  0.00  0.00     0.253 C 
HETATM    5  C   UNK N   1      20.795  20.675   1.314  0.00  0.00     0.289 C 
HETATM    6  O   UNK N   1      22.193  20.512   1.491  0.00  0.00    -0.340 OA
ENDROOT
BRANCH   4   7
HETATM    7  C   UNK N   1      24.006  20.374   3.020  0.00  0.00     0.172 C 
HETATM    8  O   UNK N   1      24.519  19.972   4.052  0.00  0.00    -0.648 OA
BRANCH   7   9
HETATM    9  O   UNK N   1      24.791  20.850   2.033  0.00  0.00    -0.774 OA
HETATM   10  H   UNK N   1      25.697  20.649   1.895  0.00  0.00     0.167 HD
ENDBRANCH   7   9
ENDBRANCH   4   7
BRANCH   2  11
HETATM   11  O   UNK N   1      22.209  18.766   4.701  0.00  0.00    -0.390 OA
HETATM   12  H   UNK N   1      21.812  19.193   5.476  0.00  0.00     0.210 HD
ENDBRANCH   2  11
BRANCH   1  13
HETATM   13  O   UNK N   1      19.765  17.877   3.579  0.00  0.00    -0.390 OA
HETATM   14  H   UNK N   1      19.896  17.073   3.054  0.00  0.00     0.210 HD
ENDBRANCH   1  13
BRANCH   5  15
HETATM   15  O   UNK N   1      20.539  20.937  -0.033  0.00  0.00    -0.368 OA
HETATM   16  H   UNK N   1      20.234  21.770  -0.427  0.00  0.00     0.212 HD
ENDBRANCH   5  15
BRANCH   3  17
HETATM   17  O   UNK N   1      20.396  18.336   0.906  0.00  0.00    -0.388 OA
HETATM   18  H   UNK N   1      20.550  17.794   0.116  0.00  0.00     0.210 HD
ENDBRANCH   3  17
TORSDOF 6
ENDMDL
MODEL 4
REMARK VINA RESULT:      -5.1      1.514      4.311
REMARK  6 active torsions:
REMARK  status: ('A' for Active; 'I' for Inactive)
REMARK    1  A    between atoms: C_1  and  O_7 
REMARK    2  A    between atoms: C_2  and  O_8 
REMARK    3  A    between atoms: C_3  and  O_9 
REMARK    4  A    between atoms: C_4  and  C_5 
REMARK    5  A    between atoms: O_11  and  C_5 
REMARK    6  A    between atoms: C_6  and  O_12 
ROOT
HETATM    1  C   UNK N   1      34.969  15.878   9.894  0.00  0.00     0.183 C 
HETATM    2  C   UNK N   1      36.010  15.274  10.847  0.00  0.00     0.189 C 
HETATM    3  C   UNK N   1      33.727  14.978   9.852  0.00  0.00     0.204 C 
HETATM    4  C   UNK N   1      36.307  13.833  10.372  0.00  0.00     0.253 C 
HETATM    5  C   UNK N   1      34.160  13.542   9.497  0.00  0.00     0.289 C 
HETATM    6  O   UNK N   1      35.118  13.055  10.422  0.00  0.00    -0.340 OA
ENDROOT
BRANCH   4   7
HETATM    7  C   UNK N   1      37.360  13.143  11.203  0.00  0.00     0.172 C 
HETATM    8  O   UNK N   1      37.021  12.361  12.076  0.00  0.00    -0.648 OA
BRANCH   7   9
HETATM    9  O   UNK N   1      38.673  13.365  10.989  0.00  0.00    -0.774 OA
HETATM   10  H   UNK N   1      39.219  12.926  10.366  0.00  0.00     0.167 HD
ENDBRANCH   7   9
ENDBRANCH   4   7
BRANCH   2  11
HETATM   11  O   UNK N   1      37.172  16.051  10.820  0.00  0.00    -0.390 OA
HETATM   12  H   UNK N   1      37.268  16.959  10.494  0.00  0.00     0.210 HD
ENDBRANCH   2  11
BRANCH   1  13
HETATM   13  O   UNK N   1      34.622  17.170  10.299  0.00  0.00    -0.390 OA
HETATM   14  H   UNK N   1      35.314  17.813  10.519  0.00  0.00     0.210 HD
ENDBRANCH   1  13
BRANCH   5  15
HETATM   15  O   UNK N   1      33.042  12.708   9.525  0.00  0.00    -0.368 OA
HETATM   16  H   UNK N   1      32.762  12.067   8.852  0.00  0.00     0.212 HD
ENDBRANCH   5  15
BRANCH   3  17
HETATM   17  O   UNK N   1      33.090  14.987  11.097  0.00  0.00    -0.388 OA
HETATM   18  H   UNK N   1      32.400  15.021  11.779  0.00  0.00     0.210 HD
ENDBRANCH   3  17
TORSDOF 6
ENDMDL
MODEL 5
REMARK VINA RESULT:      -5.0      1.888      2.954
REMARK  6 active torsions:
REMARK  status: ('A' for Active; 'I' for Inactive)
REMARK    1  A    between atoms: C_1  and  O_7 
REMARK    2  A    between atoms: C_2  and  O_8 
REMARK    3  A    between atoms: C_3  and  O_9 
REMARK    4  A    between atoms: C_4  and  C_5 
REMARK    5  A    between atoms: O_11  and  C_5 
REMARK    6  A    between atoms: C_6  and  O_12 
ROOT
HETATM    1  C   UNK N   1      33.598  14.445   9.049  0.00  0.00     0.183 C 
HETATM    2  C   UNK N   1      33.319  15.877   8.571  0.00  0.00     0.189 C 
HETATM    3  C   UNK N   1      34.405  14.487  10.353  0.00  0.00     0.204 C 
HETATM    4  C   UNK N   1      34.677  16.604   8.434  0.00  0.00     0.253 C 
HETATM    5  C   UNK N   1      35.668  15.344  10.135  0.00  0.00     0.289 C 
HETATM    6  O   UNK N   1      35.328  16.650   9.698  0.00  0.00    -0.340 OA
ENDROOT
BRANCH   4   7
HETATM    7  C   UNK N   1      34.542  18.016   7.920  0.00  0.00     0.172 C 
HETATM    8  O   UNK N   1      33.837  18.237   6.948  0.00  0.00    -0.648 OA
BRANCH   7   9
HETATM    9  O   UNK N   1      35.176  19.041   8.523  0.00  0.00    -0.774 OA
HETATM   10  H   UNK N   1      36.101  19.198   8.531  0.00  0.00     0.167 HD
ENDBRANCH   7   9
ENDBRANCH   4   7
BRANCH   2  11
HETATM   11  O   UNK N   1      32.656  15.837   7.341  0.00  0.00    -0.390 OA
HETATM   12  H   UNK N   1      31.700  15.793   7.187  0.00  0.00     0.210 HD
ENDBRANCH   2  11
BRANCH   1  13
HETATM   13  O   UNK N   1      32.402  13.747   9.237  0.00  0.00    -0.390 OA
HETATM   14  H   UNK N   1      32.191  12.984   8.679  0.00  0.00     0.210 HD
ENDBRANCH   1  13
BRANCH   5  15
HETATM   15  O   UNK N   1      36.368  15.440  11.338  0.00  0.00    -0.368 OA
HETATM   16  H   UNK N   1      36.215  14.940  12.156  0.00  0.00     0.212 HD
ENDBRANCH   5  15
BRANCH   3  17
HETATM   17  O   UNK N   1      33.629  15.039  11.377  0.00  0.00    -0.388 OA
HETATM   18  H   UNK N   1      32.954  15.145  12.067  0.00  0.00     0.210 HD
ENDBRANCH   3  17
TORSDOF 6
ENDMDL
MODEL 6
REMARK VINA RESULT:      -5.0     11.302     13.188
REMARK  6 active torsions:
REMARK  status: ('A' for Active; 'I' for Inactive)
REMARK    1  A    between atoms: C_1  and  O_7 
REMARK    2  A    between atoms: C_2  and  O_8 
REMARK    3  A    between atoms: C_3  and  O_9 
REMARK    4  A    between atoms: C_4  and  C_5 
REMARK    5  A    between atoms: O_11  and  C_5 
REMARK    6  A    between atoms: C_6  and  O_12 
ROOT
HETATM    1  C   UNK N   1      44.705  22.224   3.074  0.00  0.00     0.183 C 
HETATM    2  C   UNK N   1      43.932  21.026   3.643  0.00  0.00     0.189 C 
HETATM    3  C   UNK N   1      43.768  23.433   2.958  0.00  0.00     0.204 C 
HETATM    4  C   UNK N   1      42.709  20.774   2.730  0.00  0.00     0.253 C 
HETATM    5  C   UNK N   1      42.526  23.028   2.139  0.00  0.00     0.289 C 
HETATM    6  O   UNK N   1      41.866  21.919   2.729  0.00  0.00    -0.340 OA
ENDROOT
BRANCH   4   7
HETATM    7  C   UNK N   1      41.889  19.583   3.158  0.00  0.00     0.172 C 
HETATM    8  O   UNK N   1      42.300  18.456   2.928  0.00  0.00    -0.648 OA
BRANCH   7   9
HETATM    9  O   UNK N   1      40.715  19.739   3.800  0.00  0.00    -0.774 OA
HETATM   10  H   UNK N   1      39.969  20.219   3.493  0.00  0.00     0.167 HD
ENDBRANCH   7   9
ENDBRANCH   4   7
BRANCH   2  11
HETATM   11  O   UNK N   1      44.765  19.904   3.671  0.00  0.00    -0.390 OA
HETATM   12  H   UNK N   1      45.257  19.516   2.931  0.00  0.00     0.210 HD
ENDBRANCH   2  11
BRANCH   1  13
HETATM   13  O   UNK N   1      45.801  22.533   3.884  0.00  0.00    -0.390 OA
HETATM   14  H   UNK N   1      46.662  22.728   3.484  0.00  0.00     0.210 HD
ENDBRANCH   1  13
BRANCH   5  15
HETATM   15  O   UNK N   1      41.640  24.105   2.090  0.00  0.00    -0.368 OA
HETATM   16  H   UNK N   1      41.322  24.646   2.830  0.00  0.00     0.212 HD
ENDBRANCH   5  15
BRANCH   3  17
HETATM   17  O   UNK N   1      43.377  23.858   4.231  0.00  0.00    -0.388 OA
HETATM   18  H   UNK N   1      42.834  24.173   4.971  0.00  0.00     0.210 HD
ENDBRANCH   3  17
TORSDOF 6
ENDMDL
MODEL 7
REMARK VINA RESULT:      -4.9     12.300     13.279
REMARK  6 active torsions:
REMARK  status: ('A' for Active; 'I' for Inactive)
REMARK    1  A    between atoms: C_1  and  O_7 
REMARK    2  A    between atoms: C_2  and  O_8 
REMARK    3  A    between atoms: C_3  and  O_9 
REMARK    4  A    between atoms: C_4  and  C_5 
REMARK    5  A    between atoms: O_11  and  C_5 
REMARK    6  A    between atoms: C_6  and  O_12 
ROOT
HETATM    1  C   UNK N   1      44.569  21.802   4.010  0.00  0.00     0.183 C 
HETATM    2  C   UNK N   1      43.739  22.712   3.093  0.00  0.00     0.189 C 
HETATM    3  C   UNK N   1      44.731  20.423   3.357  0.00  0.00     0.204 C 
HETATM    4  C   UNK N   1      42.395  22.000   2.810  0.00  0.00     0.253 C 
HETATM    5  C   UNK N   1      43.337  19.870   3.001  0.00  0.00     0.289 C 
HETATM    6  O   UNK N   1      42.635  20.763   2.151  0.00  0.00    -0.340 OA
ENDROOT
BRANCH   4   7
HETATM    7  C   UNK N   1      41.463  22.820   1.953  0.00  0.00     0.172 C 
HETATM    8  O   UNK N   1      40.686  22.255   1.199  0.00  0.00    -0.648 OA
BRANCH   7   9
HETATM    9  O   UNK N   1      41.462  24.166   2.015  0.00  0.00    -0.774 OA
HETATM   10  H   UNK N   1      41.218  24.757   1.328  0.00  0.00     0.167 HD
ENDBRANCH   7   9
ENDBRANCH   4   7
BRANCH   2  11
HETATM   11  O   UNK N   1      43.522  23.939   3.726  0.00  0.00    -0.390 OA
HETATM   12  H   UNK N   1      42.854  24.147   4.398  0.00  0.00     0.210 HD
ENDBRANCH   2  11
BRANCH   1  13
HETATM   13  O   UNK N   1      45.819  22.371   4.267  0.00  0.00    -0.390 OA
HETATM   14  H   UNK N   1      46.074  23.200   3.835  0.00  0.00     0.210 HD
ENDBRANCH   1  13
BRANCH   5  15
HETATM   15  O   UNK N   1      43.485  18.647   2.345  0.00  0.00    -0.368 OA
HETATM   16  H   UNK N   1      44.162  17.969   2.499  0.00  0.00     0.212 HD
ENDBRANCH   5  15
BRANCH   3  17
HETATM   17  O   UNK N   1      45.507  20.533   2.199  0.00  0.00    -0.388 OA
HETATM   18  H   UNK N   1      46.271  20.622   1.607  0.00  0.00     0.210 HD
ENDBRANCH   3  17
TORSDOF 6
ENDMDL
MODEL 8
REMARK VINA RESULT:      -4.8     14.772     16.752
REMARK  6 active torsions:
REMARK  status: ('A' for Active; 'I' for Inactive)
REMARK    1  A    between atoms: C_1  and  O_7 
REMARK    2  A    between atoms: C_2  and  O_8 
REMARK    3  A    between atoms: C_3  and  O_9 
REMARK    4  A    between atoms: C_4  and  C_5 
REMARK    5  A    between atoms: O_11  and  C_5 
REMARK    6  A    between atoms: C_6  and  O_12 
ROOT
HETATM    1  C   UNK N   1      20.188  17.212   3.744  0.00  0.00     0.183 C 
HETATM    2  C   UNK N   1      20.005  18.607   3.127  0.00  0.00     0.189 C 
HETATM    3  C   UNK N   1      21.225  17.282   4.872  0.00  0.00     0.204 C 
HETATM    4  C   UNK N   1      21.393  19.105   2.661  0.00  0.00     0.253 C 
HETATM    5  C   UNK N   1      22.521  17.913   4.324  0.00  0.00     0.289 C 
HETATM    6  O   UNK N   1      22.271  19.197   3.776  0.00  0.00    -0.340 OA
ENDROOT
BRANCH   4   7
HETATM    7  C   UNK N   1      21.340  20.453   1.987  0.00  0.00     0.172 C 
HETATM    8  O   UNK N   1      21.202  20.516   0.776  0.00  0.00    -0.648 OA
BRANCH   7   9
HETATM    9  O   UNK N   1      21.432  21.593   2.701  0.00  0.00    -0.774 OA
HETATM   10  H   UNK N   1      21.106  21.736   3.569  0.00  0.00     0.167 HD
ENDBRANCH   7   9
ENDBRANCH   4   7
BRANCH   2  11
HETATM   11  O   UNK N   1      19.123  18.525   2.046  0.00  0.00    -0.390 OA
HETATM   12  H   UNK N   1      19.316  18.215   1.147  0.00  0.00     0.210 HD
ENDBRANCH   2  11
BRANCH   1  13
HETATM   13  O   UNK N   1      18.972  16.725   4.228  0.00  0.00    -0.390 OA
HETATM   14  H   UNK N   1      18.860  16.550   5.175  0.00  0.00     0.210 HD
ENDBRANCH   1  13
BRANCH   5  15
HETATM   15  O   UNK N   1      23.442  18.040   5.365  0.00  0.00    -0.368 OA
HETATM   16  H   UNK N   1      23.594  17.426   6.101  0.00  0.00     0.212 HD
ENDBRANCH   5  15
BRANCH   3  17
HETATM   17  O   UNK N   1      20.731  18.055   5.927  0.00  0.00    -0.388 OA
HETATM   18  H   UNK N   1      20.672  18.537   6.768  0.00  0.00     0.210 HD
ENDBRANCH   3  17
TORSDOF 6
ENDMDL
MODEL 9
REMARK VINA RESULT:      -4.7     11.108     12.958
REMARK  6 active torsions:
REMARK  status: ('A' for Active; 'I' for Inactive)
REMARK    1  A    between atoms: C_1  and  O_7 
REMARK    2  A    between atoms: C_2  and  O_8 
REMARK    3  A    between atoms: C_3  and  O_9 
REMARK    4  A    between atoms: C_4  and  C_5 
REMARK    5  A    between atoms: O_11  and  C_5 
REMARK    6  A    between atoms: C_6  and  O_12 
ROOT
HETATM    1  C   UNK N   1      41.339  21.975   1.187  0.00  0.00     0.183 C 
HETATM    2  C   UNK N   1      42.059  22.889   2.190  0.00  0.00     0.189 C 
HETATM    3  C   UNK N   1      40.695  20.800   1.934  0.00  0.00     0.204 C 
HETATM    4  C   UNK N   1      43.073  22.025   2.975  0.00  0.00     0.253 C 
HETATM    5  C   UNK N   1      41.772  20.094   2.782  0.00  0.00     0.289 C 
HETATM    6  O   UNK N   1      42.387  21.001   3.683  0.00  0.00    -0.340 OA
ENDROOT
BRANCH   4   7
HETATM    7  C   UNK N   1      43.886  22.822   3.965  0.00  0.00     0.172 C 
HETATM    8  O   UNK N   1      44.872  22.318   4.478  0.00  0.00    -0.648 OA
BRANCH   7   9
HETATM    9  O   UNK N   1      43.549  24.088   4.284  0.00  0.00    -0.774 OA
HETATM   10  H   UNK N   1      43.094  24.367   5.056  0.00  0.00     0.167 HD
ENDBRANCH   7   9
ENDBRANCH   4   7
BRANCH   2  11
HETATM   11  O   UNK N   1      42.714  23.913   1.500  0.00  0.00    -0.390 OA
HETATM   12  H   UNK N   1      42.412  24.826   1.372  0.00  0.00     0.210 HD
ENDBRANCH   2  11
BRANCH   1  13
HETATM   13  O   UNK N   1      40.372  22.691   0.476  0.00  0.00    -0.390 OA
HETATM   14  H   UNK N   1      40.617  23.172  -0.329  0.00  0.00     0.210 HD
ENDBRANCH   1  13
BRANCH   5  15
HETATM   15  O   UNK N   1      41.175  19.067   3.515  0.00  0.00    -0.368 OA
HETATM   16  H   UNK N   1      40.931  19.072   4.454  0.00  0.00     0.212 HD
ENDBRANCH   5  15
BRANCH   3  17
HETATM   17  O   UNK N   1      39.669  21.265   2.762  0.00  0.00    -0.388 OA
HETATM   18  H   UNK N   1      38.865  21.714   3.070  0.00  0.00     0.210 HD
ENDBRANCH   3  17
TORSDOF 6
ENDMDL
