MODEL 1
REMARK VINA RESULT:      -5.3      0.000      0.000
REMARK  7 active torsions:
REMARK  status: ('A' for Active; 'I' for Inactive)
REMARK    1  A    between atoms: C_2  and  C_1 
REMARK    2  A    between atoms: O_10  and  C_1 
REMARK    3  A    between atoms: C_3  and  O_11 
REMARK    4  A    between atoms: C_4  and  O_12 
REMARK    5  A    between atoms: C_5  and  O_13 
REMARK    6  A    between atoms: C_6  and  C_7 
REMARK    7  A    between atoms: O_14  and  C_7 
ROOT
HETATM    1  C   UNK N   1      34.822  16.024  10.938  0.00  0.00     0.177 C 
HETATM    2  C   UNK N   1      34.181  14.724  10.396  0.00  0.00     0.180 C 
HETATM    3  C   UNK N   1      32.884  15.025   9.617  0.00  0.00     0.181 C 
HETATM    4  C   UNK N   1      32.954  16.394   8.914  0.00  0.00     0.186 C 
HETATM    5  C   UNK N   1      34.425  16.789   8.666  0.00  0.00     0.227 C 
HETATM    6  O   UNK N   1      35.100  16.984   9.912  0.00  0.00    -0.365 OA
ENDROOT
BRANCH   5   7
HETATM    7  C   UNK N   1      34.533  18.065   7.864  0.00  0.00     0.141 C 
HETATM    8  N   UNK N   1      34.831  19.169   8.445  0.00  0.00    -0.381 N 
HETATM    9  H   UNK N   1      35.244  19.268   9.334  0.00  0.00     0.158 HD
ATOM     10  HN  UNK N   1      34.622  20.029   7.937  1.00  0.00     0.158 HD
BRANCH   7  11
HETATM   11  O   UNK N   1      34.274  18.064   6.542  0.00  0.00    -0.348 OA
HETATM   12  H   UNK N   1      34.346  18.720   5.878  0.00  0.00     0.219 HD
ENDBRANCH   7  11
ENDBRANCH   5   7
BRANCH   4  13
HETATM   13  O   UNK N   1      32.196  16.354   7.740  0.00  0.00    -0.390 OA
HETATM   14  H   UNK N   1      31.505  16.999   7.519  0.00  0.00     0.210 HD
ENDBRANCH   4  13
BRANCH   3  15
HETATM   15  O   UNK N   1      31.761  15.004  10.450  0.00  0.00    -0.390 OA
HETATM   16  H   UNK N   1      31.524  14.636  11.315  0.00  0.00     0.210 HD
ENDBRANCH   3  15
BRANCH   1  17
HETATM   17  C   UNK N   1      36.160  15.725  11.616  0.00  0.00     0.198 C 
BRANCH  17  18
HETATM   18  O   UNK N   1      37.236  15.907  10.746  0.00  0.00    -0.398 OA
HETATM   19  H   UNK N   1      37.101  15.943   9.787  0.00  0.00     0.209 HD
ENDBRANCH  17  18
ENDBRANCH   1  17
BRANCH   2  20
HETATM   20  O   UNK N   1      33.939  13.781  11.400  0.00  0.00    -0.390 OA
HETATM   21  H   UNK N   1      34.304  13.910  12.289  0.00  0.00     0.210 HD
ENDBRANCH   2  20
TORSDOF 7
ENDMDL
MODEL 2
REMARK VINA RESULT:      -5.2     13.157     14.755
REMARK  7 active torsions:
REMARK  status: ('A' for Active; 'I' for Inactive)
REMARK    1  A    between atoms: C_2  and  C_1 
REMARK    2  A    between atoms: O_10  and  C_1 
REMARK    3  A    between atoms: C_3  and  O_11 
REMARK    4  A    between atoms: C_4  and  O_12 
REMARK    5  A    between atoms: C_5  and  O_13 
REMARK    6  A    between atoms: C_6  and  C_7 
REMARK    7  A    between atoms: O_14  and  C_7 
ROOT
HETATM    1  C   UNK N   1      22.059  17.978   4.284  0.00  0.00     0.177 C 
HETATM    2  C   UNK N   1      21.345  16.761   3.650  0.00  0.00     0.180 C 
HETATM    3  C   UNK N   1      19.869  17.081   3.337  0.00  0.00     0.181 C 
HETATM    4  C   UNK N   1      19.679  18.566   2.974  0.00  0.00     0.186 C 
HETATM    5  C   UNK N   1      21.002  19.155   2.439  0.00  0.00     0.227 C 
HETATM    6  O   UNK N   1      21.994  19.154   3.470  0.00  0.00    -0.365 OA
ENDROOT
BRANCH   5   7
HETATM    7  C   UNK N   1      20.824  20.574   1.953  0.00  0.00     0.141 C 
HETATM    8  N   UNK N   1      20.301  20.803   0.804  0.00  0.00    -0.381 N 
HETATM    9  H   UNK N   1      19.765  20.171   0.271  0.00  0.00     0.158 HD
ATOM     10  HN  UNK N   1      20.454  21.729   0.403  1.00  0.00     0.158 HD
BRANCH   7  11
HETATM   11  O   UNK N   1      21.253  21.609   2.701  0.00  0.00    -0.348 OA
HETATM   12  H   UNK N   1      21.180  22.539   2.605  0.00  0.00     0.219 HD
ENDBRANCH   7  11
ENDBRANCH   5   7
BRANCH   4  13
HETATM   13  O   UNK N   1      18.621  18.694   2.070  0.00  0.00    -0.390 OA
HETATM   14  H   UNK N   1      17.858  18.096   2.041  0.00  0.00     0.210 HD
ENDBRANCH   4  13
BRANCH   3  15
HETATM   15  O   UNK N   1      19.031  16.770   4.412  0.00  0.00    -0.390 OA
HETATM   16  H   UNK N   1      18.899  17.076   5.323  0.00  0.00     0.210 HD
ENDBRANCH   3  15
BRANCH   1  17
HETATM   17  C   UNK N   1      23.547  17.684   4.492  0.00  0.00     0.198 C 
BRANCH  17  18
HETATM   18  O   UNK N   1      23.791  17.087   5.729  0.00  0.00    -0.398 OA
HETATM   19  H   UNK N   1      23.060  16.808   6.301  0.00  0.00     0.209 HD
ENDBRANCH  17  18
ENDBRANCH   1  17
BRANCH   2  20
HETATM   20  O   UNK N   1      21.437  15.609   4.437  0.00  0.00    -0.390 OA
HETATM   21  H   UNK N   1      21.690  14.762   4.035  0.00  0.00     0.210 HD
ENDBRANCH   2  20
TORSDOF 7
ENDMDL
MODEL 3
REMARK VINA RESULT:      -5.2      2.009      2.863
REMARK  7 active torsions:
REMARK  status: ('A' for Active; 'I' for Inactive)
REMARK    1  A    between atoms: C_2  and  C_1 
REMARK    2  A    between atoms: O_10  and  C_1 
REMARK    3  A    between atoms: C_3  and  O_11 
REMARK    4  A    between atoms: C_4  and  O_12 
REMARK    5  A    between atoms: C_5  and  O_13 
REMARK    6  A    between atoms: C_6  and  C_7 
REMARK    7  A    between atoms: O_14  and  C_7 
ROOT
HETATM    1  C   UNK N   1      36.913  14.374  10.632  0.00  0.00     0.177 C 
HETATM    2  C   UNK N   1      35.957  13.158  10.582  0.00  0.00     0.180 C 
HETATM    3  C   UNK N   1      34.596  13.492  11.227  0.00  0.00     0.181 C 
HETATM    4  C   UNK N   1      34.229  14.975  11.033  0.00  0.00     0.186 C 
HETATM    5  C   UNK N   1      34.953  15.543   9.795  0.00  0.00     0.227 C 
HETATM    6  O   UNK N   1      36.368  15.542  10.007  0.00  0.00    -0.365 OA
ENDROOT
BRANCH   5   7
HETATM    7  C   UNK N   1      34.520  16.960   9.496  0.00  0.00     0.141 C 
HETATM    8  N   UNK N   1      33.338  17.194   9.054  0.00  0.00    -0.381 N 
HETATM    9  H   UNK N   1      32.566  16.585   9.104  0.00  0.00     0.158 HD
ATOM     10  HN  UNK N   1      33.183  18.099   8.609  1.00  0.00     0.158 HD
BRANCH   7  11
HETATM   11  O   UNK N   1      35.382  17.983   9.648  0.00  0.00    -0.348 OA
HETATM   12  H   UNK N   1      36.305  18.066   9.505  0.00  0.00     0.219 HD
ENDBRANCH   7  11
ENDBRANCH   5   7
BRANCH   4  13
HETATM   13  O   UNK N   1      32.839  15.105  10.958  0.00  0.00    -0.390 OA
HETATM   14  H   UNK N   1      32.241  14.980  11.712  0.00  0.00     0.210 HD
ENDBRANCH   4  13
BRANCH   3  15
HETATM   15  O   UNK N   1      34.585  13.202  12.595  0.00  0.00    -0.390 OA
HETATM   16  H   UNK N   1      34.290  13.634  13.412  0.00  0.00     0.210 HD
ENDBRANCH   3  15
BRANCH   1  17
HETATM   17  C   UNK N   1      38.218  14.066   9.895  0.00  0.00     0.198 C 
BRANCH  17  18
HETATM   18  O   UNK N   1      39.123  13.379  10.705  0.00  0.00    -0.398 OA
HETATM   19  H   UNK N   1      40.056  13.639  10.742  0.00  0.00     0.209 HD
ENDBRANCH  17  18
ENDBRANCH   1  17
BRANCH   2  20
HETATM   20  O   UNK N   1      36.506  12.014  11.167  0.00  0.00    -0.390 OA
HETATM   21  H   UNK N   1      36.202  11.133  10.896  0.00  0.00     0.210 HD
ENDBRANCH   2  20
TORSDOF 7
ENDMDL
MODEL 4
REMARK VINA RESULT:      -5.1     14.866     16.222
REMARK  7 active torsions:
REMARK  status: ('A' for Active; 'I' for Inactive)
REMARK    1  A    between atoms: C_2  and  C_1 
REMARK    2  A    between atoms: O_10  and  C_1 
REMARK    3  A    between atoms: C_3  and  O_11 
REMARK    4  A    between atoms: C_4  and  O_12 
REMARK    5  A    between atoms: C_5  and  O_13 
REMARK    6  A    between atoms: C_6  and  C_7 
REMARK    7  A    between atoms: O_14  and  C_7 
ROOT
HETATM    1  C   UNK N   1      20.346  17.158   1.296  0.00  0.00     0.177 C 
HETATM    2  C   UNK N   1      19.586  16.871   2.612  0.00  0.00     0.180 C 
HETATM    3  C   UNK N   1      20.242  17.598   3.804  0.00  0.00     0.181 C 
HETATM    4  C   UNK N   1      20.883  18.929   3.370  0.00  0.00     0.186 C 
HETATM    5  C   UNK N   1      20.203  19.452   2.087  0.00  0.00     0.227 C 
HETATM    6  O   UNK N   1      20.447  18.556   0.999  0.00  0.00    -0.365 OA
ENDROOT
BRANCH   5   7
HETATM    7  C   UNK N   1      20.716  20.819   1.700  0.00  0.00     0.141 C 
HETATM    8  N   UNK N   1      20.407  21.327   0.563  0.00  0.00    -0.381 N 
HETATM    9  H   UNK N   1      19.665  21.044  -0.020  0.00  0.00     0.158 HD
ATOM     10  HN  UNK N   1      20.984  22.099   0.230  1.00  0.00     0.158 HD
BRANCH   7  11
HETATM   11  O   UNK N   1      21.538  21.497   2.524  0.00  0.00    -0.348 OA
HETATM   12  H   UNK N   1      22.246  22.092   2.371  0.00  0.00     0.219 HD
ENDBRANCH   7  11
ENDBRANCH   5   7
BRANCH   4  13
HETATM   13  O   UNK N   1      20.826  19.842   4.427  0.00  0.00    -0.390 OA
HETATM   14  H   UNK N   1      21.598  20.315   4.777  0.00  0.00     0.210 HD
ENDBRANCH   4  13
BRANCH   3  15
HETATM   15  O   UNK N   1      21.219  16.809   4.420  0.00  0.00    -0.390 OA
HETATM   16  H   UNK N   1      22.011  16.319   4.151  0.00  0.00     0.210 HD
ENDBRANCH   3  15
BRANCH   1  17
HETATM   17  C   UNK N   1      19.626  16.521   0.106  0.00  0.00     0.198 C 
BRANCH  17  18
HETATM   18  O   UNK N   1      18.254  16.776   0.130  0.00  0.00    -0.398 OA
HETATM   19  H   UNK N   1      17.636  16.231  -0.381  0.00  0.00     0.209 HD
ENDBRANCH  17  18
ENDBRANCH   1  17
BRANCH   2  20
HETATM   20  O   UNK N   1      19.466  15.504   2.881  0.00  0.00    -0.390 OA
HETATM   21  H   UNK N   1      19.776  14.851   2.234  0.00  0.00     0.210 HD
ENDBRANCH   2  20
TORSDOF 7
ENDMDL
MODEL 5
REMARK VINA RESULT:      -5.1      1.828      3.823
REMARK  7 active torsions:
REMARK  status: ('A' for Active; 'I' for Inactive)
REMARK    1  A    between atoms: C_2  and  C_1 
REMARK    2  A    between atoms: O_10  and  C_1 
REMARK    3  A    between atoms: C_3  and  O_11 
REMARK    4  A    between atoms: C_4  and  O_12 
REMARK    5  A    between atoms: C_5  and  O_13 
REMARK    6  A    between atoms: C_6  and  C_7 
REMARK    7  A    between atoms: O_14  and  C_7 
ROOT
HETATM    1  C   UNK N   1      34.188  17.012   8.419  0.00  0.00     0.177 C 
HETATM    2  C   UNK N   1      32.788  16.564   8.901  0.00  0.00     0.180 C 
HETATM    3  C   UNK N   1      32.807  15.100   9.385  0.00  0.00     0.181 C 
HETATM    4  C   UNK N   1      34.168  14.729  10.004  0.00  0.00     0.186 C 
HETATM    5  C   UNK N   1      34.882  15.998  10.516  0.00  0.00     0.227 C 
HETATM    6  O   UNK N   1      35.201  16.860   9.419  0.00  0.00    -0.365 OA
ENDROOT
BRANCH   5   7
HETATM    7  C   UNK N   1      36.163  15.662  11.243  0.00  0.00     0.141 C 
HETATM    8  N   UNK N   1      36.130  15.288  12.470  0.00  0.00    -0.381 N 
HETATM    9  H   UNK N   1      35.342  14.951  12.956  0.00  0.00     0.158 HD
ATOM     10  HN  UNK N   1      37.004  15.344  12.993  1.00  0.00     0.158 HD
BRANCH   7  11
HETATM   11  O   UNK N   1      37.353  15.795  10.626  0.00  0.00    -0.348 OA
HETATM   12  H   UNK N   1      37.861  15.219  10.090  0.00  0.00     0.219 HD
ENDBRANCH   7  11
ENDBRANCH   5   7
BRANCH   4  13
HETATM   13  O   UNK N   1      33.981  13.769  11.002  0.00  0.00    -0.390 OA
HETATM   14  H   UNK N   1      33.251  13.788  11.642  0.00  0.00     0.210 HD
ENDBRANCH   4  13
BRANCH   3  15
HETATM   15  O   UNK N   1      32.526  14.205   8.348  0.00  0.00    -0.390 OA
HETATM   16  H   UNK N   1      32.934  13.937   7.510  0.00  0.00     0.210 HD
ENDBRANCH   3  15
BRANCH   1  17
HETATM   17  C   UNK N   1      34.181  18.495   8.042  0.00  0.00     0.198 C 
BRANCH  17  18
HETATM   18  O   UNK N   1      35.302  19.163   8.536  0.00  0.00    -0.398 OA
HETATM   19  H   UNK N   1      35.421  19.298   9.489  0.00  0.00     0.209 HD
ENDBRANCH  17  18
ENDBRANCH   1  17
BRANCH   2  20
HETATM   20  O   UNK N   1      31.798  16.742   7.929  0.00  0.00    -0.390 OA
HETATM   21  H   UNK N   1      30.906  16.388   8.070  0.00  0.00     0.210 HD
ENDBRANCH   2  20
TORSDOF 7
ENDMDL
MODEL 6
REMARK VINA RESULT:      -5.1     13.455     15.429
REMARK  7 active torsions:
REMARK  status: ('A' for Active; 'I' for Inactive)
REMARK    1  A    between atoms: C_2  and  C_1 
REMARK    2  A    between atoms: O_10  and  C_1 
REMARK    3  A    between atoms: C_3  and  O_11 
REMARK    4  A    between atoms: C_4  and  O_12 
REMARK    5  A    between atoms: C_5  and  O_13 
REMARK    6  A    between atoms: C_6  and  C_7 
REMARK    7  A    between atoms: O_14  and  C_7 
ROOT
HETATM    1  C   UNK N   1      22.372  19.186   3.071  0.00  0.00     0.177 C 
HETATM    2  C   UNK N   1      21.443  20.422   3.143  0.00  0.00     0.180 C 
HETATM    3  C   UNK N   1      20.122  20.171   2.388  0.00  0.00     0.181 C 
HETATM    4  C   UNK N   1      19.708  18.689   2.452  0.00  0.00     0.186 C 
HETATM    5  C   UNK N   1      20.334  18.016   3.692  0.00  0.00     0.227 C 
HETATM    6  O   UNK N   1      21.760  17.993   3.574  0.00  0.00    -0.365 OA
ENDROOT
BRANCH   5   7
HETATM    7  C   UNK N   1      19.850  16.595   3.861  0.00  0.00     0.141 C 
HETATM    8  N   UNK N   1      20.544  15.618   3.403  0.00  0.00    -0.381 N 
HETATM    9  H   UNK N   1      21.496  15.645   3.152  0.00  0.00     0.158 HD
ATOM     10  HN  UNK N   1      20.063  14.725   3.287  1.00  0.00     0.158 HD
BRANCH   7  11
HETATM   11  O   UNK N   1      18.668  16.344   4.455  0.00  0.00    -0.348 OA
HETATM   12  H   UNK N   1      18.412  15.768   5.148  0.00  0.00     0.219 HD
ENDBRANCH   7  11
ENDBRANCH   5   7
BRANCH   4  13
HETATM   13  O   UNK N   1      18.314  18.591   2.426  0.00  0.00    -0.390 OA
HETATM   14  H   UNK N   1      17.716  19.321   2.653  0.00  0.00     0.210 HD
ENDBRANCH   4  13
BRANCH   3  15
HETATM   15  O   UNK N   1      20.210  20.555   1.046  0.00  0.00    -0.390 OA
HETATM   16  H   UNK N   1      20.911  20.696   0.391  0.00  0.00     0.210 HD
ENDBRANCH   3  15
BRANCH   1  17
HETATM   17  C   UNK N   1      23.631  19.407   3.912  0.00  0.00     0.198 C 
BRANCH  17  18
HETATM   18  O   UNK N   1      24.502  20.319   3.314  0.00  0.00    -0.398 OA
HETATM   19  H   UNK N   1      25.280  20.016   2.821  0.00  0.00     0.209 HD
ENDBRANCH  17  18
ENDBRANCH   1  17
BRANCH   2  20
HETATM   20  O   UNK N   1      22.057  21.588   2.678  0.00  0.00    -0.390 OA
HETATM   21  H   UNK N   1      22.981  21.777   2.904  0.00  0.00     0.210 HD
ENDBRANCH   2  20
TORSDOF 7
ENDMDL
MODEL 7
REMARK VINA RESULT:      -5.1     13.593     15.361
REMARK  7 active torsions:
REMARK  status: ('A' for Active; 'I' for Inactive)
REMARK    1  A    between atoms: C_2  and  C_1 
REMARK    2  A    between atoms: O_10  and  C_1 
REMARK    3  A    between atoms: C_3  and  O_11 
REMARK    4  A    between atoms: C_4  and  O_12 
REMARK    5  A    between atoms: C_5  and  O_13 
REMARK    6  A    between atoms: C_6  and  C_7 
REMARK    7  A    between atoms: O_14  and  C_7 
ROOT
HETATM    1  C   UNK N   1      21.788  19.267   2.812  0.00  0.00     0.177 C 
HETATM    2  C   UNK N   1      20.310  19.630   2.536  0.00  0.00     0.180 C 
HETATM    3  C   UNK N   1      19.401  18.388   2.647  0.00  0.00     0.181 C 
HETATM    4  C   UNK N   1      19.936  17.390   3.690  0.00  0.00     0.186 C 
HETATM    5  C   UNK N   1      20.817  18.123   4.724  0.00  0.00     0.227 C 
HETATM    6  O   UNK N   1      21.986  18.651   4.089  0.00  0.00    -0.365 OA
ENDROOT
BRANCH   5   7
HETATM    7  C   UNK N   1      21.257  17.201   5.836  0.00  0.00     0.141 C 
HETATM    8  N   UNK N   1      21.620  15.998   5.573  0.00  0.00    -0.381 N 
HETATM    9  H   UNK N   1      21.884  15.648   4.691  0.00  0.00     0.158 HD
ATOM     10  HN  UNK N   1      21.636  15.340   6.353  1.00  0.00     0.158 HD
BRANCH   7  11
HETATM   11  O   UNK N   1      21.232  17.616   7.117  0.00  0.00    -0.348 OA
HETATM   12  H   UNK N   1      21.861  17.584   7.811  0.00  0.00     0.219 HD
ENDBRANCH   7  11
ENDBRANCH   5   7
BRANCH   4  13
HETATM   13  O   UNK N   1      18.866  16.707   4.275  0.00  0.00    -0.390 OA
HETATM   14  H   UNK N   1      18.862  16.387   5.191  0.00  0.00     0.210 HD
ENDBRANCH   4  13
BRANCH   3  15
HETATM   15  O   UNK N   1      19.268  17.730   1.421  0.00  0.00    -0.390 OA
HETATM   16  H   UNK N   1      19.789  17.626   0.609  0.00  0.00     0.210 HD
ENDBRANCH   3  15
BRANCH   1  17
HETATM   17  C   UNK N   1      22.663  20.522   2.804  0.00  0.00     0.198 C 
BRANCH  17  18
HETATM   18  O   UNK N   1      21.899  21.689   2.829  0.00  0.00    -0.398 OA
HETATM   19  H   UNK N   1      21.863  22.278   2.060  0.00  0.00     0.209 HD
ENDBRANCH  17  18
ENDBRANCH   1  17
BRANCH   2  20
HETATM   20  O   UNK N   1      20.128  20.257   1.299  0.00  0.00    -0.390 OA
HETATM   21  H   UNK N   1      20.701  20.032   0.549  0.00  0.00     0.210 HD
ENDBRANCH   2  20
TORSDOF 7
ENDMDL
MODEL 8
REMARK VINA RESULT:      -5.1     11.256     13.234
REMARK  7 active torsions:
REMARK  status: ('A' for Active; 'I' for Inactive)
REMARK    1  A    between atoms: C_2  and  C_1 
REMARK    2  A    between atoms: O_10  and  C_1 
REMARK    3  A    between atoms: C_3  and  O_11 
REMARK    4  A    between atoms: C_4  and  O_12 
REMARK    5  A    between atoms: C_5  and  O_13 
REMARK    6  A    between atoms: C_6  and  C_7 
REMARK    7  A    between atoms: O_14  and  C_7 
ROOT
HETATM    1  C   UNK N   1      42.091  21.389   2.823  0.00  0.00     0.177 C 
HETATM    2  C   UNK N   1      42.661  22.770   2.420  0.00  0.00     0.180 C 
HETATM    3  C   UNK N   1      43.822  23.185   3.347  0.00  0.00     0.181 C 
HETATM    4  C   UNK N   1      44.612  21.960   3.844  0.00  0.00     0.186 C 
HETATM    5  C   UNK N   1      44.445  20.785   2.859  0.00  0.00     0.227 C 
HETATM    6  O   UNK N   1      43.080  20.354   2.831  0.00  0.00    -0.365 OA
ENDROOT
BRANCH   5   7
HETATM    7  C   UNK N   1      45.306  19.605   3.245  0.00  0.00     0.141 C 
HETATM    8  N   UNK N   1      44.798  18.429   3.313  0.00  0.00    -0.381 N 
HETATM    9  H   UNK N   1      43.949  18.136   2.910  0.00  0.00     0.158 HD
ATOM     10  HN  UNK N   1      45.325  17.729   3.836  1.00  0.00     0.158 HD
BRANCH   7  11
HETATM   11  O   UNK N   1      46.603  19.783   3.562  0.00  0.00    -0.348 OA
HETATM   12  H   UNK N   1      47.243  20.416   3.301  0.00  0.00     0.219 HD
ENDBRANCH   7  11
ENDBRANCH   5   7
BRANCH   4  13
HETATM   13  O   UNK N   1      45.948  22.317   4.044  0.00  0.00    -0.390 OA
HETATM   14  H   UNK N   1      46.698  21.723   3.880  0.00  0.00     0.210 HD
ENDBRANCH   4  13
BRANCH   3  15
HETATM   15  O   UNK N   1      43.369  23.908   4.454  0.00  0.00    -0.390 OA
HETATM   16  H   UNK N   1      43.737  24.547   5.086  0.00  0.00     0.210 HD
ENDBRANCH   3  15
BRANCH   1  17
HETATM   17  C   UNK N   1      41.013  20.940   1.834  0.00  0.00     0.198 C 
BRANCH  17  18
HETATM   18  O   UNK N   1      39.727  21.191   2.316  0.00  0.00    -0.398 OA
HETATM   19  H   UNK N   1      39.459  20.894   3.199  0.00  0.00     0.209 HD
ENDBRANCH  17  18
ENDBRANCH   1  17
BRANCH   2  20
HETATM   20  O   UNK N   1      41.683  23.769   2.386  0.00  0.00    -0.390 OA
HETATM   21  H   UNK N   1      41.929  24.697   2.531  0.00  0.00     0.210 HD
ENDBRANCH   2  20
TORSDOF 7
ENDMDL
MODEL 9
REMARK VINA RESULT:      -5.1     13.020     15.120
REMARK  7 active torsions:
REMARK  status: ('A' for Active; 'I' for Inactive)
REMARK    1  A    between atoms: C_2  and  C_1 
REMARK    2  A    between atoms: O_10  and  C_1 
REMARK    3  A    between atoms: C_3  and  O_11 
REMARK    4  A    between atoms: C_4  and  O_12 
REMARK    5  A    between atoms: C_5  and  O_13 
REMARK    6  A    between atoms: C_6  and  C_7 
REMARK    7  A    between atoms: O_14  and  C_7 
ROOT
HETATM    1  C   UNK N   1      20.767  19.311   2.012  0.00  0.00     0.177 C 
HETATM    2  C   UNK N   1      19.583  18.889   2.914  0.00  0.00     0.180 C 
HETATM    3  C   UNK N   1      19.880  17.560   3.638  0.00  0.00     0.181 C 
HETATM    4  C   UNK N   1      21.382  17.405   3.940  0.00  0.00     0.186 C 
HETATM    5  C   UNK N   1      22.055  18.792   4.007  0.00  0.00     0.227 C 
HETATM    6  O   UNK N   1      22.003  19.428   2.726  0.00  0.00    -0.365 OA
ENDROOT
BRANCH   5   7
HETATM    7  C   UNK N   1      23.503  18.690   4.427  0.00  0.00     0.141 C 
HETATM    8  N   UNK N   1      24.435  19.062   3.627  0.00  0.00    -0.381 N 
HETATM    9  H   UNK N   1      24.330  19.642   2.838  0.00  0.00     0.158 HD
ATOM     10  HN  UNK N   1      25.376  18.723   3.827  1.00  0.00     0.158 HD
BRANCH   7  11
HETATM   11  O   UNK N   1      23.831  18.170   5.625  0.00  0.00    -0.348 OA
HETATM   12  H   UNK N   1      24.587  17.713   5.937  0.00  0.00     0.219 HD
ENDBRANCH   7  11
ENDBRANCH   5   7
BRANCH   4  13
HETATM   13  O   UNK N   1      21.549  16.662   5.112  0.00  0.00    -0.390 OA
HETATM   14  H   UNK N   1      21.847  17.039   5.955  0.00  0.00     0.210 HD
ENDBRANCH   4  13
BRANCH   3  15
HETATM   15  O   UNK N   1      19.455  16.456   2.892  0.00  0.00    -0.390 OA
HETATM   16  H   UNK N   1      19.860  15.672   2.488  0.00  0.00     0.210 HD
ENDBRANCH   3  15
BRANCH   1  17
HETATM   17  C   UNK N   1      20.506  20.681   1.383  0.00  0.00     0.198 C 
BRANCH  17  18
HETATM   18  O   UNK N   1      20.591  20.639  -0.009  0.00  0.00    -0.398 OA
HETATM   19  H   UNK N   1      20.719  19.799  -0.476  0.00  0.00     0.209 HD
ENDBRANCH  17  18
ENDBRANCH   1  17
BRANCH   2  20
HETATM   20  O   UNK N   1      18.374  18.804   2.216  0.00  0.00    -0.390 OA
HETATM   21  H   UNK N   1      18.361  18.479   1.302  0.00  0.00     0.210 HD
ENDBRANCH   2  20
TORSDOF 7
ENDMDL
