MODEL 1
REMARK VINA RESULT:      -7.3      0.000      0.000
REMARK  11 active torsions:
REMARK  status: ('A' for Active; 'I' for Inactive)
REMARK    1  A    between atoms: C_4  and  N_5 
REMARK    2  A    between atoms: C_6  and  C_7 
REMARK    3  A    between atoms: C_7  and  N_8 
REMARK    4  A    between atoms: C_11  and  C_12 
REMARK    5  A    between atoms: C_12  and  C_13 
REMARK    6  A    between atoms: C_13  and  O_14 
REMARK    7  A    between atoms: P_15  and  O_14 
REMARK    8  A    between atoms: P_15  and  O_16 
REMARK    9  A    between atoms: P_15  and  O_18 
REMARK   10  A    between atoms: O_18  and  P_19 
REMARK   11  A    between atoms: P_19  and  O_20 
ROOT
HETATM    1  N   UNK N   1      31.073  17.058   6.287  0.00  0.00    -0.349 N 
HETATM    2  C   UNK N   1      31.780  17.012   5.132  0.00  0.00     0.141 A 
HETATM    3  S   UNK N   1      33.348  17.441   5.486  0.00  0.00    -0.087 SA
HETATM    4  C   UNK N   1      33.162  17.686   7.109  0.00  0.00     0.008 A 
HETATM    5  C   UNK N   1      31.817  17.428   7.393  0.00  0.00     0.021 A 
HETATM    6  C   UNK N   1      31.242  17.531   8.763  0.00  0.00     0.069 C 
ENDROOT
BRANCH   4   7
HETATM    7  C   UNK N   1      34.218  18.082   8.090  0.00  0.00     0.075 C 
BRANCH   7   8
HETATM    8  C   UNK N   1      34.801  16.863   8.797  0.00  0.00     0.185 C 
BRANCH   8   9
HETATM    9  O   UNK N   1      35.005  17.106  10.164  0.00  0.00    -0.296 OA
BRANCH   9  10
HETATM   10  P   UNK N   1      35.107  15.542  10.949  0.00  0.00     0.402 P 
HETATM   11  O   UNK N   1      35.774  14.499  10.009  0.00  0.00    -0.631 OA
BRANCH  10  12
HETATM   12  O   UNK N   1      33.509  14.934  11.260  0.00  0.00    -0.307 OA
HETATM   13  H   UNK N   1      33.241  14.613  12.135  0.00  0.00     0.222 HD
ENDBRANCH  10  12
BRANCH  10  14
HETATM   14  O   UNK N   1      36.004  15.499  12.444  0.00  0.00    -0.188 OA
BRANCH  14  15
HETATM   15  P   UNK N   1      36.004  13.898  13.159  0.00  0.00     0.414 P 
HETATM   16  O   UNK N   1      36.508  14.156  14.780  0.00  0.00    -0.624 OA
HETATM   17  O   UNK N   1      37.053  12.906  12.578  0.00  0.00    -0.624 OA
BRANCH  15  18
HETATM   18  O   UNK N   1      34.442  13.136  13.276  0.00  0.00    -0.300 OA
HETATM   19  H   UNK N   1      33.982  12.725  14.024  0.00  0.00     0.223 HD
ENDBRANCH  15  18
ENDBRANCH  14  15
ENDBRANCH  10  14
ENDBRANCH   9  10
ENDBRANCH   8   9
ENDBRANCH   7   8
ENDBRANCH   4   7
BRANCH   1  20
HETATM   20  C   UNK N   1      29.648  16.730   6.389  0.00  0.00     0.171 C 
BRANCH  20  21
HETATM   21  C   UNK N   1      28.762  17.936   6.302  0.00  0.00     0.002 A 
HETATM   22  C   UNK N   1      28.383  18.519   5.077  0.00  0.00     0.036 A 
HETATM   23  C   UNK N   1      27.596  19.670   5.076  0.00  0.00     0.054 A 
HETATM   24  C   UNK N   1      27.202  20.235   6.288  0.00  0.00     0.007 A 
HETATM   25  C   UNK N   1      26.379  21.472   6.296  0.00  0.00     0.068 C 
HETATM   26  N   UNK N   1      27.576  19.661   7.463  0.00  0.00    -0.369 N 
HETATM   27  C   UNK N   1      28.338  18.534   7.492  0.00  0.00     0.099 A 
ATOM     28  HN  UNK N   1      27.279  20.084   8.342  1.00  0.00     0.165 HD
BRANCH  22  29
HETATM   29  N   UNK N   1      28.788  17.962   3.845  0.00  0.00    -0.399 N 
HETATM   30  H   UNK N   1      29.429  18.238   3.150  0.00  0.00     0.156 HD
HETATM   31  H   UNK N   1      28.331  17.115   3.635  0.00  0.00     0.156 HD
ENDBRANCH  22  29
ENDBRANCH  20  21
ENDBRANCH   1  20
TORSDOF 11
ENDMDL
MODEL 2
REMARK VINA RESULT:      -7.1      1.041      2.045
REMARK  11 active torsions:
REMARK  status: ('A' for Active; 'I' for Inactive)
REMARK    1  A    between atoms: C_4  and  N_5 
REMARK    2  A    between atoms: C_6  and  C_7 
REMARK    3  A    between atoms: C_7  and  N_8 
REMARK    4  A    between atoms: C_11  and  C_12 
REMARK    5  A    between atoms: C_12  and  C_13 
REMARK    6  A    between atoms: C_13  and  O_14 
REMARK    7  A    between atoms: P_15  and  O_14 
REMARK    8  A    between atoms: P_15  and  O_16 
REMARK    9  A    between atoms: P_15  and  O_18 
REMARK   10  A    between atoms: O_18  and  P_19 
REMARK   11  A    between atoms: P_19  and  O_20 
ROOT
HETATM    1  N   UNK N   1      30.886  17.058   6.425  0.00  0.00    -0.349 N 
HETATM    2  C   UNK N   1      31.610  16.724   5.330  0.00  0.00     0.141 A 
HETATM    3  S   UNK N   1      33.197  17.117   5.640  0.00  0.00    -0.087 SA
HETATM    4  C   UNK N   1      32.997  17.710   7.169  0.00  0.00     0.008 A 
HETATM    5  C   UNK N   1      31.631  17.605   7.454  0.00  0.00     0.021 A 
HETATM    6  C   UNK N   1      31.038  18.032   8.752  0.00  0.00     0.069 C 
ENDROOT
BRANCH   4   7
HETATM    7  C   UNK N   1      34.058  18.236   8.080  0.00  0.00     0.075 C 
BRANCH   7   8
HETATM    8  C   UNK N   1      34.817  17.100   8.758  0.00  0.00     0.185 C 
BRANCH   8   9
HETATM    9  O   UNK N   1      34.421  16.937  10.094  0.00  0.00    -0.296 OA
BRANCH   9  10
HETATM   10  P   UNK N   1      33.972  15.254  10.290  0.00  0.00     0.402 P 
HETATM   11  O   UNK N   1      34.611  14.381   9.174  0.00  0.00    -0.631 OA
BRANCH  10  12
HETATM   12  O   UNK N   1      32.254  15.076  10.094  0.00  0.00    -0.307 OA
HETATM   13  H   UNK N   1      31.869  14.451   9.461  0.00  0.00     0.222 HD
ENDBRANCH  10  12
BRANCH  10  14
HETATM   14  O   UNK N   1      34.423  14.519  11.806  0.00  0.00    -0.188 OA
BRANCH  14  15
HETATM   15  P   UNK N   1      36.121  14.766  12.171  0.00  0.00     0.414 P 
HETATM   16  O   UNK N   1      36.859  13.260  11.805  0.00  0.00    -0.624 OA
HETATM   17  O   UNK N   1      36.453  15.008  13.672  0.00  0.00    -0.624 OA
BRANCH  15  18
HETATM   18  O   UNK N   1      36.933  15.936  11.170  0.00  0.00    -0.300 OA
HETATM   19  H   UNK N   1      37.673  16.535  11.354  0.00  0.00     0.223 HD
ENDBRANCH  15  18
ENDBRANCH  14  15
ENDBRANCH  10  14
ENDBRANCH   9  10
ENDBRANCH   8   9
ENDBRANCH   7   8
ENDBRANCH   4   7
BRANCH   1  20
HETATM   20  C   UNK N   1      29.440  16.852   6.546  0.00  0.00     0.171 C 
BRANCH  20  21
HETATM   21  C   UNK N   1      28.637  17.859   5.777  0.00  0.00     0.002 A 
HETATM   22  C   UNK N   1      27.854  18.849   6.402  0.00  0.00     0.036 A 
HETATM   23  C   UNK N   1      27.094  19.720   5.622  0.00  0.00     0.054 A 
HETATM   24  C   UNK N   1      27.112  19.594   4.233  0.00  0.00     0.007 A 
HETATM   25  C   UNK N   1      26.292  20.506   3.396  0.00  0.00     0.068 C 
HETATM   26  N   UNK N   1      27.873  18.632   3.645  0.00  0.00    -0.369 N 
HETATM   27  C   UNK N   1      28.628  17.773   4.382  0.00  0.00     0.099 A 
ATOM     28  HN  UNK N   1      27.878  18.553   2.628  1.00  0.00     0.165 HD
BRANCH  22  29
HETATM   29  N   UNK N   1      27.818  18.976   7.807  0.00  0.00    -0.399 N 
HETATM   30  H   UNK N   1      27.663  18.343   8.545  0.00  0.00     0.156 HD
HETATM   31  H   UNK N   1      27.984  19.896   8.116  0.00  0.00     0.156 HD
ENDBRANCH  22  29
ENDBRANCH  20  21
ENDBRANCH   1  20
TORSDOF 11
ENDMDL
MODEL 3
REMARK VINA RESULT:      -7.0     10.367     12.057
REMARK  11 active torsions:
REMARK  status: ('A' for Active; 'I' for Inactive)
REMARK    1  A    between atoms: C_4  and  N_5 
REMARK    2  A    between atoms: C_6  and  C_7 
REMARK    3  A    between atoms: C_7  and  N_8 
REMARK    4  A    between atoms: C_11  and  C_12 
REMARK    5  A    between atoms: C_12  and  C_13 
REMARK    6  A    between atoms: C_13  and  O_14 
REMARK    7  A    between atoms: P_15  and  O_14 
REMARK    8  A    between atoms: P_15  and  O_16 
REMARK    9  A    between atoms: P_15  and  O_18 
REMARK   10  A    between atoms: O_18  and  P_19 
REMARK   11  A    between atoms: P_19  and  O_20 
ROOT
HETATM    1  N   UNK N   1      27.233  18.544   5.658  0.00  0.00    -0.349 N 
HETATM    2  C   UNK N   1      27.361  19.747   6.267  0.00  0.00     0.141 A 
HETATM    3  S   UNK N   1      26.557  20.868   5.337  0.00  0.00    -0.087 SA
HETATM    4  C   UNK N   1      26.027  19.849   4.149  0.00  0.00     0.008 A 
HETATM    5  C   UNK N   1      26.500  18.576   4.485  0.00  0.00     0.021 A 
HETATM    6  C   UNK N   1      26.227  17.365   3.662  0.00  0.00     0.069 C 
ENDROOT
BRANCH   4   7
HETATM    7  C   UNK N   1      25.191  20.202   2.962  0.00  0.00     0.075 C 
BRANCH   7   8
HETATM    8  C   UNK N   1      23.705  20.035   3.263  0.00  0.00     0.185 C 
BRANCH   8   9
HETATM    9  O   UNK N   1      22.964  21.154   2.852  0.00  0.00    -0.296 OA
BRANCH   9  10
HETATM   10  P   UNK N   1      21.354  20.583   2.463  0.00  0.00     0.402 P 
HETATM   11  O   UNK N   1      20.704  21.475   1.369  0.00  0.00    -0.631 OA
BRANCH  10  12
HETATM   12  O   UNK N   1      20.324  20.729   3.855  0.00  0.00    -0.307 OA
HETATM   13  H   UNK N   1      20.463  21.412   4.530  0.00  0.00     0.222 HD
ENDBRANCH  10  12
BRANCH  10  14
HETATM   14  O   UNK N   1      21.249  18.941   1.882  0.00  0.00    -0.188 OA
BRANCH  14  15
HETATM   15  P   UNK N   1      20.084  17.999   2.794  0.00  0.00     0.414 P 
HETATM   16  O   UNK N   1      18.629  18.904   2.688  0.00  0.00    -0.624 OA
HETATM   17  O   UNK N   1      20.363  17.889   4.322  0.00  0.00    -0.624 OA
BRANCH  15  18
HETATM   18  O   UNK N   1      19.707  16.436   2.128  0.00  0.00    -0.300 OA
HETATM   19  H   UNK N   1      19.904  15.539   2.442  0.00  0.00     0.223 HD
ENDBRANCH  15  18
ENDBRANCH  14  15
ENDBRANCH  10  14
ENDBRANCH   9  10
ENDBRANCH   8   9
ENDBRANCH   7   8
ENDBRANCH   4   7
BRANCH   1  20
HETATM   20  C   UNK N   1      27.795  17.296   6.182  0.00  0.00     0.171 C 
BRANCH  20  21
HETATM   21  C   UNK N   1      29.293  17.257   6.123  0.00  0.00     0.002 A 
HETATM   22  C   UNK N   1      30.105  17.282   7.274  0.00  0.00     0.036 A 
HETATM   23  C   UNK N   1      31.493  17.294   7.139  0.00  0.00     0.054 A 
HETATM   24  C   UNK N   1      32.060  17.291   5.865  0.00  0.00     0.007 A 
HETATM   25  C   UNK N   1      33.537  17.322   5.712  0.00  0.00     0.068 C 
HETATM   26  N   UNK N   1      31.263  17.268   4.763  0.00  0.00    -0.369 N 
HETATM   27  C   UNK N   1      29.907  17.250   4.867  0.00  0.00     0.099 A 
ATOM     28  HN  UNK N   1      31.692  17.264   3.838  1.00  0.00     0.165 HD
BRANCH  22  29
HETATM   29  N   UNK N   1      29.540  17.298   8.568  0.00  0.00    -0.399 N 
HETATM   30  H   UNK N   1      29.091  17.990   9.106  0.00  0.00     0.156 HD
HETATM   31  H   UNK N   1      29.610  16.432   9.030  0.00  0.00     0.156 HD
ENDBRANCH  22  29
ENDBRANCH  20  21
ENDBRANCH   1  20
TORSDOF 11
ENDMDL
MODEL 4
REMARK VINA RESULT:      -6.9      1.968      2.754
REMARK  11 active torsions:
REMARK  status: ('A' for Active; 'I' for Inactive)
REMARK    1  A    between atoms: C_4  and  N_5 
REMARK    2  A    between atoms: C_6  and  C_7 
REMARK    3  A    between atoms: C_7  and  N_8 
REMARK    4  A    between atoms: C_11  and  C_12 
REMARK    5  A    between atoms: C_12  and  C_13 
REMARK    6  A    between atoms: C_13  and  O_14 
REMARK    7  A    between atoms: P_15  and  O_14 
REMARK    8  A    between atoms: P_15  and  O_16 
REMARK    9  A    between atoms: P_15  and  O_18 
REMARK   10  A    between atoms: O_18  and  P_19 
REMARK   11  A    between atoms: P_19  and  O_20 
ROOT
HETATM    1  N   UNK N   1      29.551  17.097   7.068  0.00  0.00    -0.349 N 
HETATM    2  C   UNK N   1      29.093  17.670   8.207  0.00  0.00     0.141 A 
HETATM    3  S   UNK N   1      30.412  18.234   9.050  0.00  0.00    -0.087 SA
HETATM    4  C   UNK N   1      31.586  17.770   7.985  0.00  0.00     0.008 A 
HETATM    5  C   UNK N   1      30.926  17.141   6.923  0.00  0.00     0.021 A 
HETATM    6  C   UNK N   1      31.638  16.580   5.742  0.00  0.00     0.069 C 
ENDROOT
BRANCH   4   7
HETATM    7  C   UNK N   1      33.059  17.991   8.109  0.00  0.00     0.075 C 
BRANCH   7   8
HETATM    8  C   UNK N   1      33.699  16.952   9.024  0.00  0.00     0.185 C 
BRANCH   8   9
HETATM    9  O   UNK N   1      33.924  15.741   8.354  0.00  0.00    -0.296 OA
BRANCH   9  10
HETATM   10  P   UNK N   1      33.654  14.458   9.517  0.00  0.00     0.402 P 
HETATM   11  O   UNK N   1      32.689  13.385   8.938  0.00  0.00    -0.631 OA
BRANCH  10  12
HETATM   12  O   UNK N   1      32.852  15.095  10.921  0.00  0.00    -0.307 OA
HETATM   13  H   UNK N   1      31.966  15.487  10.876  0.00  0.00     0.222 HD
ENDBRANCH  10  12
BRANCH  10  14
HETATM   14  O   UNK N   1      35.077  13.601  10.049  0.00  0.00    -0.188 OA
BRANCH  14  15
HETATM   15  P   UNK N   1      35.717  14.264  11.542  0.00  0.00     0.414 P 
HETATM   16  O   UNK N   1      34.675  13.650  12.760  0.00  0.00    -0.624 OA
HETATM   17  O   UNK N   1      35.615  15.810  11.685  0.00  0.00    -0.624 OA
BRANCH  15  18
HETATM   18  O   UNK N   1      37.311  13.713  11.975  0.00  0.00    -0.300 OA
HETATM   19  H   UNK N   1      38.032  13.347  11.440  0.00  0.00     0.223 HD
ENDBRANCH  15  18
ENDBRANCH  14  15
ENDBRANCH  10  14
ENDBRANCH   9  10
ENDBRANCH   8   9
ENDBRANCH   7   8
ENDBRANCH   4   7
BRANCH   1  20
HETATM   20  C   UNK N   1      28.687  16.494   6.049  0.00  0.00     0.171 C 
BRANCH  20  21
HETATM   21  C   UNK N   1      27.854  17.502   5.315  0.00  0.00     0.002 A 
HETATM   22  C   UNK N   1      26.446  17.479   5.319  0.00  0.00     0.036 A 
HETATM   23  C   UNK N   1      25.739  18.420   4.571  0.00  0.00     0.054 A 
HETATM   24  C   UNK N   1      26.435  19.367   3.820  0.00  0.00     0.007 A 
HETATM   25  C   UNK N   1      25.691  20.360   3.006  0.00  0.00     0.068 C 
HETATM   26  N   UNK N   1      27.796  19.375   3.825  0.00  0.00    -0.369 N 
HETATM   27  C   UNK N   1      28.510  18.473   4.551  0.00  0.00     0.099 A 
ATOM     28  HN  UNK N   1      28.292  20.074   3.273  1.00  0.00     0.165 HD
BRANCH  22  29
HETATM   29  N   UNK N   1      25.731  16.517   6.065  0.00  0.00    -0.399 N 
HETATM   30  H   UNK N   1      25.899  15.576   6.301  0.00  0.00     0.156 HD
HETATM   31  H   UNK N   1      24.883  16.861   6.427  0.00  0.00     0.156 HD
ENDBRANCH  22  29
ENDBRANCH  20  21
ENDBRANCH   1  20
TORSDOF 11
ENDMDL
MODEL 5
REMARK VINA RESULT:      -6.8      6.461      9.563
REMARK  11 active torsions:
REMARK  status: ('A' for Active; 'I' for Inactive)
REMARK    1  A    between atoms: C_4  and  N_5 
REMARK    2  A    between atoms: C_6  and  C_7 
REMARK    3  A    between atoms: C_7  and  N_8 
REMARK    4  A    between atoms: C_11  and  C_12 
REMARK    5  A    between atoms: C_12  and  C_13 
REMARK    6  A    between atoms: C_13  and  O_14 
REMARK    7  A    between atoms: P_15  and  O_14 
REMARK    8  A    between atoms: P_15  and  O_16 
REMARK    9  A    between atoms: P_15  and  O_18 
REMARK   10  A    between atoms: O_18  and  P_19 
REMARK   11  A    between atoms: P_19  and  O_20 
ROOT
HETATM    1  N   UNK N   1      36.425  12.630  10.924  0.00  0.00    -0.349 N 
HETATM    2  C   UNK N   1      35.177  12.114  10.821  0.00  0.00     0.141 A 
HETATM    3  S   UNK N   1      34.482  12.752   9.449  0.00  0.00    -0.087 SA
HETATM    4  C   UNK N   1      35.752  13.688   8.959  0.00  0.00     0.008 A 
HETATM    5  C   UNK N   1      36.765  13.503   9.907  0.00  0.00     0.021 A 
HETATM    6  C   UNK N   1      38.092  14.174   9.819  0.00  0.00     0.069 C 
ENDROOT
BRANCH   4   7
HETATM    7  C   UNK N   1      35.823  14.547   7.738  0.00  0.00     0.075 C 
BRANCH   7   8
HETATM    8  C   UNK N   1      34.601  15.452   7.627  0.00  0.00     0.185 C 
BRANCH   8   9
HETATM    9  O   UNK N   1      34.543  16.375   8.682  0.00  0.00    -0.296 OA
BRANCH   9  10
HETATM   10  P   UNK N   1      34.152  17.931   7.976  0.00  0.00     0.402 P 
HETATM   11  O   UNK N   1      34.290  17.882   6.429  0.00  0.00    -0.631 OA
BRANCH  10  12
HETATM   12  O   UNK N   1      35.297  19.124   8.509  0.00  0.00    -0.307 OA
HETATM   13  H   UNK N   1      35.568  19.866   7.946  0.00  0.00     0.222 HD
ENDBRANCH  10  12
BRANCH  10  14
HETATM   14  O   UNK N   1      32.548  18.534   8.306  0.00  0.00    -0.188 OA
BRANCH  14  15
HETATM   15  P   UNK N   1      31.364  17.241   8.364  0.00  0.00     0.414 P 
HETATM   16  O   UNK N   1      31.422  16.541   6.797  0.00  0.00    -0.624 OA
HETATM   17  O   UNK N   1      29.886  17.696   8.533  0.00  0.00    -0.624 OA
BRANCH  15  18
HETATM   18  O   UNK N   1      31.735  15.943   9.465  0.00  0.00    -0.300 OA
HETATM   19  H   UNK N   1      32.480  15.323   9.498  0.00  0.00     0.223 HD
ENDBRANCH  15  18
ENDBRANCH  14  15
ENDBRANCH  10  14
ENDBRANCH   9  10
ENDBRANCH   8   9
ENDBRANCH   7   8
ENDBRANCH   4   7
BRANCH   1  20
HETATM   20  C   UNK N   1      37.363  12.296  12.000  0.00  0.00     0.171 C 
BRANCH  20  21
HETATM   21  C   UNK N   1      36.752  12.400  13.365  0.00  0.00     0.002 A 
HETATM   22  C   UNK N   1      36.442  13.634  13.971  0.00  0.00     0.036 A 
HETATM   23  C   UNK N   1      35.921  13.655  15.265  0.00  0.00     0.054 A 
HETATM   24  C   UNK N   1      35.722  12.454  15.945  0.00  0.00     0.007 A 
HETATM   25  C   UNK N   1      35.185  12.468  17.330  0.00  0.00     0.068 C 
HETATM   26  N   UNK N   1      36.027  11.271  15.347  0.00  0.00    -0.369 N 
HETATM   27  C   UNK N   1      36.530  11.223  14.084  0.00  0.00     0.099 A 
ATOM     28  HN  UNK N   1      35.874  10.401  15.856  1.00  0.00     0.165 HD
BRANCH  22  29
HETATM   29  N   UNK N   1      36.653  14.855  13.295  0.00  0.00    -0.399 N 
HETATM   30  H   UNK N   1      37.425  15.459  13.204  0.00  0.00     0.156 HD
HETATM   31  H   UNK N   1      35.856  15.171  12.811  0.00  0.00     0.156 HD
ENDBRANCH  22  29
ENDBRANCH  20  21
ENDBRANCH   1  20
TORSDOF 11
ENDMDL
MODEL 6
REMARK VINA RESULT:      -6.7      1.652      2.486
REMARK  11 active torsions:
REMARK  status: ('A' for Active; 'I' for Inactive)
REMARK    1  A    between atoms: C_4  and  N_5 
REMARK    2  A    between atoms: C_6  and  C_7 
REMARK    3  A    between atoms: C_7  and  N_8 
REMARK    4  A    between atoms: C_11  and  C_12 
REMARK    5  A    between atoms: C_12  and  C_13 
REMARK    6  A    between atoms: C_13  and  O_14 
REMARK    7  A    between atoms: P_15  and  O_14 
REMARK    8  A    between atoms: P_15  and  O_16 
REMARK    9  A    between atoms: P_15  and  O_18 
REMARK   10  A    between atoms: O_18  and  P_19 
REMARK   11  A    between atoms: P_19  and  O_20 
ROOT
HETATM    1  N   UNK N   1      30.179  16.838   6.839  0.00  0.00    -0.349 N 
HETATM    2  C   UNK N   1      29.965  17.472   8.017  0.00  0.00     0.141 A 
HETATM    3  S   UNK N   1      31.443  17.973   8.594  0.00  0.00    -0.087 SA
HETATM    4  C   UNK N   1      32.381  17.402   7.359  0.00  0.00     0.008 A 
HETATM    5  C   UNK N   1      31.507  16.787   6.455  0.00  0.00     0.021 A 
HETATM    6  C   UNK N   1      31.965  16.147   5.191  0.00  0.00     0.069 C 
ENDROOT
BRANCH   4   7
HETATM    7  C   UNK N   1      33.863  17.530   7.216  0.00  0.00     0.075 C 
BRANCH   7   8
HETATM    8  C   UNK N   1      34.567  17.330   8.553  0.00  0.00     0.185 C 
BRANCH   8   9
HETATM    9  O   UNK N   1      34.893  15.982   8.770  0.00  0.00    -0.296 OA
BRANCH   9  10
HETATM   10  P   UNK N   1      35.437  15.851  10.431  0.00  0.00     0.402 P 
HETATM   11  O   UNK N   1      35.279  17.209  11.170  0.00  0.00    -0.631 OA
BRANCH  10  12
HETATM   12  O   UNK N   1      37.138  15.496  10.467  0.00  0.00    -0.307 OA
HETATM   13  H   UNK N   1      37.768  16.040  10.964  0.00  0.00     0.222 HD
ENDBRANCH  10  12
BRANCH  10  14
HETATM   14  O   UNK N   1      34.615  14.662  11.408  0.00  0.00    -0.188 OA
BRANCH  14  15
HETATM   15  P   UNK N   1      35.672  13.978  12.629  0.00  0.00     0.414 P 
HETATM   16  O   UNK N   1      34.615  13.116  13.672  0.00  0.00    -0.624 OA
HETATM   17  O   UNK N   1      36.377  15.010  13.557  0.00  0.00    -0.624 OA
BRANCH  15  18
HETATM   18  O   UNK N   1      36.813  12.799  12.048  0.00  0.00    -0.300 OA
HETATM   19  H   UNK N   1      36.715  11.854  11.850  0.00  0.00     0.223 HD
ENDBRANCH  15  18
ENDBRANCH  14  15
ENDBRANCH  10  14
ENDBRANCH   9  10
ENDBRANCH   8   9
ENDBRANCH   7   8
ENDBRANCH   4   7
BRANCH   1  20
HETATM   20  C   UNK N   1      29.115  16.263   6.012  0.00  0.00     0.171 C 
BRANCH  20  21
HETATM   21  C   UNK N   1      28.236  17.302   5.382  0.00  0.00     0.002 A 
HETATM   22  C   UNK N   1      26.844  17.357   5.596  0.00  0.00     0.036 A 
HETATM   23  C   UNK N   1      26.083  18.322   4.937  0.00  0.00     0.054 A 
HETATM   24  C   UNK N   1      26.709  19.215   4.066  0.00  0.00     0.007 A 
HETATM   25  C   UNK N   1      25.903  20.233   3.346  0.00  0.00     0.068 C 
HETATM   26  N   UNK N   1      28.053  19.148   3.870  0.00  0.00    -0.369 N 
HETATM   27  C   UNK N   1      28.819  18.221   4.505  0.00  0.00     0.099 A 
ATOM     28  HN  UNK N   1      28.497  19.808   3.232  1.00  0.00     0.165 HD
BRANCH  22  29
HETATM   29  N   UNK N   1      26.200  16.450   6.465  0.00  0.00    -0.399 N 
HETATM   30  H   UNK N   1      25.464  15.806   6.353  0.00  0.00     0.156 HD
HETATM   31  H   UNK N   1      26.567  16.464   7.379  0.00  0.00     0.156 HD
ENDBRANCH  22  29
ENDBRANCH  20  21
ENDBRANCH   1  20
TORSDOF 11
ENDMDL
MODEL 7
REMARK VINA RESULT:      -6.7      1.128      1.921
REMARK  11 active torsions:
REMARK  status: ('A' for Active; 'I' for Inactive)
REMARK    1  A    between atoms: C_4  and  N_5 
REMARK    2  A    between atoms: C_6  and  C_7 
REMARK    3  A    between atoms: C_7  and  N_8 
REMARK    4  A    between atoms: C_11  and  C_12 
REMARK    5  A    between atoms: C_12  and  C_13 
REMARK    6  A    between atoms: C_13  and  O_14 
REMARK    7  A    between atoms: P_15  and  O_14 
REMARK    8  A    between atoms: P_15  and  O_16 
REMARK    9  A    between atoms: P_15  and  O_18 
REMARK   10  A    between atoms: O_18  and  P_19 
REMARK   11  A    between atoms: P_19  and  O_20 
ROOT
HETATM    1  N   UNK N   1      30.921  17.077   6.175  0.00  0.00    -0.349 N 
HETATM    2  C   UNK N   1      31.650  17.107   5.033  0.00  0.00     0.141 A 
HETATM    3  S   UNK N   1      33.221  17.461   5.451  0.00  0.00    -0.087 SA
HETATM    4  C   UNK N   1      33.008  17.576   7.086  0.00  0.00     0.008 A 
HETATM    5  C   UNK N   1      31.651  17.333   7.322  0.00  0.00     0.021 A 
HETATM    6  C   UNK N   1      31.050  17.338   8.685  0.00  0.00     0.069 C 
ENDROOT
BRANCH   4   7
HETATM    7  C   UNK N   1      34.053  17.859   8.115  0.00  0.00     0.075 C 
BRANCH   7   8
HETATM    8  C   UNK N   1      34.475  16.585   8.841  0.00  0.00     0.185 C 
BRANCH   8   9
HETATM    9  O   UNK N   1      35.038  16.866  10.095  0.00  0.00    -0.296 OA
BRANCH   9  10
HETATM   10  P   UNK N   1      35.409  15.324  10.842  0.00  0.00     0.402 P 
HETATM   11  O   UNK N   1      34.172  14.771  11.603  0.00  0.00    -0.631 OA
BRANCH  10  12
HETATM   12  O   UNK N   1      36.641  15.536  12.049  0.00  0.00    -0.307 OA
HETATM   13  H   UNK N   1      36.765  14.906  12.776  0.00  0.00     0.222 HD
ENDBRANCH  10  12
BRANCH  10  14
HETATM   14  O   UNK N   1      35.924  14.059   9.758  0.00  0.00    -0.188 OA
BRANCH  14  15
HETATM   15  P   UNK N   1      37.569  13.547  10.088  0.00  0.00     0.414 P 
HETATM   16  O   UNK N   1      38.524  14.929   9.733  0.00  0.00    -0.624 OA
HETATM   17  O   UNK N   1      38.125  12.438   9.149  0.00  0.00    -0.624 OA
BRANCH  15  18
HETATM   18  O   UNK N   1      37.908  13.164  11.753  0.00  0.00    -0.300 OA
HETATM   19  H   UNK N   1      38.729  12.900  12.196  0.00  0.00     0.223 HD
ENDBRANCH  15  18
ENDBRANCH  14  15
ENDBRANCH  10  14
ENDBRANCH   9  10
ENDBRANCH   8   9
ENDBRANCH   7   8
ENDBRANCH   4   7
BRANCH   1  20
HETATM   20  C   UNK N   1      29.486  16.781   6.224  0.00  0.00     0.171 C 
BRANCH  20  21
HETATM   21  C   UNK N   1      28.632  18.013   6.173  0.00  0.00     0.002 A 
HETATM   22  C   UNK N   1      28.286  18.653   4.967  0.00  0.00     0.036 A 
HETATM   23  C   UNK N   1      27.529  19.824   5.000  0.00  0.00     0.054 A 
HETATM   24  C   UNK N   1      27.132  20.352   6.229  0.00  0.00     0.007 A 
HETATM   25  C   UNK N   1      26.342  21.608   6.275  0.00  0.00     0.068 C 
HETATM   26  N   UNK N   1      27.475  19.722   7.385  0.00  0.00    -0.369 N 
HETATM   27  C   UNK N   1      28.208  18.575   7.380  0.00  0.00     0.099 A 
ATOM     28  HN  UNK N   1      27.177  20.118   8.276  1.00  0.00     0.165 HD
BRANCH  22  29
HETATM   29  N   UNK N   1      28.694  18.134   3.719  0.00  0.00    -0.399 N 
HETATM   30  H   UNK N   1      28.509  17.297   3.236  0.00  0.00     0.156 HD
HETATM   31  H   UNK N   1      29.292  18.741   3.225  0.00  0.00     0.156 HD
ENDBRANCH  22  29
ENDBRANCH  20  21
ENDBRANCH   1  20
TORSDOF 11
ENDMDL
MODEL 8
REMARK VINA RESULT:      -6.6      9.277     11.497
REMARK  11 active torsions:
REMARK  status: ('A' for Active; 'I' for Inactive)
REMARK    1  A    between atoms: C_4  and  N_5 
REMARK    2  A    between atoms: C_6  and  C_7 
REMARK    3  A    between atoms: C_7  and  N_8 
REMARK    4  A    between atoms: C_11  and  C_12 
REMARK    5  A    between atoms: C_12  and  C_13 
REMARK    6  A    between atoms: C_13  and  O_14 
REMARK    7  A    between atoms: P_15  and  O_14 
REMARK    8  A    between atoms: P_15  and  O_16 
REMARK    9  A    between atoms: P_15  and  O_18 
REMARK   10  A    between atoms: O_18  and  P_19 
REMARK   11  A    between atoms: P_19  and  O_20 
ROOT
HETATM    1  N   UNK N   1      27.803  18.025   6.702  0.00  0.00    -0.349 N 
HETATM    2  C   UNK N   1      27.741  19.377   6.645  0.00  0.00     0.141 A 
HETATM    3  S   UNK N   1      26.898  19.784   5.269  0.00  0.00    -0.087 SA
HETATM    4  C   UNK N   1      26.591  18.254   4.723  0.00  0.00     0.008 A 
HETATM    5  C   UNK N   1      27.175  17.383   5.650  0.00  0.00     0.021 A 
HETATM    6  C   UNK N   1      27.114  15.901   5.520  0.00  0.00     0.069 C 
ENDROOT
BRANCH   4   7
HETATM    7  C   UNK N   1      25.826  17.868   3.499  0.00  0.00     0.075 C 
BRANCH   7   8
HETATM    8  C   UNK N   1      24.407  17.434   3.848  0.00  0.00     0.185 C 
BRANCH   8   9
HETATM    9  O   UNK N   1      23.623  18.518   4.271  0.00  0.00    -0.296 OA
BRANCH   9  10
HETATM   10  P   UNK N   1      21.957  18.116   3.902  0.00  0.00     0.402 P 
HETATM   11  O   UNK N   1      21.021  18.519   5.075  0.00  0.00    -0.631 OA
BRANCH  10  12
HETATM   12  O   UNK N   1      21.789  16.394   3.742  0.00  0.00    -0.307 OA
HETATM   13  H   UNK N   1      22.426  15.775   4.131  0.00  0.00     0.222 HD
ENDBRANCH  10  12
BRANCH  10  14
HETATM   14  O   UNK N   1      21.296  18.861   2.470  0.00  0.00    -0.188 OA
BRANCH  14  15
HETATM   15  P   UNK N   1      21.254  20.609   2.603  0.00  0.00     0.414 P 
HETATM   16  O   UNK N   1      20.717  21.140   1.061  0.00  0.00    -0.624 OA
HETATM   17  O   UNK N   1      22.636  21.298   2.792  0.00  0.00    -0.624 OA
BRANCH  15  18
HETATM   18  O   UNK N   1      20.096  21.240   3.740  0.00  0.00    -0.300 OA
HETATM   19  H   UNK N   1      20.037  21.165   4.705  0.00  0.00     0.223 HD
ENDBRANCH  15  18
ENDBRANCH  14  15
ENDBRANCH  10  14
ENDBRANCH   9  10
ENDBRANCH   8   9
ENDBRANCH   7   8
ENDBRANCH   4   7
BRANCH   1  20
HETATM   20  C   UNK N   1      28.456  17.279   7.781  0.00  0.00     0.171 C 
BRANCH  20  21
HETATM   21  C   UNK N   1      29.953  17.362   7.729  0.00  0.00     0.002 A 
HETATM   22  C   UNK N   1      30.714  18.047   8.696  0.00  0.00     0.036 A 
HETATM   23  C   UNK N   1      32.099  18.124   8.555  0.00  0.00     0.054 A 
HETATM   24  C   UNK N   1      32.713  17.530   7.453  0.00  0.00     0.007 A 
HETATM   25  C   UNK N   1      34.185  17.623   7.285  0.00  0.00     0.068 C 
HETATM   26  N   UNK N   1      31.964  16.873   6.527  0.00  0.00    -0.369 N 
HETATM   27  C   UNK N   1      30.612  16.778   6.644  0.00  0.00     0.099 A 
ATOM     28  HN  UNK N   1      32.426  16.442   5.727  1.00  0.00     0.165 HD
BRANCH  22  29
HETATM   29  N   UNK N   1      30.101  18.663   9.809  0.00  0.00    -0.399 N 
HETATM   30  H   UNK N   1      30.119  18.491  10.778  0.00  0.00     0.156 HD
HETATM   31  H   UNK N   1      29.535  19.430   9.562  0.00  0.00     0.156 HD
ENDBRANCH  22  29
ENDBRANCH  20  21
ENDBRANCH   1  20
TORSDOF 11
ENDMDL
MODEL 9
REMARK VINA RESULT:      -6.6      9.070     12.191
REMARK  11 active torsions:
REMARK  status: ('A' for Active; 'I' for Inactive)
REMARK    1  A    between atoms: C_4  and  N_5 
REMARK    2  A    between atoms: C_6  and  C_7 
REMARK    3  A    between atoms: C_7  and  N_8 
REMARK    4  A    between atoms: C_11  and  C_12 
REMARK    5  A    between atoms: C_12  and  C_13 
REMARK    6  A    between atoms: C_13  and  O_14 
REMARK    7  A    between atoms: P_15  and  O_14 
REMARK    8  A    between atoms: P_15  and  O_16 
REMARK    9  A    between atoms: P_15  and  O_18 
REMARK   10  A    between atoms: O_18  and  P_19 
REMARK   11  A    between atoms: P_19  and  O_20 
ROOT
HETATM    1  N   UNK N   1      35.213  11.762  15.906  0.00  0.00    -0.349 N 
HETATM    2  C   UNK N   1      36.067  12.754  16.255  0.00  0.00     0.141 A 
HETATM    3  S   UNK N   1      36.313  13.701  14.909  0.00  0.00    -0.087 SA
HETATM    4  C   UNK N   1      35.335  12.877  13.862  0.00  0.00     0.008 A 
HETATM    5  C   UNK N   1      34.794  11.810  14.589  0.00  0.00     0.021 A 
HETATM    6  C   UNK N   1      33.846  10.824  13.999  0.00  0.00     0.069 C 
ENDROOT
BRANCH   4   7
HETATM    7  C   UNK N   1      35.060  13.209  12.431  0.00  0.00     0.075 C 
BRANCH   7   8
HETATM    8  C   UNK N   1      35.884  14.408  11.974  0.00  0.00     0.185 C 
BRANCH   8   9
HETATM    9  O   UNK N   1      35.950  14.486  10.574  0.00  0.00    -0.296 OA
BRANCH   9  10
HETATM   10  P   UNK N   1      34.957  15.848  10.094  0.00  0.00     0.402 P 
HETATM   11  O   UNK N   1      35.301  17.105  10.941  0.00  0.00    -0.631 OA
BRANCH  10  12
HETATM   12  O   UNK N   1      33.286  15.505  10.428  0.00  0.00    -0.307 OA
HETATM   13  H   UNK N   1      32.751  16.066  11.010  0.00  0.00     0.222 HD
ENDBRANCH  10  12
BRANCH  10  14
HETATM   14  O   UNK N   1      35.087  16.332   8.423  0.00  0.00    -0.188 OA
BRANCH  14  15
HETATM   15  P   UNK N   1      34.275  17.857   8.121  0.00  0.00     0.414 P 
HETATM   16  O   UNK N   1      34.114  17.922   6.413  0.00  0.00    -0.624 OA
HETATM   17  O   UNK N   1      35.091  19.132   8.483  0.00  0.00    -0.624 OA
BRANCH  15  18
HETATM   18  O   UNK N   1      32.653  17.972   8.743  0.00  0.00    -0.300 OA
HETATM   19  H   UNK N   1      32.030  18.714   8.779  0.00  0.00     0.223 HD
ENDBRANCH  15  18
ENDBRANCH  14  15
ENDBRANCH  10  14
ENDBRANCH   9  10
ENDBRANCH   8   9
ENDBRANCH   7   8
ENDBRANCH   4   7
BRANCH   1  20
HETATM   20  C   UNK N   1      34.739  10.727  16.829  0.00  0.00     0.171 C 
BRANCH  20  21
HETATM   21  C   UNK N   1      35.552  10.645  18.086  0.00  0.00     0.002 A 
HETATM   22  C   UNK N   1      36.570   9.690  18.277  0.00  0.00     0.036 A 
HETATM   23  C   UNK N   1      37.251   9.641  19.493  0.00  0.00     0.054 A 
HETATM   24  C   UNK N   1      36.908  10.533  20.509  0.00  0.00     0.007 A 
HETATM   25  C   UNK N   1      37.615  10.476  21.813  0.00  0.00     0.068 C 
HETATM   26  N   UNK N   1      35.922  11.448  20.310  0.00  0.00    -0.369 N 
HETATM   27  C   UNK N   1      35.246  11.521  19.131  0.00  0.00     0.099 A 
ATOM     28  HN  UNK N   1      35.683  12.095  21.061  1.00  0.00     0.165 HD
BRANCH  22  29
HETATM   29  N   UNK N   1      36.915   8.774  17.259  0.00  0.00    -0.399 N 
HETATM   30  H   UNK N   1      37.771   8.453  16.893  0.00  0.00     0.156 HD
HETATM   31  H   UNK N   1      36.131   8.370  16.821  0.00  0.00     0.156 HD
ENDBRANCH  22  29
ENDBRANCH  20  21
ENDBRANCH   1  20
TORSDOF 11
ENDMDL
