MODEL 1
REMARK VINA RESULT:      -3.2      0.000      0.000
REMARK  4 active torsions:
REMARK  status: ('A' for Active; 'I' for Inactive)
REMARK    1  A    between atoms: O_1  and  C_2 
REMARK    2  A    between atoms: C_2  and  C_3 
REMARK    3  A    between atoms: C_3  and  C_4 
REMARK    4  A    between atoms: C_4  and  O_5 
ROOT
HETATM    1  C   UNK N   1      23.055  12.249  11.548  0.00  0.00     0.052 C 
ENDROOT
BRANCH   1   2
HETATM    2  C   UNK N   1      24.379  12.015  10.851  0.00  0.00     0.166 C 
BRANCH   2   3
HETATM    3  O   UNK N   1      25.364  12.810  11.432  0.00  0.00    -0.401 OA
HETATM    4  H   UNK N   1      25.909  13.392  10.877  0.00  0.00     0.209 HD
ENDBRANCH   2   3
ENDBRANCH   1   2
BRANCH   1   5
HETATM    5  C   UNK N   1      23.143  11.696  12.955  0.00  0.00     0.166 C 
BRANCH   5   6
HETATM    6  O   UNK N   1      23.845  12.583  13.767  0.00  0.00    -0.401 OA
HETATM    7  H   UNK N   1      24.776  12.413  13.981  0.00  0.00     0.209 HD
ENDBRANCH   5   6
ENDBRANCH   1   5
TORSDOF 4
ENDMDL
MODEL 2
REMARK VINA RESULT:      -3.2      0.145      2.375
REMARK  4 active torsions:
REMARK  status: ('A' for Active; 'I' for Inactive)
REMARK    1  A    between atoms: O_1  and  C_2 
REMARK    2  A    between atoms: C_2  and  C_3 
REMARK    3  A    between atoms: C_3  and  C_4 
REMARK    4  A    between atoms: C_4  and  O_5 
ROOT
HETATM    1  C   UNK N   1      23.144  12.291  11.452  0.00  0.00     0.052 C 
ENDROOT
BRANCH   1   2
HETATM    2  C   UNK N   1      23.047  11.747  12.862  0.00  0.00     0.166 C 
BRANCH   2   3
HETATM    3  O   UNK N   1      23.865  12.489  13.710  0.00  0.00    -0.401 OA
HETATM    4  H   UNK N   1      23.523  12.801  14.563  0.00  0.00     0.209 HD
ENDBRANCH   2   3
ENDBRANCH   1   2
BRANCH   1   5
HETATM    5  C   UNK N   1      24.518  11.975  10.901  0.00  0.00     0.166 C 
BRANCH   5   6
HETATM    6  O   UNK N   1      25.431  12.935  11.333  0.00  0.00    -0.401 OA
HETATM    7  H   UNK N   1      26.197  13.158  10.783  0.00  0.00     0.209 HD
ENDBRANCH   5   6
ENDBRANCH   1   5
TORSDOF 4
ENDMDL
MODEL 3
REMARK VINA RESULT:      -3.1     18.805     19.115
REMARK  4 active torsions:
REMARK  status: ('A' for Active; 'I' for Inactive)
REMARK    1  A    between atoms: O_1  and  C_2 
REMARK    2  A    between atoms: C_2  and  C_3 
REMARK    3  A    between atoms: C_3  and  C_4 
REMARK    4  A    between atoms: C_4  and  O_5 
ROOT
HETATM    1  C   UNK N   1      30.678  21.564  -3.257  0.00  0.00     0.052 C 
ENDROOT
BRANCH   1   2
HETATM    2  C   UNK N   1      29.895  22.680  -2.599  0.00  0.00     0.166 C 
BRANCH   2   3
HETATM    3  O   UNK N   1      30.503  23.036  -1.398  0.00  0.00    -0.401 OA
HETATM    4  H   UNK N   1      31.470  23.028  -1.322  0.00  0.00     0.209 HD
ENDBRANCH   2   3
ENDBRANCH   1   2
BRANCH   1   5
HETATM    5  C   UNK N   1      32.157  21.851  -3.104  0.00  0.00     0.166 C 
BRANCH   5   6
HETATM    6  O   UNK N   1      32.656  21.172  -1.996  0.00  0.00    -0.401 OA
HETATM    7  H   UNK N   1      33.138  21.656  -1.306  0.00  0.00     0.209 HD
ENDBRANCH   5   6
ENDBRANCH   1   5
TORSDOF 4
ENDMDL
MODEL 4
REMARK VINA RESULT:      -3.0     13.039     13.552
REMARK  4 active torsions:
REMARK  status: ('A' for Active; 'I' for Inactive)
REMARK    1  A    between atoms: O_1  and  C_2 
REMARK    2  A    between atoms: C_2  and  C_3 
REMARK    3  A    between atoms: C_3  and  C_4 
REMARK    4  A    between atoms: C_4  and  O_5 
ROOT
HETATM    1  C   UNK N   1      20.601  19.291   1.724  0.00  0.00     0.052 C 
ENDROOT
BRANCH   1   2
HETATM    2  C   UNK N   1      20.685  20.748   1.317  0.00  0.00     0.166 C 
BRANCH   2   3
HETATM    3  O   UNK N   1      20.794  20.844  -0.068  0.00  0.00    -0.401 OA
HETATM    4  H   UNK N   1      21.531  21.336  -0.464  0.00  0.00     0.209 HD
ENDBRANCH   2   3
ENDBRANCH   1   2
BRANCH   1   5
HETATM    5  C   UNK N   1      19.605  19.159   2.856  0.00  0.00     0.166 C 
BRANCH   5   6
HETATM    6  O   UNK N   1      18.383  18.711   2.359  0.00  0.00    -0.401 OA
HETATM    7  H   UNK N   1      17.809  18.156   2.909  0.00  0.00     0.209 HD
ENDBRANCH   5   6
ENDBRANCH   1   5
TORSDOF 4
ENDMDL
MODEL 5
REMARK VINA RESULT:      -3.0     12.980     13.710
REMARK  4 active torsions:
REMARK  status: ('A' for Active; 'I' for Inactive)
REMARK    1  A    between atoms: O_1  and  C_2 
REMARK    2  A    between atoms: C_2  and  C_3 
REMARK    3  A    between atoms: C_3  and  C_4 
REMARK    4  A    between atoms: C_4  and  O_5 
ROOT
HETATM    1  C   UNK N   1      20.952  19.712   2.192  0.00  0.00     0.052 C 
ENDROOT
BRANCH   1   2
HETATM    2  C   UNK N   1      19.618  19.200   2.695  0.00  0.00     0.166 C 
BRANCH   2   3
HETATM    3  O   UNK N   1      19.112  18.254   1.808  0.00  0.00    -0.401 OA
HETATM    4  H   UNK N   1      18.154  18.117   1.737  0.00  0.00     0.209 HD
ENDBRANCH   2   3
ENDBRANCH   1   2
BRANCH   1   5
HETATM    5  C   UNK N   1      20.703  20.868   1.246  0.00  0.00     0.166 C 
BRANCH   5   6
HETATM    6  O   UNK N   1      20.557  20.390  -0.054  0.00  0.00    -0.401 OA
HETATM    7  H   UNK N   1      20.430  21.011  -0.788  0.00  0.00     0.209 HD
ENDBRANCH   5   6
ENDBRANCH   1   5
TORSDOF 4
ENDMDL
MODEL 6
REMARK VINA RESULT:      -3.0     18.898     19.311
REMARK  4 active torsions:
REMARK  status: ('A' for Active; 'I' for Inactive)
REMARK    1  A    between atoms: O_1  and  C_2 
REMARK    2  A    between atoms: C_2  and  C_3 
REMARK    3  A    between atoms: C_3  and  C_4 
REMARK    4  A    between atoms: C_4  and  O_5 
ROOT
HETATM    1  C   UNK N   1      31.710  22.675  -3.441  0.00  0.00     0.052 C 
ENDROOT
BRANCH   1   2
HETATM    2  C   UNK N   1      32.540  21.417  -3.288  0.00  0.00     0.166 C 
BRANCH   2   3
HETATM    3  O   UNK N   1      32.763  21.162  -1.938  0.00  0.00    -0.401 OA
HETATM    4  H   UNK N   1      32.559  20.287  -1.569  0.00  0.00     0.209 HD
ENDBRANCH   2   3
ENDBRANCH   1   2
BRANCH   1   5
HETATM    5  C   UNK N   1      30.399  22.485  -2.708  0.00  0.00     0.166 C 
BRANCH   5   6
HETATM    6  O   UNK N   1      30.495  23.019  -1.425  0.00  0.00    -0.401 OA
HETATM    7  H   UNK N   1      29.878  23.710  -1.139  0.00  0.00     0.209 HD
ENDBRANCH   5   6
ENDBRANCH   1   5
TORSDOF 4
ENDMDL
MODEL 7
REMARK VINA RESULT:      -2.9     12.260     12.656
REMARK  4 active torsions:
REMARK  status: ('A' for Active; 'I' for Inactive)
REMARK    1  A    between atoms: O_1  and  C_2 
REMARK    2  A    between atoms: C_2  and  C_3 
REMARK    3  A    between atoms: C_3  and  C_4 
REMARK    4  A    between atoms: C_4  and  O_5 
ROOT
HETATM    1  C   UNK N   1      34.621  16.974   8.314  0.00  0.00     0.052 C 
ENDROOT
BRANCH   1   2
HETATM    2  C   UNK N   1      34.233  18.425   8.123  0.00  0.00     0.166 C 
BRANCH   2   3
HETATM    3  O   UNK N   1      35.293  19.249   8.490  0.00  0.00    -0.401 OA
HETATM    4  H   UNK N   1      35.184  20.214   8.484  0.00  0.00     0.209 HD
ENDBRANCH   2   3
ENDBRANCH   1   2
BRANCH   1   5
HETATM    5  C   UNK N   1      34.620  16.662   9.796  0.00  0.00     0.166 C 
BRANCH   5   6
HETATM    6  O   UNK N   1      35.669  17.334  10.420  0.00  0.00    -0.401 OA
HETATM    7  H   UNK N   1      36.574  17.239  10.084  0.00  0.00     0.209 HD
ENDBRANCH   5   6
ENDBRANCH   1   5
TORSDOF 4
ENDMDL
MODEL 8
REMARK VINA RESULT:      -2.9     12.080     12.672
REMARK  4 active torsions:
REMARK  status: ('A' for Active; 'I' for Inactive)
REMARK    1  A    between atoms: O_1  and  C_2 
REMARK    2  A    between atoms: C_2  and  C_3 
REMARK    3  A    between atoms: C_3  and  C_4 
REMARK    4  A    between atoms: C_4  and  O_5 
ROOT
HETATM    1  C   UNK N   1      33.784  17.350   8.919  0.00  0.00     0.052 C 
ENDROOT
BRANCH   1   2
HETATM    2  C   UNK N   1      34.869  16.546   9.603  0.00  0.00     0.166 C 
BRANCH   2   3
HETATM    3  O   UNK N   1      35.614  17.375  10.437  0.00  0.00    -0.401 OA
HETATM    4  H   UNK N   1      35.481  17.343  11.399  0.00  0.00     0.209 HD
ENDBRANCH   2   3
ENDBRANCH   1   2
BRANCH   1   5
HETATM    5  C   UNK N   1      34.418  18.209   7.846  0.00  0.00     0.166 C 
BRANCH   5   6
HETATM    6  O   UNK N   1      35.133  19.249   8.436  0.00  0.00    -0.401 OA
HETATM    7  H   UNK N   1      35.006  20.160   8.131  0.00  0.00     0.209 HD
ENDBRANCH   5   6
ENDBRANCH   1   5
TORSDOF 4
ENDMDL
MODEL 9
REMARK VINA RESULT:      -2.7     23.975     24.345
REMARK  4 active torsions:
REMARK  status: ('A' for Active; 'I' for Inactive)
REMARK    1  A    between atoms: O_1  and  C_2 
REMARK    2  A    between atoms: C_2  and  C_3 
REMARK    3  A    between atoms: C_3  and  C_4 
REMARK    4  A    between atoms: C_4  and  O_5 
ROOT
HETATM    1  C   UNK N   1      44.018  21.847   2.804  0.00  0.00     0.052 C 
ENDROOT
BRANCH   1   2
HETATM    2  C   UNK N   1      43.119  23.064   2.872  0.00  0.00     0.166 C 
BRANCH   2   3
HETATM    3  O   UNK N   1      43.464  23.841   3.975  0.00  0.00    -0.401 OA
HETATM    4  H   UNK N   1      42.774  24.307   4.475  0.00  0.00     0.209 HD
ENDBRANCH   2   3
ENDBRANCH   1   2
BRANCH   1   5
HETATM    5  C   UNK N   1      44.682  21.656   4.151  0.00  0.00     0.166 C 
BRANCH   5   6
HETATM    6  O   UNK N   1      45.876  22.372   4.193  0.00  0.00    -0.401 OA
HETATM    7  H   UNK N   1      46.125  22.854   4.997  0.00  0.00     0.209 HD
ENDBRANCH   5   6
ENDBRANCH   1   5
TORSDOF 4
ENDMDL
