MODEL 1
REMARK VINA RESULT:      -5.5      0.000      0.000
REMARK  11 active torsions:
REMARK  status: ('A' for Active; 'I' for Inactive)
REMARK    1  A    between atoms: C_2  and  C_1 
REMARK    2  A    between atoms: O_16  and  C_1 
REMARK    3  A    between atoms: C_6  and  C_2 
REMARK    4  A    between atoms: C_2  and  O_8 
REMARK    5  A    between atoms: C_3  and  O_9 
REMARK    6  A    between atoms: C_4  and  O_10 
REMARK    7  A    between atoms: C_5  and  O_11 
REMARK    8  A    between atoms: C_7  and  O_12 
REMARK    9  A    between atoms: P_18  and  O_13 
REMARK   10  A    between atoms: P_18  and  O_14 
REMARK   11  A    between atoms: P_18  and  O_16 
ROOT
HETATM    1  C   UNK N   1      34.430  17.798   7.946  0.00  0.00     0.183 C 
HETATM    2  C   UNK N   1      34.963  16.736   8.921  0.00  0.00     0.181 C 
HETATM    3  C   UNK N   1      32.922  17.607   7.812  0.00  0.00     0.204 C 
HETATM    4  C   UNK N   1      34.434  15.305   8.560  0.00  0.00     0.186 C 
HETATM    5  C   UNK N   1      32.682  16.232   7.151  0.00  0.00     0.288 C 
HETATM    6  O   UNK N   1      33.683  15.242   7.349  0.00  0.00    -0.348 OA
ENDROOT
BRANCH   4   7
HETATM    7  C   UNK N   1      33.694  14.553   9.691  0.00  0.00     0.174 C 
BRANCH   7   8
HETATM    8  C   UNK N   1      34.664  13.988  10.731  0.00  0.00     0.215 C 
BRANCH   8   9
HETATM    9  O   UNK N   1      34.548  14.645  11.963  0.00  0.00    -0.294 OA
BRANCH   9  10
HETATM   10  P   UNK N   1      35.883  14.053  12.908  0.00  0.00     0.390 P 
HETATM   11  O   UNK N   1      35.477  12.786  12.107  0.00  0.00    -0.632 OA
BRANCH  10  12
HETATM   12  O   UNK N   1      37.373  13.582  12.152  0.00  0.00    -0.307 OA
HETATM   13  H   UNK N   1      38.039  12.899  12.321  0.00  0.00     0.222 HD
ENDBRANCH  10  12
BRANCH  10  14
HETATM   14  O   UNK N   1      36.430  15.280  11.808  0.00  0.00    -0.307 OA
HETATM   15  H   UNK N   1      36.045  15.663  11.004  0.00  0.00     0.222 HD
ENDBRANCH  10  14
ENDBRANCH   9  10
ENDBRANCH   8   9
ENDBRANCH   7   8
BRANCH   7  16
HETATM   16  O   UNK N   1      32.785  15.406  10.327  0.00  0.00    -0.391 OA
HETATM   17  H   UNK N   1      32.568  16.265   9.936  0.00  0.00     0.210 HD
ENDBRANCH   7  16
ENDBRANCH   4   7
BRANCH   2  18
HETATM   18  O   UNK N   1      34.605  17.079  10.233  0.00  0.00    -0.390 OA
HETATM   19  H   UNK N   1      34.884  17.453  11.084  0.00  0.00     0.210 HD
ENDBRANCH   2  18
BRANCH   1  20
HETATM   20  O   UNK N   1      34.733  19.081   8.406  0.00  0.00    -0.390 OA
HETATM   21  H   UNK N   1      34.051  19.627   8.827  0.00  0.00     0.210 HD
ENDBRANCH   1  20
BRANCH   5  22
HETATM   22  O   UNK N   1      31.415  15.731   7.466  0.00  0.00    -0.369 OA
HETATM   23  H   UNK N   1      30.599  15.354   7.102  0.00  0.00     0.212 HD
ENDBRANCH   5  22
BRANCH   3  24
HETATM   24  O   UNK N   1      32.308  17.676   9.067  0.00  0.00    -0.388 OA
HETATM   25  H   UNK N   1      32.168  17.494  10.010  0.00  0.00     0.210 HD
ENDBRANCH   3  24
TORSDOF 11
ENDMDL
MODEL 2
REMARK VINA RESULT:      -5.5      2.347      5.760
REMARK  11 active torsions:
REMARK  status: ('A' for Active; 'I' for Inactive)
REMARK    1  A    between atoms: C_2  and  C_1 
REMARK    2  A    between atoms: O_16  and  C_1 
REMARK    3  A    between atoms: C_6  and  C_2 
REMARK    4  A    between atoms: C_2  and  O_8 
REMARK    5  A    between atoms: C_3  and  O_9 
REMARK    6  A    between atoms: C_4  and  O_10 
REMARK    7  A    between atoms: C_5  and  O_11 
REMARK    8  A    between atoms: C_7  and  O_12 
REMARK    9  A    between atoms: P_18  and  O_13 
REMARK   10  A    between atoms: P_18  and  O_14 
REMARK   11  A    between atoms: P_18  and  O_16 
ROOT
HETATM    1  C   UNK N   1      36.171  11.736  12.007  0.00  0.00     0.183 C 
HETATM    2  C   UNK N   1      34.825  12.441  11.777  0.00  0.00     0.181 C 
HETATM    3  C   UNK N   1      37.278  12.780  11.905  0.00  0.00     0.204 C 
HETATM    4  C   UNK N   1      34.861  13.350  10.500  0.00  0.00     0.186 C 
HETATM    5  C   UNK N   1      37.292  13.307  10.454  0.00  0.00     0.288 C 
HETATM    6  O   UNK N   1      36.064  13.251   9.740  0.00  0.00    -0.348 OA
ENDROOT
BRANCH   4   7
HETATM    7  C   UNK N   1      34.482  14.834  10.716  0.00  0.00     0.174 C 
BRANCH   7   8
HETATM    8  C   UNK N   1      34.715  15.672   9.458  0.00  0.00     0.215 C 
BRANCH   8   9
HETATM    9  O   UNK N   1      33.776  16.704   9.337  0.00  0.00    -0.294 OA
BRANCH   9  10
HETATM   10  P   UNK N   1      34.400  17.726   8.075  0.00  0.00     0.390 P 
HETATM   11  O   UNK N   1      33.004  18.357   8.332  0.00  0.00    -0.632 OA
BRANCH  10  12
HETATM   12  O   UNK N   1      34.782  19.391   8.381  0.00  0.00    -0.307 OA
HETATM   13  H   UNK N   1      34.484  20.054   9.022  0.00  0.00     0.222 HD
ENDBRANCH  10  12
BRANCH  10  14
HETATM   14  O   UNK N   1      35.375  17.882   9.503  0.00  0.00    -0.307 OA
HETATM   15  H   UNK N   1      35.327  18.470  10.273  0.00  0.00     0.222 HD
ENDBRANCH  10  14
ENDBRANCH   9  10
ENDBRANCH   8   9
ENDBRANCH   7   8
BRANCH   7  16
HETATM   16  O   UNK N   1      33.139  14.941  11.096  0.00  0.00    -0.391 OA
HETATM   17  H   UNK N   1      32.477  14.342  10.719  0.00  0.00     0.210 HD
ENDBRANCH   7  16
ENDBRANCH   4   7
BRANCH   2  18
HETATM   18  O   UNK N   1      34.488  13.195  12.911  0.00  0.00    -0.390 OA
HETATM   19  H   UNK N   1      34.254  13.194  13.853  0.00  0.00     0.210 HD
ENDBRANCH   2  18
BRANCH   1  20
HETATM   20  O   UNK N   1      36.188  11.109  13.255  0.00  0.00    -0.390 OA
HETATM   21  H   UNK N   1      36.931  11.242  13.863  0.00  0.00     0.210 HD
ENDBRANCH   1  20
BRANCH   5  22
HETATM   22  O   UNK N   1      37.853  14.586  10.382  0.00  0.00    -0.369 OA
HETATM   23  H   UNK N   1      38.091  15.315   9.788  0.00  0.00     0.212 HD
ENDBRANCH   5  22
BRANCH   3  24
HETATM   24  O   UNK N   1      37.055  13.819  12.815  0.00  0.00    -0.388 OA
HETATM   25  H   UNK N   1      36.592  14.334  13.494  0.00  0.00     0.210 HD
ENDBRANCH   3  24
TORSDOF 11
ENDMDL
MODEL 3
REMARK VINA RESULT:      -5.4      1.443      2.310
REMARK  11 active torsions:
REMARK  status: ('A' for Active; 'I' for Inactive)
REMARK    1  A    between atoms: C_2  and  C_1 
REMARK    2  A    between atoms: O_16  and  C_1 
REMARK    3  A    between atoms: C_6  and  C_2 
REMARK    4  A    between atoms: C_2  and  O_8 
REMARK    5  A    between atoms: C_3  and  O_9 
REMARK    6  A    between atoms: C_4  and  O_10 
REMARK    7  A    between atoms: C_5  and  O_11 
REMARK    8  A    between atoms: C_7  and  O_12 
REMARK    9  A    between atoms: P_18  and  O_13 
REMARK   10  A    between atoms: P_18  and  O_14 
REMARK   11  A    between atoms: P_18  and  O_16 
ROOT
HETATM    1  C   UNK N   1      32.801  16.571   7.090  0.00  0.00     0.183 C 
HETATM    2  C   UNK N   1      34.139  16.999   7.715  0.00  0.00     0.181 C 
HETATM    3  C   UNK N   1      31.839  16.219   8.221  0.00  0.00     0.204 C 
HETATM    4  C   UNK N   1      34.622  15.974   8.798  0.00  0.00     0.186 C 
HETATM    5  C   UNK N   1      32.407  14.983   8.950  0.00  0.00     0.288 C 
HETATM    6  O   UNK N   1      33.817  14.802   8.903  0.00  0.00    -0.348 OA
ENDROOT
BRANCH   4   7
HETATM    7  C   UNK N   1      34.907  16.557  10.202  0.00  0.00     0.174 C 
BRANCH   7   8
HETATM    8  C   UNK N   1      35.569  15.532  11.124  0.00  0.00     0.215 C 
BRANCH   8   9
HETATM    9  O   UNK N   1      34.626  14.820  11.875  0.00  0.00    -0.294 OA
BRANCH   9  10
HETATM   10  P   UNK N   1      35.399  13.306  12.239  0.00  0.00     0.390 P 
HETATM   11  O   UNK N   1      34.757  13.668  13.606  0.00  0.00    -0.632 OA
BRANCH  10  12
HETATM   12  O   UNK N   1      34.463  11.892  12.611  0.00  0.00    -0.307 OA
HETATM   13  H   UNK N   1      34.528  10.951  12.386  0.00  0.00     0.222 HD
ENDBRANCH  10  12
BRANCH  10  14
HETATM   14  O   UNK N   1      34.148  13.067  11.059  0.00  0.00    -0.307 OA
HETATM   15  H   UNK N   1      34.042  13.366  10.142  0.00  0.00     0.222 HD
ENDBRANCH  10  14
ENDBRANCH   9  10
ENDBRANCH   8   9
ENDBRANCH   7   8
BRANCH   7  16
HETATM   16  O   UNK N   1      35.732  17.683  10.101  0.00  0.00    -0.391 OA
HETATM   17  H   UNK N   1      36.693  17.578  10.029  0.00  0.00     0.210 HD
ENDBRANCH   7  16
ENDBRANCH   4   7
BRANCH   2  18
HETATM   18  O   UNK N   1      34.012  18.281   8.270  0.00  0.00    -0.390 OA
HETATM   19  H   UNK N   1      34.200  18.869   9.019  0.00  0.00     0.210 HD
ENDBRANCH   2  18
BRANCH   1  20
HETATM   20  O   UNK N   1      32.284  17.595   6.294  0.00  0.00    -0.390 OA
HETATM   21  H   UNK N   1      31.359  17.872   6.387  0.00  0.00     0.210 HD
ENDBRANCH   1  20
BRANCH   5  22
HETATM   22  O   UNK N   1      31.939  14.908  10.266  0.00  0.00    -0.369 OA
HETATM   23  H   UNK N   1      31.239  15.191  10.875  0.00  0.00     0.212 HD
ENDBRANCH   5  22
BRANCH   3  24
HETATM   24  O   UNK N   1      31.700  17.300   9.097  0.00  0.00    -0.388 OA
HETATM   25  H   UNK N   1      31.892  18.164   9.497  0.00  0.00     0.210 HD
ENDBRANCH   3  24
TORSDOF 11
ENDMDL
MODEL 4
REMARK VINA RESULT:      -5.4      1.514      2.711
REMARK  11 active torsions:
REMARK  status: ('A' for Active; 'I' for Inactive)
REMARK    1  A    between atoms: C_2  and  C_1 
REMARK    2  A    between atoms: O_16  and  C_1 
REMARK    3  A    between atoms: C_6  and  C_2 
REMARK    4  A    between atoms: C_2  and  O_8 
REMARK    5  A    between atoms: C_3  and  O_9 
REMARK    6  A    between atoms: C_4  and  O_10 
REMARK    7  A    between atoms: C_5  and  O_11 
REMARK    8  A    between atoms: C_7  and  O_12 
REMARK    9  A    between atoms: P_18  and  O_13 
REMARK   10  A    between atoms: P_18  and  O_14 
REMARK   11  A    between atoms: P_18  and  O_16 
ROOT
HETATM    1  C   UNK N   1      33.160  16.062   8.662  0.00  0.00     0.183 C 
HETATM    2  C   UNK N   1      34.553  16.489   9.151  0.00  0.00     0.181 C 
HETATM    3  C   UNK N   1      32.724  14.845   9.473  0.00  0.00     0.204 C 
HETATM    4  C   UNK N   1      35.535  15.269   9.229  0.00  0.00     0.186 C 
HETATM    5  C   UNK N   1      33.690  13.689   9.136  0.00  0.00     0.288 C 
HETATM    6  O   UNK N   1      35.001  14.049   8.721  0.00  0.00    -0.348 OA
ENDROOT
BRANCH   4   7
HETATM    7  C   UNK N   1      36.209  15.032  10.601  0.00  0.00     0.174 C 
BRANCH   7   8
HETATM    8  C   UNK N   1      36.916  13.677  10.663  0.00  0.00     0.215 C 
BRANCH   8   9
HETATM    9  O   UNK N   1      36.986  13.184  11.972  0.00  0.00    -0.294 OA
BRANCH   9  10
HETATM   10  P   UNK N   1      35.613  13.881  12.782  0.00  0.00     0.390 P 
HETATM   11  O   UNK N   1      35.183  12.394  12.654  0.00  0.00    -0.632 OA
BRANCH  10  12
HETATM   12  O   UNK N   1      35.228  13.450  14.419  0.00  0.00    -0.307 OA
HETATM   13  H   UNK N   1      34.468  13.037  14.856  0.00  0.00     0.222 HD
ENDBRANCH  10  12
BRANCH  10  14
HETATM   14  O   UNK N   1      37.019  13.989  13.795  0.00  0.00    -0.307 OA
HETATM   15  H   UNK N   1      37.683  13.338  14.072  0.00  0.00     0.222 HD
ENDBRANCH  10  14
ENDBRANCH   9  10
ENDBRANCH   8   9
ENDBRANCH   7   8
BRANCH   7  16
HETATM   16  O   UNK N   1      37.136  16.045  10.869  0.00  0.00    -0.391 OA
HETATM   17  H   UNK N   1      36.954  16.956  10.592  0.00  0.00     0.210 HD
ENDBRANCH   7  16
ENDBRANCH   4   7
BRANCH   2  18
HETATM   18  O   UNK N   1      34.443  17.116  10.401  0.00  0.00    -0.390 OA
HETATM   19  H   UNK N   1      34.526  17.036  11.365  0.00  0.00     0.210 HD
ENDBRANCH   2  18
BRANCH   1  20
HETATM   20  O   UNK N   1      32.249  17.111   8.805  0.00  0.00    -0.390 OA
HETATM   21  H   UNK N   1      31.353  17.038   8.440  0.00  0.00     0.210 HD
ENDBRANCH   1  20
BRANCH   5  22
HETATM   22  O   UNK N   1      33.734  12.746  10.168  0.00  0.00    -0.369 OA
HETATM   23  H   UNK N   1      33.204  12.149  10.720  0.00  0.00     0.212 HD
ENDBRANCH   5  22
BRANCH   3  24
HETATM   24  O   UNK N   1      32.746  15.137  10.841  0.00  0.00    -0.388 OA
HETATM   25  H   UNK N   1      32.902  15.654  11.647  0.00  0.00     0.210 HD
ENDBRANCH   3  24
TORSDOF 11
ENDMDL
MODEL 5
REMARK VINA RESULT:      -5.3     12.655     15.022
REMARK  11 active torsions:
REMARK  status: ('A' for Active; 'I' for Inactive)
REMARK    1  A    between atoms: C_2  and  C_1 
REMARK    2  A    between atoms: O_16  and  C_1 
REMARK    3  A    between atoms: C_6  and  C_2 
REMARK    4  A    between atoms: C_2  and  O_8 
REMARK    5  A    between atoms: C_3  and  O_9 
REMARK    6  A    between atoms: C_4  and  O_10 
REMARK    7  A    between atoms: C_5  and  O_11 
REMARK    8  A    between atoms: C_7  and  O_12 
REMARK    9  A    between atoms: P_18  and  O_13 
REMARK   10  A    between atoms: P_18  and  O_14 
REMARK   11  A    between atoms: P_18  and  O_16 
ROOT
HETATM    1  C   UNK N   1      20.985  14.467   6.878  0.00  0.00     0.183 C 
HETATM    2  C   UNK N   1      19.992  14.896   5.786  0.00  0.00     0.181 C 
HETATM    3  C   UNK N   1      21.859  15.669   7.224  0.00  0.00     0.204 C 
HETATM    4  C   UNK N   1      20.714  15.641   4.611  0.00  0.00     0.186 C 
HETATM    5  C   UNK N   1      22.693  16.016   5.972  0.00  0.00     0.288 C 
HETATM    6  O   UNK N   1      22.136  15.664   4.713  0.00  0.00    -0.348 OA
ENDROOT
BRANCH   4   7
HETATM    7  C   UNK N   1      20.176  17.052   4.273  0.00  0.00     0.174 C 
BRANCH   7   8
HETATM    8  C   UNK N   1      21.042  17.758   3.229  0.00  0.00     0.215 C 
BRANCH   8   9
HETATM    9  O   UNK N   1      21.640  18.916   3.744  0.00  0.00    -0.294 OA
BRANCH   9  10
HETATM   10  P   UNK N   1      21.256  20.163   2.594  0.00  0.00     0.390 P 
HETATM   11  O   UNK N   1      20.423  20.604   3.828  0.00  0.00    -0.632 OA
BRANCH  10  12
HETATM   12  O   UNK N   1      21.778  21.800   2.844  0.00  0.00    -0.307 OA
HETATM   13  H   UNK N   1      22.218  22.274   3.565  0.00  0.00     0.222 HD
ENDBRANCH  10  12
BRANCH  10  14
HETATM   14  O   UNK N   1      22.946  20.217   2.988  0.00  0.00    -0.307 OA
HETATM   15  H   UNK N   1      23.558  20.950   3.162  0.00  0.00     0.222 HD
ENDBRANCH  10  14
ENDBRANCH   9  10
ENDBRANCH   8   9
ENDBRANCH   7   8
BRANCH   7  16
HETATM   16  O   UNK N   1      18.862  16.969   3.800  0.00  0.00    -0.391 OA
HETATM   17  H   UNK N   1      18.142  17.399   4.286  0.00  0.00     0.210 HD
ENDBRANCH   7  16
ENDBRANCH   4   7
BRANCH   2  18
HETATM   18  O   UNK N   1      18.995  15.708   6.348  0.00  0.00    -0.390 OA
HETATM   19  H   UNK N   1      18.777  16.537   6.803  0.00  0.00     0.210 HD
ENDBRANCH   2  18
BRANCH   1  20
HETATM   20  O   UNK N   1      20.303  14.004   8.005  0.00  0.00    -0.390 OA
HETATM   21  H   UNK N   1      20.751  13.945   8.863  0.00  0.00     0.210 HD
ENDBRANCH   1  20
BRANCH   5  22
HETATM   22  O   UNK N   1      23.095  17.356   5.984  0.00  0.00    -0.369 OA
HETATM   23  H   UNK N   1      23.818  17.964   6.199  0.00  0.00     0.212 HD
ENDBRANCH   5  22
BRANCH   3  24
HETATM   24  O   UNK N   1      21.066  16.752   7.617  0.00  0.00    -0.388 OA
HETATM   25  H   UNK N   1      20.284  17.325   7.657  0.00  0.00     0.210 HD
ENDBRANCH   3  24
TORSDOF 11
ENDMDL
MODEL 6
REMARK VINA RESULT:      -5.3      2.181      2.972
REMARK  11 active torsions:
REMARK  status: ('A' for Active; 'I' for Inactive)
REMARK    1  A    between atoms: C_2  and  C_1 
REMARK    2  A    between atoms: O_16  and  C_1 
REMARK    3  A    between atoms: C_6  and  C_2 
REMARK    4  A    between atoms: C_2  and  O_8 
REMARK    5  A    between atoms: C_3  and  O_9 
REMARK    6  A    between atoms: C_4  and  O_10 
REMARK    7  A    between atoms: C_5  and  O_11 
REMARK    8  A    between atoms: C_7  and  O_12 
REMARK    9  A    between atoms: P_18  and  O_13 
REMARK   10  A    between atoms: P_18  and  O_14 
REMARK   11  A    between atoms: P_18  and  O_16 
ROOT
HETATM    1  C   UNK N   1      34.200  16.064   9.280  0.00  0.00     0.183 C 
HETATM    2  C   UNK N   1      35.271  15.607  10.283  0.00  0.00     0.181 C 
HETATM    3  C   UNK N   1      33.011  15.114   9.389  0.00  0.00     0.204 C 
HETATM    4  C   UNK N   1      35.547  14.068  10.169  0.00  0.00     0.186 C 
HETATM    5  C   UNK N   1      33.484  13.718   8.933  0.00  0.00     0.288 C 
HETATM    6  O   UNK N   1      34.865  13.423   9.096  0.00  0.00    -0.348 OA
ENDROOT
BRANCH   4   7
HETATM    7  C   UNK N   1      35.386  13.254  11.475  0.00  0.00     0.174 C 
BRANCH   7   8
HETATM    8  C   UNK N   1      36.522  13.525  12.462  0.00  0.00     0.215 C 
BRANCH   8   9
HETATM    9  O   UNK N   1      36.088  14.273  13.564  0.00  0.00    -0.294 OA
BRANCH   9  10
HETATM   10  P   UNK N   1      36.558  13.333  14.950  0.00  0.00     0.390 P 
HETATM   11  O   UNK N   1      37.106  14.738  15.321  0.00  0.00    -0.632 OA
BRANCH  10  12
HETATM   12  O   UNK N   1      35.848  13.624  16.508  0.00  0.00    -0.307 OA
HETATM   13  H   UNK N   1      35.419  14.382  16.933  0.00  0.00     0.222 HD
ENDBRANCH  10  12
BRANCH  10  14
HETATM   14  O   UNK N   1      34.827  13.401  14.836  0.00  0.00    -0.307 OA
HETATM   15  H   UNK N   1      34.160  13.963  15.262  0.00  0.00     0.222 HD
ENDBRANCH  10  14
ENDBRANCH   9  10
ENDBRANCH   8   9
ENDBRANCH   7   8
BRANCH   7  16
HETATM   16  O   UNK N   1      34.164  13.556  12.087  0.00  0.00    -0.391 OA
HETATM   17  H   UNK N   1      34.135  13.788  13.027  0.00  0.00     0.210 HD
ENDBRANCH   7  16
ENDBRANCH   4   7
BRANCH   2  18
HETATM   18  O   UNK N   1      34.872  15.942  11.586  0.00  0.00    -0.390 OA
HETATM   19  H   UNK N   1      34.677  15.634  12.485  0.00  0.00     0.210 HD
ENDBRANCH   2  18
BRANCH   1  20
HETATM   20  O   UNK N   1      33.815  17.380   9.542  0.00  0.00    -0.390 OA
HETATM   21  H   UNK N   1      33.859  18.054   8.845  0.00  0.00     0.210 HD
ENDBRANCH   1  20
BRANCH   5  22
HETATM   22  O   UNK N   1      32.690  12.706   9.483  0.00  0.00    -0.369 OA
HETATM   23  H   UNK N   1      32.078  12.481  10.201  0.00  0.00     0.212 HD
ENDBRANCH   5  22
BRANCH   3  24
HETATM   24  O   UNK N   1      32.533  15.079  10.704  0.00  0.00    -0.388 OA
HETATM   25  H   UNK N   1      31.922  15.230  11.442  0.00  0.00     0.210 HD
ENDBRANCH   3  24
TORSDOF 11
ENDMDL
MODEL 7
REMARK VINA RESULT:      -5.2      2.322      5.530
REMARK  11 active torsions:
REMARK  status: ('A' for Active; 'I' for Inactive)
REMARK    1  A    between atoms: C_2  and  C_1 
REMARK    2  A    between atoms: O_16  and  C_1 
REMARK    3  A    between atoms: C_6  and  C_2 
REMARK    4  A    between atoms: C_2  and  O_8 
REMARK    5  A    between atoms: C_3  and  O_9 
REMARK    6  A    between atoms: C_4  and  O_10 
REMARK    7  A    between atoms: C_5  and  O_11 
REMARK    8  A    between atoms: C_7  and  O_12 
REMARK    9  A    between atoms: P_18  and  O_13 
REMARK   10  A    between atoms: P_18  and  O_14 
REMARK   11  A    between atoms: P_18  and  O_16 
ROOT
HETATM    1  C   UNK N   1      34.961  12.398  10.451  0.00  0.00     0.183 C 
HETATM    2  C   UNK N   1      34.779  13.717   9.683  0.00  0.00     0.181 C 
HETATM    3  C   UNK N   1      35.324  12.735  11.894  0.00  0.00     0.204 C 
HETATM    4  C   UNK N   1      35.978  14.697   9.929  0.00  0.00     0.186 C 
HETATM    5  C   UNK N   1      36.698  13.437  11.879  0.00  0.00     0.288 C 
HETATM    6  O   UNK N   1      37.045  14.143  10.695  0.00  0.00    -0.348 OA
ENDROOT
BRANCH   4   7
HETATM    7  C   UNK N   1      35.605  16.100  10.463  0.00  0.00     0.174 C 
BRANCH   7   8
HETATM    8  C   UNK N   1      35.122  17.027   9.346  0.00  0.00     0.215 C 
BRANCH   8   9
HETATM    9  O   UNK N   1      33.728  17.160   9.345  0.00  0.00    -0.294 OA
BRANCH   9  10
HETATM   10  P   UNK N   1      33.360  17.964   7.847  0.00  0.00     0.390 P 
HETATM   11  O   UNK N   1      34.635  18.722   8.308  0.00  0.00    -0.632 OA
BRANCH  10  12
HETATM   12  O   UNK N   1      34.411  17.818   6.473  0.00  0.00    -0.307 OA
HETATM   13  H   UNK N   1      34.391  17.309   5.648  0.00  0.00     0.222 HD
ENDBRANCH  10  12
BRANCH  10  14
HETATM   14  O   UNK N   1      33.754  16.300   7.548  0.00  0.00    -0.307 OA
HETATM   15  H   UNK N   1      33.726  15.750   6.749  0.00  0.00     0.222 HD
ENDBRANCH  10  14
ENDBRANCH   9  10
ENDBRANCH   8   9
ENDBRANCH   7   8
BRANCH   7  16
HETATM   16  O   UNK N   1      34.607  15.999  11.438  0.00  0.00    -0.391 OA
HETATM   17  H   UNK N   1      33.871  16.630  11.450  0.00  0.00     0.210 HD
ENDBRANCH   7  16
ENDBRANCH   4   7
BRANCH   2  18
HETATM   18  O   UNK N   1      33.566  14.316  10.055  0.00  0.00    -0.390 OA
HETATM   19  H   UNK N   1      32.861  14.942   9.825  0.00  0.00     0.210 HD
ENDBRANCH   2  18
BRANCH   1  20
HETATM   20  O   UNK N   1      33.794  11.634  10.394  0.00  0.00    -0.390 OA
HETATM   21  H   UNK N   1      33.037  11.847  10.961  0.00  0.00     0.210 HD
ENDBRANCH   1  20
BRANCH   5  22
HETATM   22  O   UNK N   1      36.871  14.243  13.009  0.00  0.00    -0.369 OA
HETATM   23  H   UNK N   1      37.258  14.291  13.897  0.00  0.00     0.212 HD
ENDBRANCH   5  22
BRANCH   3  24
HETATM   24  O   UNK N   1      34.345  13.557  12.464  0.00  0.00    -0.388 OA
HETATM   25  H   UNK N   1      33.474  13.810  12.809  0.00  0.00     0.210 HD
ENDBRANCH   3  24
TORSDOF 11
ENDMDL
MODEL 8
REMARK VINA RESULT:      -5.2      3.211      5.950
REMARK  11 active torsions:
REMARK  status: ('A' for Active; 'I' for Inactive)
REMARK    1  A    between atoms: C_2  and  C_1 
REMARK    2  A    between atoms: O_16  and  C_1 
REMARK    3  A    between atoms: C_6  and  C_2 
REMARK    4  A    between atoms: C_2  and  O_8 
REMARK    5  A    between atoms: C_3  and  O_9 
REMARK    6  A    between atoms: C_4  and  O_10 
REMARK    7  A    between atoms: C_5  and  O_11 
REMARK    8  A    between atoms: C_7  and  O_12 
REMARK    9  A    between atoms: P_18  and  O_13 
REMARK   10  A    between atoms: P_18  and  O_14 
REMARK   11  A    between atoms: P_18  and  O_16 
ROOT
HETATM    1  C   UNK N   1      33.514  15.074   9.592  0.00  0.00     0.183 C 
HETATM    2  C   UNK N   1      32.132  15.232   8.940  0.00  0.00     0.181 C 
HETATM    3  C   UNK N   1      34.371  16.269   9.185  0.00  0.00     0.204 C 
HETATM    4  C   UNK N   1      32.250  15.563   7.412  0.00  0.00     0.186 C 
HETATM    5  C   UNK N   1      34.586  16.191   7.658  0.00  0.00     0.288 C 
HETATM    6  O   UNK N   1      33.581  15.528   6.902  0.00  0.00    -0.348 OA
ENDROOT
BRANCH   4   7
HETATM    7  C   UNK N   1      31.528  16.848   6.941  0.00  0.00     0.174 C 
BRANCH   7   8
HETATM    8  C   UNK N   1      30.013  16.653   6.856  0.00  0.00     0.215 C 
BRANCH   8   9
HETATM    9  O   UNK N   1      29.318  17.824   7.184  0.00  0.00    -0.294 OA
BRANCH   9  10
HETATM   10  P   UNK N   1      28.199  17.341   8.426  0.00  0.00     0.390 P 
HETATM   11  O   UNK N   1      29.273  18.106   9.248  0.00  0.00    -0.632 OA
BRANCH  10  12
HETATM   12  O   UNK N   1      27.258  18.519   9.287  0.00  0.00    -0.307 OA
HETATM   13  H   UNK N   1      26.391  18.931   9.152  0.00  0.00     0.222 HD
ENDBRANCH  10  12
BRANCH  10  14
HETATM   14  O   UNK N   1      27.427  18.438   7.324  0.00  0.00    -0.307 OA
HETATM   15  H   UNK N   1      26.756  18.315   6.634  0.00  0.00     0.222 HD
ENDBRANCH  10  14
ENDBRANCH   9  10
ENDBRANCH   8   9
ENDBRANCH   7   8
BRANCH   7  16
HETATM   16  O   UNK N   1      31.806  17.908   7.812  0.00  0.00    -0.391 OA
HETATM   17  H   UNK N   1      31.090  18.483   8.122  0.00  0.00     0.210 HD
ENDBRANCH   7  16
ENDBRANCH   4   7
BRANCH   2  18
HETATM   18  O   UNK N   1      31.406  16.230   9.608  0.00  0.00    -0.390 OA
HETATM   19  H   UNK N   1      30.981  17.102   9.559  0.00  0.00     0.210 HD
ENDBRANCH   2  18
BRANCH   1  20
HETATM   20  O   UNK N   1      33.393  14.996  10.981  0.00  0.00    -0.390 OA
HETATM   21  H   UNK N   1      32.526  15.087  11.407  0.00  0.00     0.210 HD
ENDBRANCH   1  20
BRANCH   5  22
HETATM   22  O   UNK N   1      34.866  17.451   7.119  0.00  0.00    -0.369 OA
HETATM   23  H   UNK N   1      34.555  18.140   6.511  0.00  0.00     0.212 HD
ENDBRANCH   5  22
BRANCH   3  24
HETATM   24  O   UNK N   1      33.743  17.466   9.544  0.00  0.00    -0.388 OA
HETATM   25  H   UNK N   1      33.328  18.124  10.124  0.00  0.00     0.210 HD
ENDBRANCH   3  24
TORSDOF 11
ENDMDL
MODEL 9
REMARK VINA RESULT:      -5.1      2.586      5.474
REMARK  11 active torsions:
REMARK  status: ('A' for Active; 'I' for Inactive)
REMARK    1  A    between atoms: C_2  and  C_1 
REMARK    2  A    between atoms: O_16  and  C_1 
REMARK    3  A    between atoms: C_6  and  C_2 
REMARK    4  A    between atoms: C_2  and  O_8 
REMARK    5  A    between atoms: C_3  and  O_9 
REMARK    6  A    between atoms: C_4  and  O_10 
REMARK    7  A    between atoms: C_5  and  O_11 
REMARK    8  A    between atoms: C_7  and  O_12 
REMARK    9  A    between atoms: P_18  and  O_13 
REMARK   10  A    between atoms: P_18  and  O_14 
REMARK   11  A    between atoms: P_18  and  O_16 
ROOT
HETATM    1  C   UNK N   1      36.145  13.861  11.620  0.00  0.00     0.183 C 
HETATM    2  C   UNK N   1      35.969  15.382  11.488  0.00  0.00     0.181 C 
HETATM    3  C   UNK N   1      35.990  13.242  10.235  0.00  0.00     0.204 C 
HETATM    4  C   UNK N   1      34.687  15.744  10.662  0.00  0.00     0.186 C 
HETATM    5  C   UNK N   1      34.537  13.485   9.774  0.00  0.00     0.288 C 
HETATM    6  O   UNK N   1      33.876  14.624  10.310  0.00  0.00    -0.348 OA
ENDROOT
BRANCH   4   7
HETATM    7  C   UNK N   1      34.910  16.653   9.431  0.00  0.00     0.174 C 
BRANCH   7   8
HETATM    8  C   UNK N   1      33.625  16.848   8.624  0.00  0.00     0.215 C 
BRANCH   8   9
HETATM    9  O   UNK N   1      33.689  16.208   7.380  0.00  0.00    -0.294 OA
BRANCH   9  10
HETATM   10  P   UNK N   1      32.842  17.267   6.292  0.00  0.00     0.390 P 
HETATM   11  O   UNK N   1      34.281  17.849   6.242  0.00  0.00    -0.632 OA
BRANCH  10  12
HETATM   12  O   UNK N   1      33.196  17.271   4.592  0.00  0.00    -0.307 OA
HETATM   13  H   UNK N   1      32.664  17.319   3.783  0.00  0.00     0.222 HD
ENDBRANCH  10  12
BRANCH  10  14
HETATM   14  O   UNK N   1      32.851  15.650   5.661  0.00  0.00    -0.307 OA
HETATM   15  H   UNK N   1      33.244  15.255   4.866  0.00  0.00     0.222 HD
ENDBRANCH  10  14
ENDBRANCH   9  10
ENDBRANCH   8   9
ENDBRANCH   7   8
BRANCH   7  16
HETATM   16  O   UNK N   1      35.393  17.904   9.833  0.00  0.00    -0.391 OA
HETATM   17  H   UNK N   1      34.775  18.611  10.072  0.00  0.00     0.210 HD
ENDBRANCH   7  16
ENDBRANCH   4   7
BRANCH   2  18
HETATM   18  O   UNK N   1      37.112  15.940  10.895  0.00  0.00    -0.390 OA
HETATM   19  H   UNK N   1      37.879  15.806  10.315  0.00  0.00     0.210 HD
ENDBRANCH   2  18
BRANCH   1  20
HETATM   20  O   UNK N   1      37.395  13.559  12.166  0.00  0.00    -0.390 OA
HETATM   21  H   UNK N   1      37.582  12.669  12.504  0.00  0.00     0.210 HD
ENDBRANCH   1  20
BRANCH   5  22
HETATM   22  O   UNK N   1      34.434  13.459   8.379  0.00  0.00    -0.369 OA
HETATM   23  H   UNK N   1      34.928  13.515   7.547  0.00  0.00     0.212 HD
ENDBRANCH   5  22
BRANCH   3  24
HETATM   24  O   UNK N   1      36.903  13.811   9.341  0.00  0.00    -0.388 OA
HETATM   25  H   UNK N   1      37.283  14.064   8.485  0.00  0.00     0.210 HD
ENDBRANCH   3  24
TORSDOF 11
ENDMDL
