MODEL 1
REMARK VINA RESULT:      -4.9      0.000      0.000
REMARK  5 active torsions:
REMARK  status: ('A' for Active; 'I' for Inactive)
REMARK    1  A    between atoms: O_1  and  N_2 
REMARK    2  A    between atoms: N_2  and  C_3 
REMARK       I    between atoms: N_2  and  C_7 
REMARK    3  A    between atoms: C_3  and  C_4 
REMARK    4  A    between atoms: C_4  and  O_5 
REMARK    5  A    between atoms: C_7  and  O_8 
ROOT
HETATM    1  N   UNK N   1      20.672  20.465   2.243  0.00  0.00    -0.195 N 
HETATM    2  C   UNK N   1      20.699  20.986   0.989  0.00  0.00     0.277 C 
HETATM    3  O   UNK N   1      20.817  20.255   0.016  0.00  0.00    -0.630 OA
ENDROOT
BRANCH   1   4
HETATM    4  O   UNK N   1      20.543  21.286   3.296  0.00  0.00    -0.282 OA
HETATM    5  H   UNK N   1      20.040  22.112   3.208  0.00  0.00     0.245 HD
ENDBRANCH   1   4
BRANCH   1   6
HETATM    6  C   UNK N   1      20.786  19.022   2.413  0.00  0.00     0.272 C 
BRANCH   6   7
HETATM    7  C   UNK N   1      19.555  18.271   2.846  0.00  0.00     0.160 C 
HETATM    8  O   UNK N   1      19.612  17.309   3.594  0.00  0.00    -0.649 OA
BRANCH   7   9
HETATM    9  O   UNK N   1      18.358  18.682   2.388  0.00  0.00    -0.775 OA
HETATM   10  H   UNK N   1      18.307  19.396   1.784  0.00  0.00     0.167 HD
ENDBRANCH   7   9
ENDBRANCH   6   7
ENDBRANCH   1   6
BRANCH   2  11
HETATM   11  O   UNK N   1      20.597  22.317   0.805  0.00  0.00    -0.758 OA
HETATM   12  H   UNK N   1      20.325  22.868   1.512  0.00  0.00     0.169 HD
ENDBRANCH   2  11
TORSDOF 5
ENDMDL
MODEL 2
REMARK VINA RESULT:      -4.7      1.777      2.491
REMARK  5 active torsions:
REMARK  status: ('A' for Active; 'I' for Inactive)
REMARK    1  A    between atoms: O_1  and  N_2 
REMARK    2  A    between atoms: N_2  and  C_3 
REMARK       I    between atoms: N_2  and  C_7 
REMARK    3  A    between atoms: C_3  and  C_4 
REMARK    4  A    between atoms: C_4  and  O_5 
REMARK    5  A    between atoms: C_7  and  O_8 
ROOT
HETATM    1  N   UNK N   1      20.546  19.753   1.808  0.00  0.00    -0.195 N 
HETATM    2  C   UNK N   1      20.873  20.572   2.842  0.00  0.00     0.277 C 
HETATM    3  O   UNK N   1      20.619  20.248   3.993  0.00  0.00    -0.630 OA
ENDROOT
BRANCH   1   4
HETATM    4  O   UNK N   1      20.835  20.129   0.552  0.00  0.00    -0.282 OA
HETATM    5  H   UNK N   1      20.247  20.742   0.082  0.00  0.00     0.245 HD
ENDBRANCH   1   4
BRANCH   1   6
HETATM    6  C   UNK N   1      19.888  18.485   2.090  0.00  0.00     0.272 C 
BRANCH   6   7
HETATM    7  C   UNK N   1      20.185  17.325   1.178  0.00  0.00     0.160 C 
HETATM    8  O   UNK N   1      20.364  16.195   1.602  0.00  0.00    -0.649 OA
BRANCH   7   9
HETATM    9  O   UNK N   1      20.253  17.553  -0.147  0.00  0.00    -0.775 OA
HETATM   10  H   UNK N   1      20.060  18.404  -0.487  0.00  0.00     0.167 HD
ENDBRANCH   7   9
ENDBRANCH   6   7
ENDBRANCH   1   6
BRANCH   2  11
HETATM   11  O   UNK N   1      21.483  21.750   2.607  0.00  0.00    -0.758 OA
HETATM   12  H   UNK N   1      22.120  22.077   3.212  0.00  0.00     0.169 HD
ENDBRANCH   2  11
TORSDOF 5
ENDMDL
MODEL 3
REMARK VINA RESULT:      -4.7     15.408     16.013
REMARK  5 active torsions:
REMARK  status: ('A' for Active; 'I' for Inactive)
REMARK    1  A    between atoms: O_1  and  N_2 
REMARK    2  A    between atoms: N_2  and  C_3 
REMARK       I    between atoms: N_2  and  C_7 
REMARK    3  A    between atoms: C_3  and  C_4 
REMARK    4  A    between atoms: C_4  and  O_5 
REMARK    5  A    between atoms: C_7  and  O_8 
ROOT
HETATM    1  N   UNK N   1      34.357  17.255   9.183  0.00  0.00    -0.195 N 
HETATM    2  C   UNK N   1      34.591  18.232   8.270  0.00  0.00     0.277 C 
HETATM    3  O   UNK N   1      34.092  18.171   7.156  0.00  0.00    -0.630 OA
ENDROOT
BRANCH   1   4
HETATM    4  O   UNK N   1      34.916  17.343  10.400  0.00  0.00    -0.282 OA
HETATM    5  H   UNK N   1      35.485  16.627  10.726  0.00  0.00     0.245 HD
ENDBRANCH   1   4
BRANCH   1   6
HETATM    6  C   UNK N   1      33.503  16.132   8.817  0.00  0.00     0.272 C 
BRANCH   6   7
HETATM    7  C   UNK N   1      33.502  14.930   9.723  0.00  0.00     0.160 C 
HETATM    8  O   UNK N   1      33.870  13.831   9.344  0.00  0.00    -0.649 OA
BRANCH   7   9
HETATM    9  O   UNK N   1      33.079  15.084  10.992  0.00  0.00    -0.775 OA
HETATM   10  H   UNK N   1      33.271  15.873  11.458  0.00  0.00     0.167 HD
ENDBRANCH   7   9
ENDBRANCH   6   7
ENDBRANCH   1   6
BRANCH   2  11
HETATM   11  O   UNK N   1      35.377  19.281   8.583  0.00  0.00    -0.758 OA
HETATM   12  H   UNK N   1      36.271  19.140   8.827  0.00  0.00     0.169 HD
ENDBRANCH   2  11
TORSDOF 5
ENDMDL
MODEL 4
REMARK VINA RESULT:      -4.6     17.953     18.708
REMARK  5 active torsions:
REMARK  status: ('A' for Active; 'I' for Inactive)
REMARK    1  A    between atoms: O_1  and  N_2 
REMARK    2  A    between atoms: N_2  and  C_3 
REMARK       I    between atoms: N_2  and  C_7 
REMARK    3  A    between atoms: C_3  and  C_4 
REMARK    4  A    between atoms: C_4  and  O_5 
REMARK    5  A    between atoms: C_7  and  O_8 
ROOT
HETATM    1  N   UNK N   1      34.649  15.116  11.229  0.00  0.00    -0.195 N 
HETATM    2  C   UNK N   1      35.297  16.216  10.764  0.00  0.00     0.277 C 
HETATM    3  O   UNK N   1      36.514  16.294  10.835  0.00  0.00    -0.630 OA
ENDROOT
BRANCH   1   4
HETATM    4  O   UNK N   1      33.312  15.052  11.140  0.00  0.00    -0.282 OA
HETATM    5  H   UNK N   1      32.782  14.845  11.927  0.00  0.00     0.245 HD
ENDBRANCH   1   4
BRANCH   1   6
HETATM    6  C   UNK N   1      35.426  14.031  11.813  0.00  0.00     0.272 C 
BRANCH   6   7
HETATM    7  C   UNK N   1      35.723  14.099  13.287  0.00  0.00     0.160 C 
HETATM    8  O   UNK N   1      35.033  13.529  14.115  0.00  0.00    -0.649 OA
BRANCH   7   9
HETATM    9  O   UNK N   1      36.787  14.815  13.694  0.00  0.00    -0.775 OA
HETATM   10  H   UNK N   1      37.312  14.511  14.409  0.00  0.00     0.167 HD
ENDBRANCH   7   9
ENDBRANCH   6   7
ENDBRANCH   1   6
BRANCH   2  11
HETATM   11  O   UNK N   1      34.601  17.233  10.219  0.00  0.00    -0.758 OA
HETATM   12  H   UNK N   1      33.666  17.195  10.182  0.00  0.00     0.169 HD
ENDBRANCH   2  11
TORSDOF 5
ENDMDL
MODEL 5
REMARK VINA RESULT:      -4.4     16.062     17.020
REMARK  5 active torsions:
REMARK  status: ('A' for Active; 'I' for Inactive)
REMARK    1  A    between atoms: O_1  and  N_2 
REMARK    2  A    between atoms: N_2  and  C_3 
REMARK       I    between atoms: N_2  and  C_7 
REMARK    3  A    between atoms: C_3  and  C_4 
REMARK    4  A    between atoms: C_4  and  O_5 
REMARK    5  A    between atoms: C_7  and  O_8 
ROOT
HETATM    1  N   UNK N   1      34.864  16.721  10.092  0.00  0.00    -0.195 N 
HETATM    2  C   UNK N   1      34.541  15.552  10.703  0.00  0.00     0.277 C 
HETATM    3  O   UNK N   1      33.563  14.913  10.342  0.00  0.00    -0.630 OA
ENDROOT
BRANCH   1   4
HETATM    4  O   UNK N   1      35.942  17.406  10.505  0.00  0.00    -0.282 OA
HETATM    5  H   UNK N   1      36.832  17.099  10.269  0.00  0.00     0.245 HD
ENDBRANCH   1   4
BRANCH   1   6
HETATM    6  C   UNK N   1      34.028  17.204   9.000  0.00  0.00     0.272 C 
BRANCH   6   7
HETATM    7  C   UNK N   1      34.608  18.250   8.086  0.00  0.00     0.160 C 
HETATM    8  O   UNK N   1      35.242  19.202   8.509  0.00  0.00    -0.649 OA
BRANCH   7   9
HETATM    9  O   UNK N   1      34.415  18.120   6.760  0.00  0.00    -0.775 OA
HETATM   10  H   UNK N   1      34.318  18.882   6.223  0.00  0.00     0.167 HD
ENDBRANCH   7   9
ENDBRANCH   6   7
ENDBRANCH   1   6
BRANCH   2  11
HETATM   11  O   UNK N   1      35.298  15.084  11.715  0.00  0.00    -0.758 OA
HETATM   12  H   UNK N   1      35.750  15.681  12.278  0.00  0.00     0.169 HD
ENDBRANCH   2  11
TORSDOF 5
ENDMDL
MODEL 6
REMARK VINA RESULT:      -4.2      1.692      3.814
REMARK  5 active torsions:
REMARK  status: ('A' for Active; 'I' for Inactive)
REMARK    1  A    between atoms: O_1  and  N_2 
REMARK    2  A    between atoms: N_2  and  C_3 
REMARK       I    between atoms: N_2  and  C_7 
REMARK    3  A    between atoms: C_3  and  C_4 
REMARK    4  A    between atoms: C_4  and  O_5 
REMARK    5  A    between atoms: C_7  and  O_8 
ROOT
HETATM    1  N   UNK N   1      20.611  18.864   1.746  0.00  0.00    -0.195 N 
HETATM    2  C   UNK N   1      19.858  17.745   1.911  0.00  0.00     0.277 C 
HETATM    3  O   UNK N   1      19.900  17.118   2.959  0.00  0.00    -0.630 OA
ENDROOT
BRANCH   1   4
HETATM    4  O   UNK N   1      20.548  19.536   0.587  0.00  0.00    -0.282 OA
HETATM    5  H   UNK N   1      20.225  19.094  -0.214  0.00  0.00     0.245 HD
ENDBRANCH   1   4
BRANCH   1   6
HETATM    6  C   UNK N   1      21.470  19.306   2.837  0.00  0.00     0.272 C 
BRANCH   6   7
HETATM    7  C   UNK N   1      22.180  20.624   2.678  0.00  0.00     0.160 C 
HETATM    8  O   UNK N   1      23.395  20.702   2.616  0.00  0.00    -0.649 OA
BRANCH   7   9
HETATM    9  O   UNK N   1      21.440  21.745   2.601  0.00  0.00    -0.775 OA
HETATM   10  H   UNK N   1      21.640  22.396   1.958  0.00  0.00     0.167 HD
ENDBRANCH   7   9
ENDBRANCH   6   7
ENDBRANCH   1   6
BRANCH   2  11
HETATM   11  O   UNK N   1      19.055  17.316   0.918  0.00  0.00    -0.758 OA
HETATM   12  H   UNK N   1      19.427  16.949   0.139  0.00  0.00     0.169 HD
ENDBRANCH   2  11
TORSDOF 5
ENDMDL
MODEL 7
REMARK VINA RESULT:      -4.2     15.921     16.551
REMARK  5 active torsions:
REMARK  status: ('A' for Active; 'I' for Inactive)
REMARK    1  A    between atoms: O_1  and  N_2 
REMARK    2  A    between atoms: N_2  and  C_3 
REMARK       I    between atoms: N_2  and  C_7 
REMARK    3  A    between atoms: C_3  and  C_4 
REMARK    4  A    between atoms: C_4  and  O_5 
REMARK    5  A    between atoms: C_7  and  O_8 
ROOT
HETATM    1  N   UNK N   1      34.486  16.929   8.781  0.00  0.00    -0.195 N 
HETATM    2  C   UNK N   1      34.673  18.070   8.068  0.00  0.00     0.277 C 
HETATM    3  O   UNK N   1      35.223  19.036   8.575  0.00  0.00    -0.630 OA
ENDROOT
BRANCH   1   4
HETATM    4  O   UNK N   1      33.879  15.882   8.203  0.00  0.00    -0.282 OA
HETATM    5  H   UNK N   1      34.281  15.452   7.431  0.00  0.00     0.245 HD
ENDBRANCH   1   4
BRANCH   1   6
HETATM    6  C   UNK N   1      34.952  16.873  10.161  0.00  0.00     0.272 C 
BRANCH   6   7
HETATM    7  C   UNK N   1      34.770  15.579  10.908  0.00  0.00     0.160 C 
HETATM    8  O   UNK N   1      35.716  14.929  11.318  0.00  0.00    -0.649 OA
BRANCH   7   9
HETATM    9  O   UNK N   1      33.518  15.135  11.124  0.00  0.00    -0.775 OA
HETATM   10  H   UNK N   1      32.932  15.627  11.664  0.00  0.00     0.167 HD
ENDBRANCH   7   9
ENDBRANCH   6   7
ENDBRANCH   1   6
BRANCH   2  11
HETATM   11  O   UNK N   1      34.251  18.148   6.790  0.00  0.00    -0.758 OA
HETATM   12  H   UNK N   1      33.668  17.498   6.448  0.00  0.00     0.169 HD
ENDBRANCH   2  11
TORSDOF 5
ENDMDL
MODEL 8
REMARK VINA RESULT:      -4.2     22.747     23.408
REMARK  5 active torsions:
REMARK  status: ('A' for Active; 'I' for Inactive)
REMARK    1  A    between atoms: O_1  and  N_2 
REMARK    2  A    between atoms: N_2  and  C_3 
REMARK       I    between atoms: N_2  and  C_7 
REMARK    3  A    between atoms: C_3  and  C_4 
REMARK    4  A    between atoms: C_4  and  O_5 
REMARK    5  A    between atoms: C_7  and  O_8 
ROOT
HETATM    1  N   UNK N   1      43.585  22.546   3.567  0.00  0.00    -0.195 N 
HETATM    2  C   UNK N   1      44.718  21.822   3.761  0.00  0.00     0.277 C 
HETATM    3  O   UNK N   1      44.765  20.645   3.437  0.00  0.00    -0.630 OA
ENDROOT
BRANCH   1   4
HETATM    4  O   UNK N   1      43.556  23.837   3.930  0.00  0.00    -0.282 OA
HETATM    5  H   UNK N   1      43.456  24.529   3.257  0.00  0.00     0.245 HD
ENDBRANCH   1   4
BRANCH   1   6
HETATM    6  C   UNK N   1      42.425  21.898   2.967  0.00  0.00     0.272 C 
BRANCH   6   7
HETATM    7  C   UNK N   1      41.672  22.656   1.907  0.00  0.00     0.160 C 
HETATM    8  O   UNK N   1      41.384  22.155   0.833  0.00  0.00    -0.649 OA
BRANCH   7   9
HETATM    9  O   UNK N   1      41.310  23.927   2.162  0.00  0.00    -0.775 OA
HETATM   10  H   UNK N   1      40.423  24.198   2.028  0.00  0.00     0.167 HD
ENDBRANCH   7   9
ENDBRANCH   6   7
ENDBRANCH   1   6
BRANCH   2  11
HETATM   11  O   UNK N   1      45.804  22.398   4.314  0.00  0.00    -0.758 OA
HETATM   12  H   UNK N   1      46.637  21.972   4.263  0.00  0.00     0.169 HD
ENDBRANCH   2  11
TORSDOF 5
ENDMDL
MODEL 9
REMARK VINA RESULT:      -4.1      2.149      3.700
REMARK  5 active torsions:
REMARK  status: ('A' for Active; 'I' for Inactive)
REMARK    1  A    between atoms: O_1  and  N_2 
REMARK    2  A    between atoms: N_2  and  C_3 
REMARK       I    between atoms: N_2  and  C_7 
REMARK    3  A    between atoms: C_3  and  C_4 
REMARK    4  A    between atoms: C_4  and  O_5 
REMARK    5  A    between atoms: C_7  and  O_8 
ROOT
HETATM    1  N   UNK N   1      22.224  20.286   2.892  0.00  0.00    -0.195 N 
HETATM    2  C   UNK N   1      22.690  19.199   3.560  0.00  0.00     0.277 C 
HETATM    3  O   UNK N   1      22.025  18.175   3.619  0.00  0.00    -0.630 OA
ENDROOT
BRANCH   1   4
HETATM    4  O   UNK N   1      22.972  21.399   2.841  0.00  0.00    -0.282 OA
HETATM    5  H   UNK N   1      23.843  21.380   2.414  0.00  0.00     0.245 HD
ENDBRANCH   1   4
BRANCH   1   6
HETATM    6  C   UNK N   1      20.920  20.215   2.247  0.00  0.00     0.272 C 
BRANCH   6   7
HETATM    7  C   UNK N   1      20.888  20.141   0.743  0.00  0.00     0.160 C 
HETATM    8  O   UNK N   1      21.241  21.073   0.041  0.00  0.00    -0.649 OA
BRANCH   7   9
HETATM    9  O   UNK N   1      20.453  19.006   0.166  0.00  0.00    -0.775 OA
HETATM   10  H   UNK N   1      20.434  18.208   0.657  0.00  0.00     0.167 HD
ENDBRANCH   7   9
ENDBRANCH   6   7
ENDBRANCH   1   6
BRANCH   2  11
HETATM   11  O   UNK N   1      23.893  19.239   4.166  0.00  0.00    -0.758 OA
HETATM   12  H   UNK N   1      24.151  20.000   4.648  0.00  0.00     0.169 HD
ENDBRANCH   2  11
TORSDOF 5
ENDMDL
