MODEL 1
REMARK VINA RESULT:      -5.6      0.000      0.000
REMARK  5 active torsions:
REMARK  status: ('A' for Active; 'I' for Inactive)
REMARK    1  A    between atoms: C_2  and  O_7 
REMARK    2  A    between atoms: C_5  and  C_3 
REMARK    3  A    between atoms: C_4  and  O_8 
REMARK    4  A    between atoms: O_10  and  C_5 
REMARK    5  A    between atoms: C_6  and  O_11 
ROOT
HETATM    1  C   UNK N   1      33.400  16.341   9.029  0.00  0.00     0.051 C 
HETATM    2  C   UNK N   1      33.258  15.092   9.850  0.00  0.00     0.177 C 
HETATM    3  C   UNK N   1      34.580  16.989   8.963  0.00  0.00     0.144 C 
HETATM    4  C   UNK N   1      34.226  15.149  11.035  0.00  0.00     0.206 C 
HETATM    5  C   UNK N   1      35.647  15.449  10.529  0.00  0.00     0.295 C 
HETATM    6  O   UNK N   1      35.663  16.538   9.665  0.00  0.00    -0.311 OA
ENDROOT
BRANCH   3   7
HETATM    7  C   UNK N   1      34.725  18.185   8.111  0.00  0.00     0.200 C 
HETATM    8  O   UNK N   1      34.330  18.175   6.953  0.00  0.00    -0.645 OA
BRANCH   7   9
HETATM    9  O   UNK N   1      35.313  19.291   8.602  0.00  0.00    -0.771 OA
HETATM   10  H   UNK N   1      35.269  19.478   9.520  0.00  0.00     0.167 HD
ENDBRANCH   7   9
ENDBRANCH   3   7
BRANCH   2  11
HETATM   11  O   UNK N   1      31.945  14.977  10.309  0.00  0.00    -0.389 OA
HETATM   12  H   UNK N   1      31.625  15.031  11.223  0.00  0.00     0.210 HD
ENDBRANCH   2  11
BRANCH   5  13
HETATM   13  O   UNK N   1      36.475  15.717  11.621  0.00  0.00    -0.368 OA
HETATM   14  H   UNK N   1      37.085  16.464  11.718  0.00  0.00     0.212 HD
ENDBRANCH   5  13
BRANCH   4  15
HETATM   15  O   UNK N   1      34.205  13.944  11.742  0.00  0.00    -0.388 OA
HETATM   16  H   UNK N   1      34.984  13.616  12.219  0.00  0.00     0.210 HD
ENDBRANCH   4  15
TORSDOF 5
ENDMDL
MODEL 2
REMARK VINA RESULT:      -5.4     13.499     15.154
REMARK  5 active torsions:
REMARK  status: ('A' for Active; 'I' for Inactive)
REMARK    1  A    between atoms: C_2  and  O_7 
REMARK    2  A    between atoms: C_5  and  C_3 
REMARK    3  A    between atoms: C_4  and  O_8 
REMARK    4  A    between atoms: O_10  and  C_5 
REMARK    5  A    between atoms: C_6  and  O_11 
ROOT
HETATM    1  C   UNK N   1      22.302  19.412   3.689  0.00  0.00     0.051 C 
HETATM    2  C   UNK N   1      20.827  19.141   3.619  0.00  0.00     0.177 C 
HETATM    3  C   UNK N   1      22.897  20.211   2.783  0.00  0.00     0.144 C 
HETATM    4  C   UNK N   1      20.366  19.207   2.161  0.00  0.00     0.206 C 
HETATM    5  C   UNK N   1      20.825  20.534   1.532  0.00  0.00     0.295 C 
HETATM    6  O   UNK N   1      22.175  20.769   1.765  0.00  0.00    -0.311 OA
ENDROOT
BRANCH   3   7
HETATM    7  C   UNK N   1      24.338  20.515   2.891  0.00  0.00     0.200 C 
HETATM    8  O   UNK N   1      24.980  20.843   1.902  0.00  0.00    -0.645 OA
BRANCH   7   9
HETATM    9  O   UNK N   1      24.957  20.414   4.080  0.00  0.00    -0.771 OA
HETATM   10  H   UNK N   1      25.735  20.910   4.248  0.00  0.00     0.167 HD
ENDBRANCH   7   9
ENDBRANCH   3   7
BRANCH   2  11
HETATM   11  O   UNK N   1      20.554  17.880   4.152  0.00  0.00    -0.389 OA
HETATM   12  H   UNK N   1      20.208  17.100   3.691  0.00  0.00     0.210 HD
ENDBRANCH   2  11
BRANCH   5  13
HETATM   13  O   UNK N   1      20.597  20.491   0.155  0.00  0.00    -0.368 OA
HETATM   14  H   UNK N   1      20.944  21.104  -0.511  0.00  0.00     0.212 HD
ENDBRANCH   5  13
BRANCH   4  15
HETATM   15  O   UNK N   1      18.977  19.086   2.081  0.00  0.00    -0.388 OA
HETATM   16  H   UNK N   1      18.552  18.436   1.499  0.00  0.00     0.210 HD
ENDBRANCH   4  15
TORSDOF 5
ENDMDL
MODEL 3
REMARK VINA RESULT:      -5.3     14.183     15.920
REMARK  5 active torsions:
REMARK  status: ('A' for Active; 'I' for Inactive)
REMARK    1  A    between atoms: C_2  and  O_7 
REMARK    2  A    between atoms: C_5  and  C_3 
REMARK    3  A    between atoms: C_4  and  O_8 
REMARK    4  A    between atoms: O_10  and  C_5 
REMARK    5  A    between atoms: C_6  and  O_11 
ROOT
HETATM    1  C   UNK N   1      20.511  18.058   2.696  0.00  0.00     0.051 C 
HETATM    2  C   UNK N   1      20.176  18.803   1.436  0.00  0.00     0.177 C 
HETATM    3  C   UNK N   1      20.957  18.716   3.784  0.00  0.00     0.144 C 
HETATM    4  C   UNK N   1      21.058  20.049   1.332  0.00  0.00     0.206 C 
HETATM    5  C   UNK N   1      20.953  20.868   2.629  0.00  0.00     0.295 C 
HETATM    6  O   UNK N   1      21.141  20.070   3.753  0.00  0.00    -0.311 OA
ENDROOT
BRANCH   3   7
HETATM    7  C   UNK N   1      21.232  17.984   5.035  0.00  0.00     0.200 C 
HETATM    8  O   UNK N   1      21.426  16.775   5.019  0.00  0.00    -0.645 OA
BRANCH   7   9
HETATM    9  O   UNK N   1      21.253  18.643   6.207  0.00  0.00    -0.771 OA
HETATM   10  H   UNK N   1      20.578  19.260   6.411  0.00  0.00     0.167 HD
ENDBRANCH   7   9
ENDBRANCH   3   7
BRANCH   2  11
HETATM   11  O   UNK N   1      20.384  17.975   0.331  0.00  0.00    -0.389 OA
HETATM   12  H   UNK N   1      21.225  17.747  -0.094  0.00  0.00     0.210 HD
ENDBRANCH   2  11
BRANCH   5  13
HETATM   13  O   UNK N   1      21.920  21.875   2.615  0.00  0.00    -0.368 OA
HETATM   14  H   UNK N   1      22.167  22.433   1.861  0.00  0.00     0.212 HD
ENDBRANCH   5  13
BRANCH   4  15
HETATM   15  O   UNK N   1      20.678  20.827   0.234  0.00  0.00    -0.388 OA
HETATM   16  H   UNK N   1      20.659  21.796   0.275  0.00  0.00     0.210 HD
ENDBRANCH   4  15
TORSDOF 5
ENDMDL
MODEL 4
REMARK VINA RESULT:      -5.2      0.976      2.580
REMARK  5 active torsions:
REMARK  status: ('A' for Active; 'I' for Inactive)
REMARK    1  A    between atoms: C_2  and  O_7 
REMARK    2  A    between atoms: C_5  and  C_3 
REMARK    3  A    between atoms: C_4  and  O_8 
REMARK    4  A    between atoms: O_10  and  C_5 
REMARK    5  A    between atoms: C_6  and  O_11 
ROOT
HETATM    1  C   UNK N   1      35.391  16.952  10.212  0.00  0.00     0.051 C 
HETATM    2  C   UNK N   1      35.194  15.935  11.299  0.00  0.00     0.177 C 
HETATM    3  C   UNK N   1      34.511  17.053   9.198  0.00  0.00     0.144 C 
HETATM    4  C   UNK N   1      34.461  14.718  10.729  0.00  0.00     0.206 C 
HETATM    5  C   UNK N   1      33.180  15.173  10.010  0.00  0.00     0.295 C 
HETATM    6  O   UNK N   1      33.435  16.212   9.122  0.00  0.00    -0.311 OA
ENDROOT
BRANCH   3   7
HETATM    7  C   UNK N   1      34.683  18.091   8.163  0.00  0.00     0.200 C 
HETATM    8  O   UNK N   1      35.078  19.210   8.463  0.00  0.00    -0.645 OA
BRANCH   7   9
HETATM    9  O   UNK N   1      34.387  17.815   6.880  0.00  0.00    -0.771 OA
HETATM   10  H   UNK N   1      34.970  18.080   6.196  0.00  0.00     0.167 HD
ENDBRANCH   7   9
ENDBRANCH   3   7
BRANCH   2  11
HETATM   11  O   UNK N   1      36.433  15.550  11.815  0.00  0.00    -0.389 OA
HETATM   12  H   UNK N   1      37.201  15.211  11.330  0.00  0.00     0.210 HD
ENDBRANCH   2  11
BRANCH   5  13
HETATM   13  O   UNK N   1      32.639  14.093   9.309  0.00  0.00    -0.368 OA
HETATM   14  H   UNK N   1      32.096  14.134   8.507  0.00  0.00     0.212 HD
ENDBRANCH   5  13
BRANCH   4  15
HETATM   15  O   UNK N   1      34.152  13.812  11.747  0.00  0.00    -0.388 OA
HETATM   16  H   UNK N   1      33.559  14.046  12.478  0.00  0.00     0.210 HD
ENDBRANCH   4  15
TORSDOF 5
ENDMDL
MODEL 5
REMARK VINA RESULT:      -5.0      1.365      4.235
REMARK  5 active torsions:
REMARK  status: ('A' for Active; 'I' for Inactive)
REMARK    1  A    between atoms: C_2  and  O_7 
REMARK    2  A    between atoms: C_5  and  C_3 
REMARK    3  A    between atoms: C_4  and  O_8 
REMARK    4  A    between atoms: O_10  and  C_5 
REMARK    5  A    between atoms: C_6  and  O_11 
ROOT
HETATM    1  C   UNK N   1      34.076  15.284   8.738  0.00  0.00     0.051 C 
HETATM    2  C   UNK N   1      33.710  15.925   7.430  0.00  0.00     0.177 C 
HETATM    3  C   UNK N   1      34.479  16.034   9.781  0.00  0.00     0.144 C 
HETATM    4  C   UNK N   1      34.523  17.209   7.248  0.00  0.00     0.206 C 
HETATM    5  C   UNK N   1      34.366  18.103   8.488  0.00  0.00     0.295 C 
HETATM    6  O   UNK N   1      34.590  17.392   9.662  0.00  0.00    -0.311 OA
ENDROOT
BRANCH   3   7
HETATM    7  C   UNK N   1      34.786  15.402  11.079  0.00  0.00     0.200 C 
HETATM    8  O   UNK N   1      35.786  15.723  11.707  0.00  0.00    -0.645 OA
BRANCH   7   9
HETATM    9  O   UNK N   1      33.972  14.450  11.570  0.00  0.00    -0.771 OA
HETATM   10  H   UNK N   1      33.289  14.095  11.035  0.00  0.00     0.167 HD
ENDBRANCH   7   9
ENDBRANCH   3   7
BRANCH   2  11
HETATM   11  O   UNK N   1      33.969  15.040   6.383  0.00  0.00    -0.389 OA
HETATM   12  H   UNK N   1      34.578  15.159   5.637  0.00  0.00     0.210 HD
ENDBRANCH   2  11
BRANCH   5  13
HETATM   13  O   UNK N   1      35.277  19.159   8.411  0.00  0.00    -0.368 OA
HETATM   14  H   UNK N   1      36.108  19.174   7.912  0.00  0.00     0.212 HD
ENDBRANCH   5  13
BRANCH   4  15
HETATM   15  O   UNK N   1      34.109  17.891   6.101  0.00  0.00    -0.388 OA
HETATM   16  H   UNK N   1      33.963  17.435   5.257  0.00  0.00     0.210 HD
ENDBRANCH   4  15
TORSDOF 5
ENDMDL
MODEL 6
REMARK VINA RESULT:      -5.0     10.268     12.798
REMARK  5 active torsions:
REMARK  status: ('A' for Active; 'I' for Inactive)
REMARK    1  A    between atoms: C_2  and  O_7 
REMARK    2  A    between atoms: C_5  and  C_3 
REMARK    3  A    between atoms: C_4  and  O_8 
REMARK    4  A    between atoms: O_10  and  C_5 
REMARK    5  A    between atoms: C_6  and  O_11 
ROOT
HETATM    1  C   UNK N   1      43.791  20.848   3.568  0.00  0.00     0.051 C 
HETATM    2  C   UNK N   1      44.656  22.037   3.264  0.00  0.00     0.177 C 
HETATM    3  C   UNK N   1      42.525  20.786   3.111  0.00  0.00     0.144 C 
HETATM    4  C   UNK N   1      43.778  23.282   3.120  0.00  0.00     0.206 C 
HETATM    5  C   UNK N   1      42.653  23.008   2.108  0.00  0.00     0.295 C 
HETATM    6  O   UNK N   1      41.994  21.816   2.386  0.00  0.00    -0.311 OA
ENDROOT
BRANCH   3   7
HETATM    7  C   UNK N   1      41.699  19.590   3.368  0.00  0.00     0.200 C 
HETATM    8  O   UNK N   1      42.045  18.493   2.950  0.00  0.00    -0.645 OA
BRANCH   7   9
HETATM    9  O   UNK N   1      40.546  19.706   4.050  0.00  0.00    -0.771 OA
HETATM   10  H   UNK N   1      40.040  20.492   3.988  0.00  0.00     0.167 HD
ENDBRANCH   7   9
ENDBRANCH   3   7
BRANCH   2  11
HETATM   11  O   UNK N   1      45.582  22.220   4.293  0.00  0.00    -0.389 OA
HETATM   12  H   UNK N   1      45.437  22.624   5.162  0.00  0.00     0.210 HD
ENDBRANCH   2  11
BRANCH   5  13
HETATM   13  O   UNK N   1      41.735  24.060   2.147  0.00  0.00    -0.368 OA
HETATM   14  H   UNK N   1      41.795  24.902   1.670  0.00  0.00     0.212 HD
ENDBRANCH   5  13
BRANCH   4  15
HETATM   15  O   UNK N   1      44.544  24.377   2.712  0.00  0.00    -0.388 OA
HETATM   16  H   UNK N   1      45.380  24.608   3.146  0.00  0.00     0.210 HD
ENDBRANCH   4  15
TORSDOF 5
ENDMDL
MODEL 7
REMARK VINA RESULT:      -5.0     10.355     12.422
REMARK  5 active torsions:
REMARK  status: ('A' for Active; 'I' for Inactive)
REMARK    1  A    between atoms: C_2  and  O_7 
REMARK    2  A    between atoms: C_5  and  C_3 
REMARK    3  A    between atoms: C_4  and  O_8 
REMARK    4  A    between atoms: O_10  and  C_5 
REMARK    5  A    between atoms: C_6  and  O_11 
ROOT
HETATM    1  C   UNK N   1      21.732  12.574  10.939  0.00  0.00     0.051 C 
HETATM    2  C   UNK N   1      22.850  11.704  11.437  0.00  0.00     0.177 C 
HETATM    3  C   UNK N   1      21.949  13.480   9.966  0.00  0.00     0.144 C 
HETATM    4  C   UNK N   1      24.178  12.453  11.300  0.00  0.00     0.206 C 
HETATM    5  C   UNK N   1      24.335  12.969   9.860  0.00  0.00     0.295 C 
HETATM    6  O   UNK N   1      23.197  13.645   9.433  0.00  0.00    -0.311 OA
ENDROOT
BRANCH   3   7
HETATM    7  C   UNK N   1      20.834  14.294   9.445  0.00  0.00     0.200 C 
HETATM    8  O   UNK N   1      21.052  15.270   8.739  0.00  0.00    -0.645 OA
BRANCH   7   9
HETATM    9  O   UNK N   1      19.566  13.974   9.760  0.00  0.00    -0.771 OA
HETATM   10  H   UNK N   1      19.027  14.588  10.220  0.00  0.00     0.167 HD
ENDBRANCH   7   9
ENDBRANCH   3   7
BRANCH   2  11
HETATM   11  O   UNK N   1      22.625  11.368  12.774  0.00  0.00    -0.389 OA
HETATM   12  H   UNK N   1      23.216  11.504  13.531  0.00  0.00     0.210 HD
ENDBRANCH   2  11
BRANCH   5  13
HETATM   13  O   UNK N   1      25.431  13.832   9.799  0.00  0.00    -0.368 OA
HETATM   14  H   UNK N   1      25.441  14.776  10.022  0.00  0.00     0.212 HD
ENDBRANCH   5  13
BRANCH   4  15
HETATM   15  O   UNK N   1      25.247  11.619  11.637  0.00  0.00    -0.388 OA
HETATM   16  H   UNK N   1      25.321  11.208  12.512  0.00  0.00     0.210 HD
ENDBRANCH   4  15
TORSDOF 5
ENDMDL
MODEL 8
REMARK VINA RESULT:      -4.8      1.793      2.291
REMARK  5 active torsions:
REMARK  status: ('A' for Active; 'I' for Inactive)
REMARK    1  A    between atoms: C_2  and  O_7 
REMARK    2  A    between atoms: C_5  and  C_3 
REMARK    3  A    between atoms: C_4  and  O_8 
REMARK    4  A    between atoms: O_10  and  C_5 
REMARK    5  A    between atoms: C_6  and  O_11 
ROOT
HETATM    1  C   UNK N   1      33.397  15.638   7.228  0.00  0.00     0.051 C 
HETATM    2  C   UNK N   1      32.963  14.236   7.542  0.00  0.00     0.177 C 
HETATM    3  C   UNK N   1      33.980  16.404   8.170  0.00  0.00     0.144 C 
HETATM    4  C   UNK N   1      32.583  14.140   9.022  0.00  0.00     0.206 C 
HETATM    5  C   UNK N   1      33.731  14.686   9.888  0.00  0.00     0.295 C 
HETATM    6  O   UNK N   1      34.162  15.930   9.439  0.00  0.00    -0.311 OA
ENDROOT
BRANCH   3   7
HETATM    7  C   UNK N   1      34.453  17.762   7.838  0.00  0.00     0.200 C 
HETATM    8  O   UNK N   1      34.302  18.215   6.711  0.00  0.00    -0.645 OA
BRANCH   7   9
HETATM    9  O   UNK N   1      35.072  18.504   8.774  0.00  0.00    -0.771 OA
HETATM   10  H   UNK N   1      35.076  18.224   9.668  0.00  0.00     0.167 HD
ENDBRANCH   7   9
ENDBRANCH   3   7
BRANCH   2  11
HETATM   11  O   UNK N   1      31.871  13.891   6.743  0.00  0.00    -0.389 OA
HETATM   12  H   UNK N   1      31.831  13.217   6.047  0.00  0.00     0.210 HD
ENDBRANCH   2  11
BRANCH   5  13
HETATM   13  O   UNK N   1      33.294  14.801  11.209  0.00  0.00    -0.368 OA
HETATM   14  H   UNK N   1      33.773  15.209  11.947  0.00  0.00     0.212 HD
ENDBRANCH   5  13
BRANCH   4  15
HETATM   15  O   UNK N   1      32.298  12.817   9.369  0.00  0.00    -0.388 OA
HETATM   16  H   UNK N   1      31.635  12.596  10.042  0.00  0.00     0.210 HD
ENDBRANCH   4  15
TORSDOF 5
ENDMDL
MODEL 9
REMARK VINA RESULT:      -4.7      2.211      3.558
REMARK  5 active torsions:
REMARK  status: ('A' for Active; 'I' for Inactive)
REMARK    1  A    between atoms: C_2  and  O_7 
REMARK    2  A    between atoms: C_5  and  C_3 
REMARK    3  A    between atoms: C_4  and  O_8 
REMARK    4  A    between atoms: O_10  and  C_5 
REMARK    5  A    between atoms: C_6  and  O_11 
ROOT
HETATM    1  C   UNK N   1      32.368  16.313   7.267  0.00  0.00     0.051 C 
HETATM    2  C   UNK N   1      33.051  16.054   8.579  0.00  0.00     0.177 C 
HETATM    3  C   UNK N   1      32.846  17.242   6.417  0.00  0.00     0.144 C 
HETATM    4  C   UNK N   1      33.721  17.340   9.067  0.00  0.00     0.206 C 
HETATM    5  C   UNK N   1      34.619  17.910   7.957  0.00  0.00     0.295 C 
HETATM    6  O   UNK N   1      33.945  17.987   6.743  0.00  0.00    -0.311 OA
ENDROOT
BRANCH   3   7
HETATM    7  C   UNK N   1      32.201  17.453   5.106  0.00  0.00     0.200 C 
HETATM    8  O   UNK N   1      30.982  17.496   5.012  0.00  0.00    -0.645 OA
BRANCH   7   9
HETATM    9  O   UNK N   1      32.956  17.580   4.000  0.00  0.00    -0.771 OA
HETATM   10  H   UNK N   1      33.776  18.032   4.041  0.00  0.00     0.167 HD
ENDBRANCH   7   9
ENDBRANCH   3   7
BRANCH   2  11
HETATM   11  O   UNK N   1      32.115  15.614   9.518  0.00  0.00    -0.389 OA
HETATM   12  H   UNK N   1      31.156  15.757   9.516  0.00  0.00     0.210 HD
ENDBRANCH   2  11
BRANCH   5  13
HETATM   13  O   UNK N   1      35.048  19.187   8.325  0.00  0.00    -0.368 OA
HETATM   14  H   UNK N   1      34.655  20.032   8.057  0.00  0.00     0.212 HD
ENDBRANCH   5  13
BRANCH   4  15
HETATM   15  O   UNK N   1      34.470  17.095  10.221  0.00  0.00    -0.388 OA
HETATM   16  H   UNK N   1      35.436  17.178  10.232  0.00  0.00     0.210 HD
ENDBRANCH   4  15
TORSDOF 5
ENDMDL
