REMARK  2 active torsions:
REMARK  status: ('A' for Active; 'I' for Inactive)
REMARK    1  A    between atoms: C_2  and  O_3 
REMARK    2  A    between atoms: C_2  and  C_4 
ROOT
HETATM    1  C   UNK N   1       0.753   2.392   0.000  0.00  0.00     0.047 C 
HETATM    2  C   UNK N   1       1.383   1.012  -0.000  0.00  0.00     0.183 C 
ENDROOT
BRANCH   2   3
HETATM    3  O   UNK N   1       2.775   0.922   0.000  0.00  0.00    -0.388 OA
HETATM    4  H   UNK N   1       3.205   0.053   0.000  0.00  0.00     0.210 HD
ENDBRANCH   2   3
BRANCH   2   5
HETATM    5  C   UNK N   1       0.587  -0.254  -0.000  0.00  0.00     0.151 C 
HETATM    6  C   UNK N   1       1.283  -1.573   0.000  0.00  0.00     0.093 C 
HETATM    7  O   UNK N   1      -0.632  -0.214  -0.000  0.00  0.00    -0.296 OA
ENDBRANCH   2   5
TORSDOF 2
