MODEL 1
REMARK VINA RESULT:      -6.0      0.000      0.000
REMARK  5 active torsions:
REMARK  status: ('A' for Active; 'I' for Inactive)
REMARK    1  A    between atoms: C_14  and  C_4 
REMARK    2  A    between atoms: C_11  and  C_9 
REMARK    3  A    between atoms: N_19  and  C_9 
REMARK    4  A    between atoms: C_14  and  C_13 
REMARK    5  A    between atoms: C_13  and  O_21 
ROOT
HETATM    1  C   UNK N   1      25.717  23.263  -7.215  0.00  0.00     0.124 C 
HETATM    2  N   UNK N   1      25.391  24.501  -7.430  0.00  0.00    -0.365 N 
ATOM      3  HN  UNK N   1      24.423  24.757  -7.238  1.00  0.00     0.162 HD
ENDROOT
BRANCH   1   4
HETATM    4  C   UNK N   1      27.107  22.696  -7.497  0.00  0.00     0.066 A 
HETATM    5  C   UNK N   1      27.365  22.487  -9.007  0.00  0.00     0.041 A 
HETATM    6  C   UNK N   1      26.190  22.472  -9.981  0.00  0.00     0.014 C 
HETATM    7  C   UNK N   1      27.303  21.281  -8.068  0.00  0.00     0.133 A 
HETATM    8 Cl   UNK N   1      25.857  20.217  -8.027  0.00  0.00    -0.100 Cl
HETATM    9 Cl   UNK N   1      28.868  20.516  -7.651  0.00  0.00    -0.100 Cl
BRANCH   4  10
HETATM   10  C   UNK N   1      28.308  23.400  -6.866  0.00  0.00     0.017 C 
HETATM   11  C   UNK N   1      28.119  23.561  -5.371  0.00  0.00     0.006 C 
ENDBRANCH   4  10
ENDBRANCH   1   4
BRANCH   1  12
HETATM   12  O   UNK N   1      24.796  22.454  -6.661  0.00  0.00    -0.349 OA
HETATM   13  H   UNK N   1      23.938  22.114  -6.499  0.00  0.00     0.219 HD
ENDBRANCH   1  12
BRANCH   2  14
HETATM   14  C   UNK N   1      26.259  25.559  -7.913  0.00  0.00     0.112 C 
HETATM   15  C   UNK N   1      25.739  26.059  -9.250  0.00  0.00     0.037 C 
BRANCH  14  16
HETATM   16  C   UNK N   1      26.235  26.663  -6.894  0.00  0.00    -0.036 A 
HETATM   17  C   UNK N   1      25.238  26.689  -5.905  0.00  0.00     0.011 A 
HETATM   18  C   UNK N   1      25.279  27.645  -4.889  0.00  0.00     0.024 A 
HETATM   19  C   UNK N   1      26.317  28.579  -4.851  0.00  0.00     0.034 A 
HETATM   20  C   UNK N   1      27.301  28.573  -5.843  0.00  0.00     0.024 A 
HETATM   21 Cl   UNK N   1      26.396  29.741  -3.545  0.00  0.00    -0.084 Cl
HETATM   22  C   UNK N   1      27.261  27.619  -6.862  0.00  0.00     0.011 A 
ENDBRANCH  14  16
ENDBRANCH   2  14
TORSDOF 5
ENDMDL
MODEL 2
REMARK VINA RESULT:      -5.6      3.573      6.323
REMARK  5 active torsions:
REMARK  status: ('A' for Active; 'I' for Inactive)
REMARK    1  A    between atoms: C_14  and  C_4 
REMARK    2  A    between atoms: C_11  and  C_9 
REMARK    3  A    between atoms: N_19  and  C_9 
REMARK    4  A    between atoms: C_14  and  C_13 
REMARK    5  A    between atoms: C_13  and  O_21 
ROOT
HETATM    1  C   UNK N   1      27.216  25.701  -4.431  0.00  0.00     0.124 C 
HETATM    2  N   UNK N   1      28.318  25.767  -3.750  0.00  0.00    -0.365 N 
ATOM      3  HN  UNK N   1      28.232  25.703  -2.737  1.00  0.00     0.162 HD
ENDROOT
BRANCH   1   4
HETATM    4  C   UNK N   1      27.155  25.832  -5.952  0.00  0.00     0.066 A 
HETATM    5  C   UNK N   1      27.378  27.285  -6.431  0.00  0.00     0.041 A 
HETATM    6  C   UNK N   1      27.246  28.437  -5.439  0.00  0.00     0.014 C 
HETATM    7  C   UNK N   1      26.026  26.606  -6.653  0.00  0.00     0.133 A 
HETATM    8 Cl   UNK N   1      24.609  27.016  -5.629  0.00  0.00    -0.100 Cl
HETATM    9 Cl   UNK N   1      25.672  26.065  -8.324  0.00  0.00    -0.100 Cl
BRANCH   4  10
HETATM   10  C   UNK N   1      28.013  24.881  -6.786  0.00  0.00     0.017 C 
HETATM   11  C   UNK N   1      27.745  23.437  -6.411  0.00  0.00     0.006 C 
ENDBRANCH   4  10
ENDBRANCH   1   4
BRANCH   1  12
HETATM   12  O   UNK N   1      26.075  25.449  -3.764  0.00  0.00    -0.349 OA
HETATM   13  H   UNK N   1      25.412  24.920  -3.366  0.00  0.00     0.219 HD
ENDBRANCH   1  12
BRANCH   2  14
HETATM   14  C   UNK N   1      29.661  25.919  -4.280  0.00  0.00     0.112 C 
HETATM   15  C   UNK N   1      30.333  27.100  -3.601  0.00  0.00     0.037 C 
BRANCH  14  16
HETATM   16  C   UNK N   1      30.409  24.649  -3.987  0.00  0.00    -0.036 A 
HETATM   17  C   UNK N   1      31.561  24.324  -4.721  0.00  0.00     0.011 A 
HETATM   18  C   UNK N   1      32.324  23.207  -4.376  0.00  0.00     0.024 A 
HETATM   19  C   UNK N   1      31.944  22.410  -3.294  0.00  0.00     0.034 A 
HETATM   20  C   UNK N   1      30.788  22.715  -2.571  0.00  0.00     0.024 A 
HETATM   21 Cl   UNK N   1      32.932  21.043  -2.830  0.00  0.00    -0.084 Cl
HETATM   22  C   UNK N   1      30.022  23.831  -2.916  0.00  0.00     0.011 A 
ENDBRANCH  14  16
ENDBRANCH   2  14
TORSDOF 5
ENDMDL
MODEL 3
REMARK VINA RESULT:      -5.5     17.488     19.212
REMARK  5 active torsions:
REMARK  status: ('A' for Active; 'I' for Inactive)
REMARK    1  A    between atoms: C_14  and  C_4 
REMARK    2  A    between atoms: C_11  and  C_9 
REMARK    3  A    between atoms: N_19  and  C_9 
REMARK    4  A    between atoms: C_14  and  C_13 
REMARK    5  A    between atoms: C_13  and  O_21 
ROOT
HETATM    1  C   UNK N   1      23.142  15.096   6.422  0.00  0.00     0.124 C 
HETATM    2  N   UNK N   1      23.669  14.050   6.979  0.00  0.00    -0.365 N 
ATOM      3  HN  UNK N   1      24.663  14.103   7.199  1.00  0.00     0.162 HD
ENDROOT
BRANCH   1   4
HETATM    4  C   UNK N   1      21.682  15.170   5.978  0.00  0.00     0.066 A 
HETATM    5  C   UNK N   1      21.407  14.331   4.708  0.00  0.00     0.041 A 
HETATM    6  C   UNK N   1      22.573  13.871   3.838  0.00  0.00     0.014 C 
HETATM    7  C   UNK N   1      21.269  15.854   4.664  0.00  0.00     0.133 A 
HETATM    8 Cl   UNK N   1      22.528  16.872   3.887  0.00  0.00    -0.100 Cl
HETATM    9 Cl   UNK N   1      19.599  16.502   4.649  0.00  0.00    -0.100 Cl
BRANCH   4  10
HETATM   10  C   UNK N   1      20.602  14.886   7.022  0.00  0.00     0.017 C 
HETATM   11  C   UNK N   1      20.710  15.846   8.190  0.00  0.00     0.006 C 
ENDBRANCH   4  10
ENDBRANCH   1   4
BRANCH   1  12
HETATM   12  O   UNK N   1      23.909  16.193   6.282  0.00  0.00    -0.349 OA
HETATM   13  H   UNK N   1      24.331  16.892   5.823  0.00  0.00     0.219 HD
ENDBRANCH   1  12
BRANCH   2  14
HETATM   14  C   UNK N   1      22.994  12.812   7.322  0.00  0.00     0.112 C 
HETATM   15  C   UNK N   1      23.703  11.652   6.644  0.00  0.00     0.037 C 
BRANCH  14  16
HETATM   16  C   UNK N   1      23.055  12.663   8.816  0.00  0.00    -0.036 A 
HETATM   17  C   UNK N   1      21.870  12.579   9.566  0.00  0.00     0.011 A 
HETATM   18  C   UNK N   1      21.921  12.325  10.937  0.00  0.00     0.024 A 
HETATM   19  C   UNK N   1      23.154  12.149  11.569  0.00  0.00     0.034 A 
HETATM   20  C   UNK N   1      24.338  12.252  10.835  0.00  0.00     0.024 A 
HETATM   21 Cl   UNK N   1      23.213  11.776  13.277  0.00  0.00    -0.084 Cl
HETATM   22  C   UNK N   1      24.290  12.509   9.462  0.00  0.00     0.011 A 
ENDBRANCH  14  16
ENDBRANCH   2  14
TORSDOF 5
ENDMDL
MODEL 4
REMARK VINA RESULT:      -5.5     17.074     19.343
REMARK  5 active torsions:
REMARK  status: ('A' for Active; 'I' for Inactive)
REMARK    1  A    between atoms: C_14  and  C_4 
REMARK    2  A    between atoms: C_11  and  C_9 
REMARK    3  A    between atoms: N_19  and  C_9 
REMARK    4  A    between atoms: C_14  and  C_13 
REMARK    5  A    between atoms: C_13  and  O_21 
ROOT
HETATM    1  C   UNK N   1      33.568  16.848   6.675  0.00  0.00     0.124 C 
HETATM    2  N   UNK N   1      34.257  15.998   7.372  0.00  0.00    -0.365 N 
ATOM      3  HN  UNK N   1      35.265  16.147   7.406  1.00  0.00     0.162 HD
ENDROOT
BRANCH   1   4
HETATM    4  C   UNK N   1      32.058  16.746   6.473  0.00  0.00     0.066 A 
HETATM    5  C   UNK N   1      31.668  15.624   5.482  0.00  0.00     0.041 A 
HETATM    6  C   UNK N   1      32.726  15.033   4.554  0.00  0.00     0.014 C 
HETATM    7  C   UNK N   1      31.397  17.087   5.127  0.00  0.00     0.133 A 
HETATM    8 Cl   UNK N   1      32.434  17.958   3.948  0.00  0.00    -0.100 Cl
HETATM    9 Cl   UNK N   1      29.694  17.632   5.246  0.00  0.00    -0.100 Cl
BRANCH   4  10
HETATM   10  C   UNK N   1      31.175  16.658   7.717  0.00  0.00     0.017 C 
HETATM   11  C   UNK N   1      31.369  17.869   8.608  0.00  0.00     0.006 C 
ENDBRANCH   4  10
ENDBRANCH   1   4
BRANCH   1  12
HETATM   12  O   UNK N   1      34.214  17.906   6.151  0.00  0.00    -0.349 OA
HETATM   13  H   UNK N   1      34.668  18.726   6.160  0.00  0.00     0.219 HD
ENDBRANCH   1  12
BRANCH   2  14
HETATM   14  C   UNK N   1      33.744  14.858   8.109  0.00  0.00     0.112 C 
HETATM   15  C   UNK N   1      34.179  13.578   7.413  0.00  0.00     0.037 C 
BRANCH  14  16
HETATM   16  C   UNK N   1      34.318  14.921   9.497  0.00  0.00    -0.036 A 
HETATM   17  C   UNK N   1      34.430  13.753  10.267  0.00  0.00     0.011 A 
HETATM   18  C   UNK N   1      35.068  13.787  11.509  0.00  0.00     0.024 A 
HETATM   19  C   UNK N   1      35.599  14.987  11.988  0.00  0.00     0.034 A 
HETATM   20  C   UNK N   1      35.473  16.158  11.237  0.00  0.00     0.024 A 
HETATM   21 Cl   UNK N   1      36.445  15.015  13.518  0.00  0.00    -0.084 Cl
HETATM   22  C   UNK N   1      34.833  16.126   9.995  0.00  0.00     0.011 A 
ENDBRANCH  14  16
ENDBRANCH   2  14
TORSDOF 5
ENDMDL
MODEL 5
REMARK VINA RESULT:      -5.5      4.032      6.878
REMARK  5 active torsions:
REMARK  status: ('A' for Active; 'I' for Inactive)
REMARK    1  A    between atoms: C_14  and  C_4 
REMARK    2  A    between atoms: C_11  and  C_9 
REMARK    3  A    between atoms: N_19  and  C_9 
REMARK    4  A    between atoms: C_14  and  C_13 
REMARK    5  A    between atoms: C_13  and  O_21 
ROOT
HETATM    1  C   UNK N   1      27.579  26.644  -5.831  0.00  0.00     0.124 C 
HETATM    2  N   UNK N   1      27.922  25.513  -5.295  0.00  0.00    -0.365 N 
ATOM      3  HN  UNK N   1      28.253  24.788  -5.930  1.00  0.00     0.162 HD
ENDROOT
BRANCH   1   4
HETATM    4  C   UNK N   1      27.012  27.818  -5.035  0.00  0.00     0.066 A 
HETATM    5  C   UNK N   1      27.426  29.186  -5.624  0.00  0.00     0.041 A 
HETATM    6  C   UNK N   1      28.588  29.266  -6.610  0.00  0.00     0.014 C 
HETATM    7  C   UNK N   1      27.921  28.769  -4.238  0.00  0.00     0.133 A 
HETATM    8 Cl   UNK N   1      29.610  28.209  -3.993  0.00  0.00    -0.100 Cl
HETATM    9 Cl   UNK N   1      27.133  29.561  -2.839  0.00  0.00    -0.100 Cl
BRANCH   4  10
HETATM   10  C   UNK N   1      25.514  27.822  -4.736  0.00  0.00     0.017 C 
HETATM   11  C   UNK N   1      24.759  26.959  -5.728  0.00  0.00     0.006 C 
ENDBRANCH   4  10
ENDBRANCH   1   4
BRANCH   1  12
HETATM   12  O   UNK N   1      27.787  26.806  -7.150  0.00  0.00    -0.349 OA
HETATM   13  H   UNK N   1      28.202  26.663  -7.978  0.00  0.00     0.219 HD
ENDBRANCH   1  12
BRANCH   2  14
HETATM   14  C   UNK N   1      27.885  25.172  -3.884  0.00  0.00     0.112 C 
HETATM   15  C   UNK N   1      26.629  24.366  -3.599  0.00  0.00     0.037 C 
BRANCH  14  16
HETATM   16  C   UNK N   1      29.112  24.356  -3.584  0.00  0.00    -0.036 A 
HETATM   17  C   UNK N   1      29.048  23.300  -2.661  0.00  0.00     0.011 A 
HETATM   18  C   UNK N   1      30.152  22.468  -2.467  0.00  0.00     0.024 A 
HETATM   19  C   UNK N   1      31.325  22.683  -3.193  0.00  0.00     0.034 A 
HETATM   20  C   UNK N   1      31.403  23.745  -4.098  0.00  0.00     0.024 A 
HETATM   21 Cl   UNK N   1      32.687  21.605  -2.988  0.00  0.00    -0.084 Cl
HETATM   22  C   UNK N   1      30.301  24.580  -4.293  0.00  0.00     0.011 A 
ENDBRANCH  14  16
ENDBRANCH   2  14
TORSDOF 5
ENDMDL
MODEL 6
REMARK VINA RESULT:      -5.5     26.127     28.332
REMARK  5 active torsions:
REMARK  status: ('A' for Active; 'I' for Inactive)
REMARK    1  A    between atoms: C_14  and  C_4 
REMARK    2  A    between atoms: C_11  and  C_9 
REMARK    3  A    between atoms: N_19  and  C_9 
REMARK    4  A    between atoms: C_14  and  C_13 
REMARK    5  A    between atoms: C_13  and  O_21 
ROOT
HETATM    1  C   UNK N   1      37.114  11.837  14.423  0.00  0.00     0.124 C 
HETATM    2  N   UNK N   1      36.659  11.031  15.332  0.00  0.00    -0.365 N 
ATOM      3  HN  UNK N   1      37.221  10.204  15.531  1.00  0.00     0.162 HD
ENDROOT
BRANCH   1   4
HETATM    4  C   UNK N   1      36.376  13.093  13.963  0.00  0.00     0.066 A 
HETATM    5  C   UNK N   1      35.198  12.772  13.014  0.00  0.00     0.041 A 
HETATM    6  C   UNK N   1      35.118  11.404  12.343  0.00  0.00     0.014 C 
HETATM    7  C   UNK N   1      36.405  13.557  12.497  0.00  0.00     0.133 A 
HETATM    8 Cl   UNK N   1      37.639  12.771  11.455  0.00  0.00    -0.100 Cl
HETATM    9 Cl   UNK N   1      36.169  15.317  12.264  0.00  0.00    -0.100 Cl
BRANCH   4  10
HETATM   10  C   UNK N   1      35.916  14.083  15.032  0.00  0.00     0.017 C 
HETATM   11  C   UNK N   1      37.102  14.698  15.749  0.00  0.00     0.006 C 
ENDBRANCH   4  10
ENDBRANCH   1   4
BRANCH   1  12
HETATM   12  O   UNK N   1      38.328  11.581  13.902  0.00  0.00    -0.349 OA
HETATM   13  H   UNK N   1      39.234  11.735  13.720  0.00  0.00     0.219 HD
ENDBRANCH   1  12
BRANCH   2  14
HETATM   14  C   UNK N   1      35.434  11.182  16.095  0.00  0.00     0.112 C 
HETATM   15  C   UNK N   1      34.399  10.198  15.577  0.00  0.00     0.037 C 
BRANCH  14  16
HETATM   16  C   UNK N   1      35.759  10.893  17.534  0.00  0.00    -0.036 A 
HETATM   17  C   UNK N   1      36.548   9.780  17.868  0.00  0.00     0.011 A 
HETATM   18  C   UNK N   1      36.949   9.573  19.190  0.00  0.00     0.024 A 
HETATM   19  C   UNK N   1      36.568  10.476  20.184  0.00  0.00     0.034 A 
HETATM   20  C   UNK N   1      35.766  11.574  19.863  0.00  0.00     0.024 A 
HETATM   21 Cl   UNK N   1      37.118  10.244  21.828  0.00  0.00    -0.084 Cl
HETATM   22  C   UNK N   1      35.361  11.782  18.542  0.00  0.00     0.011 A 
ENDBRANCH  14  16
ENDBRANCH   2  14
TORSDOF 5
ENDMDL
MODEL 7
REMARK VINA RESULT:      -5.4      3.445      4.227
REMARK  5 active torsions:
REMARK  status: ('A' for Active; 'I' for Inactive)
REMARK    1  A    between atoms: C_14  and  C_4 
REMARK    2  A    between atoms: C_11  and  C_9 
REMARK    3  A    between atoms: N_19  and  C_9 
REMARK    4  A    between atoms: C_14  and  C_13 
REMARK    5  A    between atoms: C_13  and  O_21 
ROOT
HETATM    1  C   UNK N   1      28.991  23.754  -3.507  0.00  0.00     0.124 C 
HETATM    2  N   UNK N   1      27.787  24.023  -3.908  0.00  0.00    -0.365 N 
ATOM      3  HN  UNK N   1      27.028  23.759  -3.281  1.00  0.00     0.162 HD
ENDROOT
BRANCH   1   4
HETATM    4  C   UNK N   1      30.240  24.032  -4.341  0.00  0.00     0.066 A 
HETATM    5  C   UNK N   1      30.373  23.072  -5.545  0.00  0.00     0.041 A 
HETATM    6  C   UNK N   1      29.558  21.783  -5.579  0.00  0.00     0.014 C 
HETATM    7  C   UNK N   1      31.403  23.029  -4.416  0.00  0.00     0.133 A 
HETATM    8 Cl   UNK N   1      31.378  21.714  -3.193  0.00  0.00    -0.100 Cl
HETATM    9 Cl   UNK N   1      33.001  23.760  -4.767  0.00  0.00    -0.100 Cl
BRANCH   4  10
HETATM   10  C   UNK N   1      30.486  25.468  -4.803  0.00  0.00     0.017 C 
HETATM   11  C   UNK N   1      30.589  26.410  -3.619  0.00  0.00     0.006 C 
ENDBRANCH   4  10
ENDBRANCH   1   4
BRANCH   1  12
HETATM   12  O   UNK N   1      29.148  23.256  -2.267  0.00  0.00    -0.349 OA
HETATM   13  H   UNK N   1      28.926  23.100  -1.370  0.00  0.00     0.219 HD
ENDBRANCH   1  12
BRANCH   2  14
HETATM   14  C   UNK N   1      27.407  24.661  -5.155  0.00  0.00     0.112 C 
HETATM   15  C   UNK N   1      26.232  23.911  -5.761  0.00  0.00     0.037 C 
BRANCH  14  16
HETATM   16  C   UNK N   1      27.017  26.077  -4.838  0.00  0.00    -0.036 A 
HETATM   17  C   UNK N   1      26.480  26.396  -3.580  0.00  0.00     0.011 A 
HETATM   18  C   UNK N   1      26.226  27.726  -3.239  0.00  0.00     0.024 A 
HETATM   19  C   UNK N   1      26.509  28.746  -4.150  0.00  0.00     0.034 A 
HETATM   20  C   UNK N   1      27.023  28.435  -5.411  0.00  0.00     0.024 A 
HETATM   21 Cl   UNK N   1      26.241  30.415  -3.700  0.00  0.00    -0.084 Cl
HETATM   22  C   UNK N   1      27.277  27.105  -5.755  0.00  0.00     0.011 A 
ENDBRANCH  14  16
ENDBRANCH   2  14
TORSDOF 5
ENDMDL
MODEL 8
REMARK VINA RESULT:      -5.4     24.415     26.561
REMARK  5 active torsions:
REMARK  status: ('A' for Active; 'I' for Inactive)
REMARK    1  A    between atoms: C_14  and  C_4 
REMARK    2  A    between atoms: C_11  and  C_9 
REMARK    3  A    between atoms: N_19  and  C_9 
REMARK    4  A    between atoms: C_14  and  C_13 
REMARK    5  A    between atoms: C_13  and  O_21 
ROOT
HETATM    1  C   UNK N   1      35.386  12.366  12.559  0.00  0.00     0.124 C 
HETATM    2  N   UNK N   1      35.299  12.906  13.736  0.00  0.00    -0.365 N 
ATOM      3  HN  UNK N   1      34.371  13.206  14.033  1.00  0.00     0.162 HD
ENDROOT
BRANCH   1   4
HETATM    4  C   UNK N   1      36.703  11.908  11.936  0.00  0.00     0.066 A 
HETATM    5  C   UNK N   1      37.490  13.075  11.295  0.00  0.00     0.041 A 
HETATM    6  C   UNK N   1      36.781  14.392  10.994  0.00  0.00     0.014 C 
HETATM    7  C   UNK N   1      36.937  11.951  10.417  0.00  0.00     0.133 A 
HETATM    8 Cl   UNK N   1      35.472  12.204   9.409  0.00  0.00    -0.100 Cl
HETATM    9 Cl   UNK N   1      38.127  10.757   9.809  0.00  0.00    -0.100 Cl
BRANCH   4  10
HETATM   10  C   UNK N   1      37.646  11.067  12.795  0.00  0.00     0.017 C 
HETATM   11  C   UNK N   1      37.037   9.714  13.105  0.00  0.00     0.006 C 
ENDBRANCH   4  10
ENDBRANCH   1   4
BRANCH   1  12
HETATM   12  O   UNK N   1      34.246  12.146  11.879  0.00  0.00    -0.349 OA
HETATM   13  H   UNK N   1      33.366  12.311  11.602  0.00  0.00     0.219 HD
ENDBRANCH   1  12
BRANCH   2  14
HETATM   14  C   UNK N   1      36.384  13.128  14.674  0.00  0.00     0.112 C 
HETATM   15  C   UNK N   1      36.692  14.615  14.737  0.00  0.00     0.037 C 
BRANCH  14  16
HETATM   16  C   UNK N   1      35.929  12.629  16.017  0.00  0.00    -0.036 A 
HETATM   17  C   UNK N   1      36.094  11.277  16.358  0.00  0.00     0.011 A 
HETATM   18  C   UNK N   1      35.780  10.833  17.644  0.00  0.00     0.024 A 
HETATM   19  C   UNK N   1      35.305  11.735  18.598  0.00  0.00     0.034 A 
HETATM   20  C   UNK N   1      35.119  13.078  18.260  0.00  0.00     0.024 A 
HETATM   21 Cl   UNK N   1      34.965  11.187  20.224  0.00  0.00    -0.084 Cl
HETATM   22  C   UNK N   1      35.429  13.524  16.973  0.00  0.00     0.011 A 
ENDBRANCH  14  16
ENDBRANCH   2  14
TORSDOF 5
ENDMDL
MODEL 9
REMARK VINA RESULT:      -5.4     13.422     15.479
REMARK  5 active torsions:
REMARK  status: ('A' for Active; 'I' for Inactive)
REMARK    1  A    between atoms: C_14  and  C_4 
REMARK    2  A    between atoms: C_11  and  C_9 
REMARK    3  A    between atoms: N_19  and  C_9 
REMARK    4  A    between atoms: C_14  and  C_13 
REMARK    5  A    between atoms: C_13  and  O_21 
ROOT
HETATM    1  C   UNK N   1      28.493  17.894   4.408  0.00  0.00     0.124 C 
HETATM    2  N   UNK N   1      29.751  17.594   4.302  0.00  0.00    -0.365 N 
ATOM      3  HN  UNK N   1      30.342  18.270   3.818  1.00  0.00     0.162 HD
ENDROOT
BRANCH   1   4
HETATM    4  C   UNK N   1      27.459  16.974   5.054  0.00  0.00     0.066 A 
HETATM    5  C   UNK N   1      27.075  15.784   4.144  0.00  0.00     0.041 A 
HETATM    6  C   UNK N   1      27.409  15.831   2.655  0.00  0.00     0.014 C 
HETATM    7  C   UNK N   1      26.031  16.845   4.496  0.00  0.00     0.133 A 
HETATM    8 Cl   UNK N   1      25.545  18.094   3.301  0.00  0.00    -0.100 Cl
HETATM    9 Cl   UNK N   1      24.795  16.375   5.705  0.00  0.00    -0.100 Cl
BRANCH   4  10
HETATM   10  C   UNK N   1      27.737  16.467   6.468  0.00  0.00     0.017 C 
HETATM   11  C   UNK N   1      27.850  17.619   7.447  0.00  0.00     0.006 C 
ENDBRANCH   4  10
ENDBRANCH   1   4
BRANCH   1  12
HETATM   12  O   UNK N   1      28.093  19.104   3.976  0.00  0.00    -0.349 OA
HETATM   13  H   UNK N   1      27.498  19.736   3.626  0.00  0.00     0.219 HD
ENDBRANCH   1  12
BRANCH   2  14
HETATM   14  C   UNK N   1      30.406  16.398   4.799  0.00  0.00     0.112 C 
HETATM   15  C   UNK N   1      30.953  15.604   3.625  0.00  0.00     0.037 C 
BRANCH  14  16
HETATM   16  C   UNK N   1      31.525  16.837   5.702  0.00  0.00    -0.036 A 
HETATM   17  C   UNK N   1      32.802  17.086   5.172  0.00  0.00     0.011 A 
HETATM   18  C   UNK N   1      33.811  17.605   5.985  0.00  0.00     0.024 A 
HETATM   19  C   UNK N   1      33.553  17.882   7.329  0.00  0.00     0.034 A 
HETATM   20  C   UNK N   1      32.291  17.618   7.868  0.00  0.00     0.024 A 
HETATM   21 Cl   UNK N   1      34.803  18.584   8.330  0.00  0.00    -0.084 Cl
HETATM   22  C   UNK N   1      31.280  17.096   7.058  0.00  0.00     0.011 A 
ENDBRANCH  14  16
ENDBRANCH   2  14
TORSDOF 5
ENDMDL
