MODEL 1
REMARK VINA RESULT:      -5.5      0.000      0.000
REMARK  0 active torsions:
REMARK  status: ('A' for Active; 'I' for Inactive)
ROOT
HETATM    1  O   UNK N   1      22.309  15.260   6.465  0.00  0.00    -0.273 OA
HETATM    2  C   UNK N   1      22.892  14.609   7.317  0.00  0.00     0.224 A 
HETATM    3  C   UNK N   1      24.383  14.358   7.168  0.00  0.00     0.108 A 
HETATM    4  C   UNK N   1      25.073  13.526   8.280  0.00  0.00     0.050 A 
HETATM    5  C   UNK N   1      24.173  13.061   9.386  0.00  0.00    -0.030 A 
HETATM    6  C   UNK N   1      24.653  12.298  10.462  0.00  0.00     0.009 A 
HETATM    7  C   UNK N   1      23.760  11.886  11.477  0.00  0.00     0.001 A 
HETATM    8  C   UNK N   1      22.395  12.238  11.411  0.00  0.00     0.009 A 
HETATM    9  C   UNK N   1      21.960  12.998  10.324  0.00  0.00    -0.029 A 
HETATM   10  C   UNK N   1      22.828  13.381   9.366  0.00  0.00     0.050 A 
HETATM   11  N   UNK N   1      22.214  14.118   8.383  0.00  0.00    -0.317 N 
HETATM   12  C   UNK N   1      20.800  14.274   8.658  0.00  0.00     0.137 A 
HETATM   13  C   UNK N   1      20.583  13.503  10.010  0.00  0.00     0.061 A 
ENDROOT
TORSDOF 0
ENDMDL
MODEL 2
REMARK VINA RESULT:      -5.3      8.346     10.157
REMARK  0 active torsions:
REMARK  status: ('A' for Active; 'I' for Inactive)
ROOT
HETATM    1  O   UNK N   1      34.540  17.647   6.566  0.00  0.00    -0.273 OA
HETATM    2  C   UNK N   1      33.428  17.536   6.076  0.00  0.00     0.224 A 
HETATM    3  C   UNK N   1      33.281  17.527   4.564  0.00  0.00     0.108 A 
HETATM    4  C   UNK N   1      31.846  17.384   3.995  0.00  0.00     0.050 A 
HETATM    5  C   UNK N   1      30.756  17.270   5.020  0.00  0.00    -0.030 A 
HETATM    6  C   UNK N   1      29.408  17.136   4.658  0.00  0.00     0.009 A 
HETATM    7  C   UNK N   1      28.423  17.033   5.666  0.00  0.00     0.001 A 
HETATM    8  C   UNK N   1      28.790  17.065   7.029  0.00  0.00     0.009 A 
HETATM    9  C   UNK N   1      30.143  17.200   7.344  0.00  0.00    -0.029 A 
HETATM   10  C   UNK N   1      31.068  17.297   6.367  0.00  0.00     0.050 A 
HETATM   11  N   UNK N   1      32.338  17.423   6.874  0.00  0.00    -0.317 N 
HETATM   12  C   UNK N   1      32.322  17.417   8.323  0.00  0.00     0.137 A 
HETATM   13  C   UNK N   1      30.802  17.262   8.690  0.00  0.00     0.061 A 
ENDROOT
TORSDOF 0
ENDMDL
MODEL 3
REMARK VINA RESULT:      -5.3     20.155     21.594
REMARK  0 active torsions:
REMARK  status: ('A' for Active; 'I' for Inactive)
ROOT
HETATM    1  O   UNK N   1      27.682  26.204  -9.132  0.00  0.00    -0.273 OA
HETATM    2  C   UNK N   1      27.674  27.028  -8.231  0.00  0.00     0.224 A 
HETATM    3  C   UNK N   1      28.658  28.185  -8.274  0.00  0.00     0.108 A 
HETATM    4  C   UNK N   1      28.604  29.201  -7.104  0.00  0.00     0.050 A 
HETATM    5  C   UNK N   1      27.571  28.917  -6.054  0.00  0.00    -0.030 A 
HETATM    6  C   UNK N   1      27.402  29.747  -4.935  0.00  0.00     0.009 A 
HETATM    7  C   UNK N   1      26.414  29.432  -3.976  0.00  0.00     0.001 A 
HETATM    8  C   UNK N   1      25.599  28.290  -4.140  0.00  0.00     0.009 A 
HETATM    9  C   UNK N   1      25.801  27.492  -5.268  0.00  0.00    -0.029 A 
HETATM   10  C   UNK N   1      26.750  27.811  -6.171  0.00  0.00     0.050 A 
HETATM   11  N   UNK N   1      26.795  26.909  -7.205  0.00  0.00    -0.317 N 
HETATM   12  C   UNK N   1      25.804  25.867  -7.030  0.00  0.00     0.137 A 
HETATM   13  C   UNK N   1      25.087  26.240  -5.683  0.00  0.00     0.061 A 
ENDROOT
TORSDOF 0
ENDMDL
MODEL 4
REMARK VINA RESULT:      -5.2     13.551     14.899
REMARK  0 active torsions:
REMARK  status: ('A' for Active; 'I' for Inactive)
ROOT
HETATM    1  O   UNK N   1      34.522  12.681  14.322  0.00  0.00    -0.273 OA
HETATM    2  C   UNK N   1      34.704  11.901  15.243  0.00  0.00     0.224 A 
HETATM    3  C   UNK N   1      34.691  10.408  14.965  0.00  0.00     0.108 A 
HETATM    4  C   UNK N   1      34.927   9.463  16.171  0.00  0.00     0.050 A 
HETATM    5  C   UNK N   1      35.145  10.145  17.489  0.00  0.00    -0.030 A 
HETATM    6  C   UNK N   1      35.371   9.423  18.670  0.00  0.00     0.009 A 
HETATM    7  C   UNK N   1      35.570  10.118  19.884  0.00  0.00     0.001 A 
HETATM    8  C   UNK N   1      35.541  11.529  19.912  0.00  0.00     0.009 A 
HETATM    9  C   UNK N   1      35.312  12.208  18.713  0.00  0.00    -0.029 A 
HETATM   10  C   UNK N   1      35.125  11.526  17.565  0.00  0.00     0.050 A 
HETATM   11  N   UNK N   1      34.915  12.366  16.499  0.00  0.00    -0.317 N 
HETATM   12  C   UNK N   1      34.956  13.753  16.915  0.00  0.00     0.137 A 
HETATM   13  C   UNK N   1      35.231  13.684  18.460  0.00  0.00     0.061 A 
ENDROOT
TORSDOF 0
ENDMDL
MODEL 5
REMARK VINA RESULT:      -5.1     16.855     18.104
REMARK  0 active torsions:
REMARK  status: ('A' for Active; 'I' for Inactive)
ROOT
HETATM    1  O   UNK N   1      30.464  23.065  -1.573  0.00  0.00    -0.273 OA
HETATM    2  C   UNK N   1      30.007  22.970  -2.702  0.00  0.00     0.224 A 
HETATM    3  C   UNK N   1      28.921  23.933  -3.147  0.00  0.00     0.108 A 
HETATM    4  C   UNK N   1      28.378  23.767  -4.590  0.00  0.00     0.050 A 
HETATM    5  C   UNK N   1      28.999  22.658  -5.386  0.00  0.00    -0.030 A 
HETATM    6  C   UNK N   1      28.611  22.384  -6.706  0.00  0.00     0.009 A 
HETATM    7  C   UNK N   1      29.230  21.326  -7.410  0.00  0.00     0.001 A 
HETATM    8  C   UNK N   1      30.232  20.548  -6.791  0.00  0.00     0.009 A 
HETATM    9  C   UNK N   1      30.587  20.854  -5.476  0.00  0.00    -0.029 A 
HETATM   10  C   UNK N   1      29.984  21.868  -4.822  0.00  0.00     0.050 A 
HETATM   11  N   UNK N   1      30.468  22.013  -3.545  0.00  0.00    -0.317 N 
HETATM   12  C   UNK N   1      31.493  21.030  -3.263  0.00  0.00     0.137 A 
HETATM   13  C   UNK N   1      31.606  20.199  -4.592  0.00  0.00     0.061 A 
ENDROOT
TORSDOF 0
ENDMDL
MODEL 6
REMARK VINA RESULT:      -5.1      8.221     10.000
REMARK  0 active torsions:
REMARK  status: ('A' for Active; 'I' for Inactive)
ROOT
HETATM    1  O   UNK N   1      29.506  16.486   3.134  0.00  0.00    -0.273 OA
HETATM    2  C   UNK N   1      30.490  16.737   3.813  0.00  0.00     0.224 A 
HETATM    3  C   UNK N   1      31.845  16.862   3.138  0.00  0.00     0.108 A 
HETATM    4  C   UNK N   1      33.059  17.181   4.048  0.00  0.00     0.050 A 
HETATM    5  C   UNK N   1      32.748  17.331   5.507  0.00  0.00    -0.030 A 
HETATM    6  C   UNK N   1      33.742  17.620   6.453  0.00  0.00     0.009 A 
HETATM    7  C   UNK N   1      33.392  17.750   7.816  0.00  0.00     0.001 A 
HETATM    8  C   UNK N   1      32.050  17.591   8.225  0.00  0.00     0.009 A 
HETATM    9  C   UNK N   1      31.092  17.304   7.251  0.00  0.00    -0.029 A 
HETATM   10  C   UNK N   1      31.448  17.184   5.956  0.00  0.00     0.050 A 
HETATM   11  N   UNK N   1      30.370  16.901   5.153  0.00  0.00    -0.317 N 
HETATM   12  C   UNK N   1      29.151  16.812   5.932  0.00  0.00     0.137 A 
HETATM   13  C   UNK N   1      29.616  17.089   7.407  0.00  0.00     0.061 A 
ENDROOT
TORSDOF 0
ENDMDL
MODEL 7
REMARK VINA RESULT:      -5.1      1.912      3.563
REMARK  0 active torsions:
REMARK  status: ('A' for Active; 'I' for Inactive)
ROOT
HETATM    1  O   UNK N   1      21.093  12.088  11.928  0.00  0.00    -0.273 OA
HETATM    2  C   UNK N   1      22.005  12.356  11.161  0.00  0.00     0.224 A 
HETATM    3  C   UNK N   1      23.401  11.837  11.458  0.00  0.00     0.108 A 
HETATM    4  C   UNK N   1      24.520  12.208  10.451  0.00  0.00     0.050 A 
HETATM    5  C   UNK N   1      24.085  13.047   9.287  0.00  0.00    -0.030 A 
HETATM    6  C   UNK N   1      24.985  13.462   8.293  0.00  0.00     0.009 A 
HETATM    7  C   UNK N   1      24.520  14.252   7.218  0.00  0.00     0.001 A 
HETATM    8  C   UNK N   1      23.160  14.623   7.141  0.00  0.00     0.009 A 
HETATM    9  C   UNK N   1      22.299  14.189   8.151  0.00  0.00    -0.029 A 
HETATM   10  C   UNK N   1      22.763  13.436   9.169  0.00  0.00     0.050 A 
HETATM   11  N   UNK N   1      21.769  13.109  10.058  0.00  0.00    -0.317 N 
HETATM   12  C   UNK N   1      20.499  13.670   9.647  0.00  0.00     0.137 A 
HETATM   13  C   UNK N   1      20.829  14.434   8.315  0.00  0.00     0.061 A 
ENDROOT
TORSDOF 0
ENDMDL
MODEL 8
REMARK VINA RESULT:      -5.1     14.153     15.286
REMARK  0 active torsions:
REMARK  status: ('A' for Active; 'I' for Inactive)
ROOT
HETATM    1  O   UNK N   1      35.293  14.683  18.440  0.00  0.00    -0.273 OA
HETATM    2  C   UNK N   1      35.276  13.462  18.424  0.00  0.00     0.224 A 
HETATM    3  C   UNK N   1      35.266  12.702  19.739  0.00  0.00     0.108 A 
HETATM    4  C   UNK N   1      35.244  11.154  19.659  0.00  0.00     0.050 A 
HETATM    5  C   UNK N   1      35.236  10.582  18.273  0.00  0.00    -0.030 A 
HETATM    6  C   UNK N   1      35.216   9.198  18.040  0.00  0.00     0.009 A 
HETATM    7  C   UNK N   1      35.209   8.715  16.713  0.00  0.00     0.001 A 
HETATM    8  C   UNK N   1      35.221   9.615  15.626  0.00  0.00     0.009 A 
HETATM    9  C   UNK N   1      35.240  10.983  15.902  0.00  0.00    -0.029 A 
HETATM   10  C   UNK N   1      35.247  11.424  17.176  0.00  0.00     0.050 A 
HETATM   11  N   UNK N   1      35.266  12.796  17.243  0.00  0.00    -0.317 N 
HETATM   12  C   UNK N   1      35.273  13.381  15.918  0.00  0.00     0.137 A 
HETATM   13  C   UNK N   1      35.256  12.143  14.950  0.00  0.00     0.061 A 
ENDROOT
TORSDOF 0
ENDMDL
MODEL 9
REMARK VINA RESULT:      -4.9      7.926     10.046
REMARK  0 active torsions:
REMARK  status: ('A' for Active; 'I' for Inactive)
ROOT
HETATM    1  O   UNK N   1      28.132  16.630   5.488  0.00  0.00    -0.273 OA
HETATM    2  C   UNK N   1      29.115  16.898   6.160  0.00  0.00     0.224 A 
HETATM    3  C   UNK N   1      28.948  17.169   7.645  0.00  0.00     0.108 A 
HETATM    4  C   UNK N   1      30.230  17.504   8.450  0.00  0.00     0.050 A 
HETATM    5  C   UNK N   1      31.502  17.522   7.656  0.00  0.00    -0.030 A 
HETATM    6  C   UNK N   1      32.742  17.808   8.245  0.00  0.00     0.009 A 
HETATM    7  C   UNK N   1      33.909  17.811   7.449  0.00  0.00     0.001 A 
HETATM    8  C   UNK N   1      33.830  17.527   6.068  0.00  0.00     0.009 A 
HETATM    9  C   UNK N   1      32.576  17.247   5.522  0.00  0.00    -0.029 A 
HETATM   10  C   UNK N   1      31.475  17.249   6.300  0.00  0.00     0.050 A 
HETATM   11  N   UNK N   1      30.341  16.952   5.584  0.00  0.00    -0.317 N 
HETATM   12  C   UNK N   1      30.654  16.719   4.189  0.00  0.00     0.137 A 
HETATM   13  C   UNK N   1      32.211  16.916   4.105  0.00  0.00     0.061 A 
ENDROOT
TORSDOF 0
ENDMDL
