MODEL 1
REMARK VINA RESULT:      -5.1      0.000      0.000
REMARK  10 active torsions:
REMARK  status: ('A' for Active; 'I' for Inactive)
REMARK    1  A    between atoms: C_3  and  C_1 
REMARK    2  A    between atoms: C_4  and  C_1 
REMARK    3  A    between atoms: C_5  and  C_2 
REMARK    4  A    between atoms: O_7  and  C_2 
REMARK    5  A    between atoms: C_5  and  C_3 
REMARK    6  A    between atoms: C_3  and  O_8 
REMARK    7  A    between atoms: C_6  and  C_4 
REMARK    8  A    between atoms: C_4  and  O_9 
REMARK    9  A    between atoms: C_5  and  O_10 
REMARK   10  A    between atoms: O_12  and  C_6 
ROOT
HETATM    1  C   UNK N   1      19.694  18.743   2.970  0.00  0.00     0.151 C 
ENDROOT
BRANCH   1   2
HETATM    2  C   UNK N   1      20.178  20.191   3.142  0.00  0.00     0.077 C 
BRANCH   2   3
HETATM    3  C   UNK N   1      21.359  20.530   2.225  0.00  0.00     0.218 C 
BRANCH   3   4
HETATM    4  C   UNK N   1      20.865  21.076   0.913  0.00  0.00     0.169 C 
HETATM    5  O   UNK N   1      20.870  20.382  -0.092  0.00  0.00    -0.648 OA
BRANCH   4   6
HETATM    6  O   UNK N   1      20.382  22.333   0.851  0.00  0.00    -0.774 OA
HETATM    7  H   UNK N   1      20.972  23.058   0.786  0.00  0.00     0.167 HD
ENDBRANCH   4   6
ENDBRANCH   3   4
BRANCH   3   8
HETATM    8  O   UNK N   1      22.200  21.455   2.852  0.00  0.00    -0.385 OA
HETATM    9  H   UNK N   1      23.040  21.164   3.240  0.00  0.00     0.210 HD
ENDBRANCH   3   8
ENDBRANCH   2   3
ENDBRANCH   1   2
BRANCH   1  10
HETATM   10  C   UNK N   1      20.779  17.873   2.310  0.00  0.00     0.170 C 
BRANCH  10  11
HETATM   11  C   UNK N   1      20.207  16.998   1.196  0.00  0.00     0.198 C 
BRANCH  11  12
HETATM   12  O   UNK N   1      20.261  17.646  -0.039  0.00  0.00    -0.398 OA
HETATM   13  H   UNK N   1      20.303  17.130  -0.859  0.00  0.00     0.209 HD
ENDBRANCH  11  12
ENDBRANCH  10  11
BRANCH  10  14
HETATM   14  O   UNK N   1      21.342  17.027   3.269  0.00  0.00    -0.391 OA
HETATM   15  H   UNK N   1      20.769  16.547   3.889  0.00  0.00     0.210 HD
ENDBRANCH  10  14
ENDBRANCH   1  10
BRANCH   1  16
HETATM   16  O   UNK N   1      18.527  18.724   2.202  0.00  0.00    -0.393 OA
HETATM   17  H   UNK N   1      17.740  19.205   2.504  0.00  0.00     0.210 HD
ENDBRANCH   1  16
TORSDOF 10
ENDMDL
MODEL 2
REMARK VINA RESULT:      -4.8     16.118     17.371
REMARK  10 active torsions:
REMARK  status: ('A' for Active; 'I' for Inactive)
REMARK    1  A    between atoms: C_3  and  C_1 
REMARK    2  A    between atoms: C_4  and  C_1 
REMARK    3  A    between atoms: C_5  and  C_2 
REMARK    4  A    between atoms: O_7  and  C_2 
REMARK    5  A    between atoms: C_5  and  C_3 
REMARK    6  A    between atoms: C_3  and  O_8 
REMARK    7  A    between atoms: C_6  and  C_4 
REMARK    8  A    between atoms: C_4  and  O_9 
REMARK    9  A    between atoms: C_5  and  O_10 
REMARK   10  A    between atoms: O_12  and  C_6 
ROOT
HETATM    1  C   UNK N   1      35.817  15.725  10.540  0.00  0.00     0.151 C 
ENDROOT
BRANCH   1   2
HETATM    2  C   UNK N   1      35.150  17.093  10.329  0.00  0.00     0.077 C 
BRANCH   2   3
HETATM    3  C   UNK N   1      34.242  17.121   9.094  0.00  0.00     0.218 C 
BRANCH   3   4
HETATM    4  C   UNK N   1      34.699  18.183   8.131  0.00  0.00     0.169 C 
HETATM    5  O   UNK N   1      34.478  18.076   6.935  0.00  0.00    -0.648 OA
BRANCH   4   6
HETATM    6  O   UNK N   1      35.330  19.280   8.595  0.00  0.00    -0.774 OA
HETATM    7  H   UNK N   1      34.952  20.128   8.466  0.00  0.00     0.167 HD
ENDBRANCH   4   6
ENDBRANCH   3   4
BRANCH   3   8
HETATM    8  O   UNK N   1      34.242  15.868   8.473  0.00  0.00    -0.385 OA
HETATM    9  H   UNK N   1      34.337  15.062   9.004  0.00  0.00     0.210 HD
ENDBRANCH   3   8
ENDBRANCH   2   3
ENDBRANCH   1   2
BRANCH   1  10
HETATM   10  C   UNK N   1      35.156  14.963  11.703  0.00  0.00     0.170 C 
BRANCH  10  11
HETATM   11  C   UNK N   1      35.865  13.640  11.991  0.00  0.00     0.198 C 
BRANCH  11  12
HETATM   12  O   UNK N   1      37.013  13.835  12.760  0.00  0.00    -0.398 OA
HETATM   13  H   UNK N   1      37.667  13.124  12.847  0.00  0.00     0.209 HD
ENDBRANCH  11  12
ENDBRANCH  10  11
BRANCH  10  14
HETATM   14  O   UNK N   1      33.830  14.673  11.373  0.00  0.00    -0.391 OA
HETATM   15  H   UNK N   1      33.397  13.889  11.749  0.00  0.00     0.210 HD
ENDBRANCH  10  14
ENDBRANCH   1  10
BRANCH   1  16
HETATM   16  O   UNK N   1      37.180  15.900  10.790  0.00  0.00    -0.393 OA
HETATM   17  H   UNK N   1      37.692  16.537  10.267  0.00  0.00     0.210 HD
ENDBRANCH   1  16
TORSDOF 10
ENDMDL
MODEL 3
REMARK VINA RESULT:      -4.7     15.705     16.934
REMARK  10 active torsions:
REMARK  status: ('A' for Active; 'I' for Inactive)
REMARK    1  A    between atoms: C_3  and  C_1 
REMARK    2  A    between atoms: C_4  and  C_1 
REMARK    3  A    between atoms: C_5  and  C_2 
REMARK    4  A    between atoms: O_7  and  C_2 
REMARK    5  A    between atoms: C_5  and  C_3 
REMARK    6  A    between atoms: C_3  and  O_8 
REMARK    7  A    between atoms: C_6  and  C_4 
REMARK    8  A    between atoms: C_4  and  O_9 
REMARK    9  A    between atoms: C_5  and  O_10 
REMARK   10  A    between atoms: O_12  and  C_6 
ROOT
HETATM    1  C   UNK N   1      34.626  15.562  10.925  0.00  0.00     0.151 C 
ENDROOT
BRANCH   1   2
HETATM    2  C   UNK N   1      34.796  16.098   9.495  0.00  0.00     0.077 C 
BRANCH   2   3
HETATM    3  C   UNK N   1      33.980  17.371   9.242  0.00  0.00     0.218 C 
BRANCH   3   4
HETATM    4  C   UNK N   1      34.635  18.213   8.182  0.00  0.00     0.169 C 
HETATM    5  O   UNK N   1      35.285  19.202   8.484  0.00  0.00    -0.648 OA
BRANCH   4   6
HETATM    6  O   UNK N   1      34.532  17.857   6.886  0.00  0.00    -0.774 OA
HETATM    7  H   UNK N   1      35.171  17.287   6.504  0.00  0.00     0.167 HD
ENDBRANCH   4   6
ENDBRANCH   3   4
BRANCH   3   8
HETATM    8  O   UNK N   1      32.677  17.034   8.861  0.00  0.00    -0.385 OA
HETATM    9  H   UNK N   1      32.396  16.106   8.856  0.00  0.00     0.210 HD
ENDBRANCH   3   8
ENDBRANCH   2   3
ENDBRANCH   1   2
BRANCH   1  10
HETATM   10  C   UNK N   1      35.704  14.514  11.253  0.00  0.00     0.170 C 
BRANCH  10  11
HETATM   11  C   UNK N   1      35.573  13.991  12.683  0.00  0.00     0.198 C 
BRANCH  11  12
HETATM   12  O   UNK N   1      34.460  13.161  12.821  0.00  0.00    -0.398 OA
HETATM   13  H   UNK N   1      34.302  12.448  12.183  0.00  0.00     0.209 HD
ENDBRANCH  11  12
ENDBRANCH  10  11
BRANCH  10  14
HETATM   14  O   UNK N   1      36.969  15.094  11.126  0.00  0.00    -0.391 OA
HETATM   15  H   UNK N   1      37.253  15.780  11.752  0.00  0.00     0.210 HD
ENDBRANCH  10  14
ENDBRANCH   1  10
BRANCH   1  16
HETATM   16  O   UNK N   1      33.353  15.007  11.071  0.00  0.00    -0.393 OA
HETATM   17  H   UNK N   1      32.581  15.453  10.688  0.00  0.00     0.210 HD
ENDBRANCH   1  16
TORSDOF 10
ENDMDL
MODEL 4
REMARK VINA RESULT:      -4.5     17.558     19.155
REMARK  10 active torsions:
REMARK  status: ('A' for Active; 'I' for Inactive)
REMARK    1  A    between atoms: C_3  and  C_1 
REMARK    2  A    between atoms: C_4  and  C_1 
REMARK    3  A    between atoms: C_5  and  C_2 
REMARK    4  A    between atoms: O_7  and  C_2 
REMARK    5  A    between atoms: C_5  and  C_3 
REMARK    6  A    between atoms: C_3  and  O_8 
REMARK    7  A    between atoms: C_6  and  C_4 
REMARK    8  A    between atoms: C_4  and  O_9 
REMARK    9  A    between atoms: C_5  and  O_10 
REMARK   10  A    between atoms: O_12  and  C_6 
ROOT
HETATM    1  C   UNK N   1      35.898  15.371  11.612  0.00  0.00     0.151 C 
ENDROOT
BRANCH   1   2
HETATM    2  C   UNK N   1      36.443  14.117  12.314  0.00  0.00     0.077 C 
BRANCH   2   3
HETATM    3  C   UNK N   1      36.131  14.100  13.815  0.00  0.00     0.218 C 
BRANCH   3   4
HETATM    4  C   UNK N   1      34.964  13.194  14.098  0.00  0.00     0.169 C 
HETATM    5  O   UNK N   1      34.529  13.075  15.233  0.00  0.00    -0.648 OA
BRANCH   4   6
HETATM    6  O   UNK N   1      34.371  12.531  13.086  0.00  0.00    -0.774 OA
HETATM    7  H   UNK N   1      34.894  12.114  12.429  0.00  0.00     0.167 HD
ENDBRANCH   4   6
ENDBRANCH   3   4
BRANCH   3   8
HETATM    8  O   UNK N   1      37.257  13.683  14.531  0.00  0.00    -0.385 OA
HETATM    9  H   UNK N   1      37.405  12.740  14.699  0.00  0.00     0.210 HD
ENDBRANCH   3   8
ENDBRANCH   2   3
ENDBRANCH   1   2
BRANCH   1  10
HETATM   10  C   UNK N   1      34.774  15.007  10.626  0.00  0.00     0.170 C 
BRANCH  10  11
HETATM   11  C   UNK N   1      34.597  16.074   9.546  0.00  0.00     0.198 C 
BRANCH  11  12
HETATM   12  O   UNK N   1      34.590  17.357  10.095  0.00  0.00    -0.398 OA
HETATM   13  H   UNK N   1      35.421  17.845  10.202  0.00  0.00     0.209 HD
ENDBRANCH  11  12
ENDBRANCH  10  11
BRANCH  10  14
HETATM   14  O   UNK N   1      33.566  14.899  11.319  0.00  0.00    -0.391 OA
HETATM   15  H   UNK N   1      32.906  15.607  11.256  0.00  0.00     0.210 HD
ENDBRANCH  10  14
ENDBRANCH   1  10
BRANCH   1  16
HETATM   16  O   UNK N   1      36.936  16.023  10.942  0.00  0.00    -0.393 OA
HETATM   17  H   UNK N   1      37.727  16.304  11.428  0.00  0.00     0.210 HD
ENDBRANCH   1  16
TORSDOF 10
ENDMDL
MODEL 5
REMARK VINA RESULT:      -4.5     18.096     19.403
REMARK  10 active torsions:
REMARK  status: ('A' for Active; 'I' for Inactive)
REMARK    1  A    between atoms: C_3  and  C_1 
REMARK    2  A    between atoms: C_4  and  C_1 
REMARK    3  A    between atoms: C_5  and  C_2 
REMARK    4  A    between atoms: O_7  and  C_2 
REMARK    5  A    between atoms: C_5  and  C_3 
REMARK    6  A    between atoms: C_3  and  O_8 
REMARK    7  A    between atoms: C_6  and  C_4 
REMARK    8  A    between atoms: C_4  and  O_9 
REMARK    9  A    between atoms: C_5  and  O_10 
REMARK   10  A    between atoms: O_12  and  C_6 
ROOT
HETATM    1  C   UNK N   1      35.959  13.869  12.728  0.00  0.00     0.151 C 
ENDROOT
BRANCH   1   2
HETATM    2  C   UNK N   1      35.711  15.320  12.287  0.00  0.00     0.077 C 
BRANCH   2   3
HETATM    3  C   UNK N   1      35.997  15.540  10.797  0.00  0.00     0.218 C 
BRANCH   3   4
HETATM    4  C   UNK N   1      35.144  16.654  10.258  0.00  0.00     0.169 C 
HETATM    5  O   UNK N   1      35.597  17.782  10.133  0.00  0.00    -0.648 OA
BRANCH   4   6
HETATM    6  O   UNK N   1      33.875  16.402   9.877  0.00  0.00    -0.774 OA
HETATM    7  H   UNK N   1      33.668  15.597   9.444  0.00  0.00     0.167 HD
ENDBRANCH   4   6
ENDBRANCH   3   4
BRANCH   3   8
HETATM    8  O   UNK N   1      37.352  15.828  10.609  0.00  0.00    -0.385 OA
HETATM    9  H   UNK N   1      37.939  15.170  10.205  0.00  0.00     0.210 HD
ENDBRANCH   3   8
ENDBRANCH   2   3
ENDBRANCH   1   2
BRANCH   1  10
HETATM   10  C   UNK N   1      35.603  13.676  14.213  0.00  0.00     0.170 C 
BRANCH  10  11
HETATM   11  C   UNK N   1      36.800  13.183  15.026  0.00  0.00     0.198 C 
BRANCH  11  12
HETATM   12  O   UNK N   1      37.631  14.240  15.399  0.00  0.00    -0.398 OA
HETATM   13  H   UNK N   1      37.437  15.141  15.098  0.00  0.00     0.209 HD
ENDBRANCH  11  12
ENDBRANCH  10  11
BRANCH  10  14
HETATM   14  O   UNK N   1      34.590  12.720  14.326  0.00  0.00    -0.391 OA
HETATM   15  H   UNK N   1      34.296  12.230  13.542  0.00  0.00     0.210 HD
ENDBRANCH  10  14
ENDBRANCH   1  10
BRANCH   1  16
HETATM   16  O   UNK N   1      37.296  13.531  12.505  0.00  0.00    -0.393 OA
HETATM   17  H   UNK N   1      37.875  13.320  13.254  0.00  0.00     0.210 HD
ENDBRANCH   1  16
TORSDOF 10
ENDMDL
MODEL 6
REMARK VINA RESULT:      -4.5     15.567     17.131
REMARK  10 active torsions:
REMARK  status: ('A' for Active; 'I' for Inactive)
REMARK    1  A    between atoms: C_3  and  C_1 
REMARK    2  A    between atoms: C_4  and  C_1 
REMARK    3  A    between atoms: C_5  and  C_2 
REMARK    4  A    between atoms: O_7  and  C_2 
REMARK    5  A    between atoms: C_5  and  C_3 
REMARK    6  A    between atoms: C_3  and  O_8 
REMARK    7  A    between atoms: C_6  and  C_4 
REMARK    8  A    between atoms: C_4  and  O_9 
REMARK    9  A    between atoms: C_5  and  O_10 
REMARK   10  A    between atoms: O_12  and  C_6 
ROOT
HETATM    1  C   UNK N   1      34.665  17.082   9.778  0.00  0.00     0.151 C 
ENDROOT
BRANCH   1   2
HETATM    2  C   UNK N   1      34.926  15.601   9.463  0.00  0.00     0.077 C 
BRANCH   2   3
HETATM    3  C   UNK N   1      34.335  14.661  10.519  0.00  0.00     0.218 C 
BRANCH   3   4
HETATM    4  C   UNK N   1      35.279  14.515  11.681  0.00  0.00     0.169 C 
HETATM    5  O   UNK N   1      34.915  13.984  12.718  0.00  0.00    -0.648 OA
BRANCH   4   6
HETATM    6  O   UNK N   1      36.551  14.948  11.567  0.00  0.00    -0.774 OA
HETATM    7  H   UNK N   1      36.726  15.807  11.236  0.00  0.00     0.167 HD
ENDBRANCH   4   6
ENDBRANCH   3   4
BRANCH   3   8
HETATM    8  O   UNK N   1      33.098  15.149  10.954  0.00  0.00    -0.385 OA
HETATM    9  H   UNK N   1      32.288  14.644  10.783  0.00  0.00     0.210 HD
ENDBRANCH   3   8
ENDBRANCH   2   3
ENDBRANCH   1   2
BRANCH   1  10
HETATM   10  C   UNK N   1      34.233  17.848   8.515  0.00  0.00     0.170 C 
BRANCH  10  11
HETATM   11  C   UNK N   1      34.382  16.996   7.255  0.00  0.00     0.198 C 
BRANCH  11  12
HETATM   12  O   UNK N   1      34.268  17.771   6.100  0.00  0.00    -0.398 OA
HETATM   13  H   UNK N   1      33.958  18.688   6.158  0.00  0.00     0.209 HD
ENDBRANCH  11  12
ENDBRANCH  10  11
BRANCH  10  14
HETATM   14  O   UNK N   1      35.037  18.980   8.361  0.00  0.00    -0.391 OA
HETATM   15  H   UNK N   1      35.098  19.417   7.497  0.00  0.00     0.210 HD
ENDBRANCH  10  14
ENDBRANCH   1  10
BRANCH   1  16
HETATM   16  O   UNK N   1      35.816  17.658  10.322  0.00  0.00    -0.393 OA
HETATM   17  H   UNK N   1      36.686  17.448   9.947  0.00  0.00     0.210 HD
ENDBRANCH   1  16
TORSDOF 10
ENDMDL
MODEL 7
REMARK VINA RESULT:      -4.3      1.555      1.984
REMARK  10 active torsions:
REMARK  status: ('A' for Active; 'I' for Inactive)
REMARK    1  A    between atoms: C_3  and  C_1 
REMARK    2  A    between atoms: C_4  and  C_1 
REMARK    3  A    between atoms: C_5  and  C_2 
REMARK    4  A    between atoms: O_7  and  C_2 
REMARK    5  A    between atoms: C_5  and  C_3 
REMARK    6  A    between atoms: C_3  and  O_8 
REMARK    7  A    between atoms: C_6  and  C_4 
REMARK    8  A    between atoms: C_4  and  O_9 
REMARK    9  A    between atoms: C_5  and  O_10 
REMARK   10  A    between atoms: O_12  and  C_6 
ROOT
HETATM    1  C   UNK N   1      20.178  17.441   2.789  0.00  0.00     0.151 C 
ENDROOT
BRANCH   1   2
HETATM    2  C   UNK N   1      20.520  18.785   2.127  0.00  0.00     0.077 C 
BRANCH   2   3
HETATM    3  C   UNK N   1      21.304  19.717   3.058  0.00  0.00     0.218 C 
BRANCH   3   4
HETATM    4  C   UNK N   1      21.552  21.041   2.389  0.00  0.00     0.169 C 
HETATM    5  O   UNK N   1      20.893  21.382   1.418  0.00  0.00    -0.648 OA
BRANCH   4   6
HETATM    6  O   UNK N   1      22.488  21.876   2.883  0.00  0.00    -0.774 OA
HETATM    7  H   UNK N   1      23.374  21.584   2.973  0.00  0.00     0.167 HD
ENDBRANCH   4   6
ENDBRANCH   3   4
BRANCH   3   8
HETATM    8  O   UNK N   1      20.602  19.899   4.254  0.00  0.00    -0.385 OA
HETATM    9  H   UNK N   1      20.100  19.164   4.640  0.00  0.00     0.210 HD
ENDBRANCH   3   8
ENDBRANCH   2   3
ENDBRANCH   1   2
BRANCH   1  10
HETATM   10  C   UNK N   1      20.253  16.290   1.770  0.00  0.00     0.170 C 
BRANCH  10  11
HETATM   11  C   UNK N   1      19.838  16.742   0.370  0.00  0.00     0.198 C 
BRANCH  11  12
HETATM   12  O   UNK N   1      18.449  16.790   0.242  0.00  0.00    -0.398 OA
HETATM   13  H   UNK N   1      17.890  16.882   1.029  0.00  0.00     0.209 HD
ENDBRANCH  11  12
ENDBRANCH  10  11
BRANCH  10  14
HETATM   14  O   UNK N   1      19.385  15.267   2.161  0.00  0.00    -0.391 OA
HETATM   15  H   UNK N   1      18.485  15.481   2.455  0.00  0.00     0.210 HD
ENDBRANCH  10  14
ENDBRANCH   1  10
BRANCH   1  16
HETATM   16  O   UNK N   1      18.902  17.504   3.353  0.00  0.00    -0.393 OA
HETATM   17  H   UNK N   1      18.673  18.229   3.956  0.00  0.00     0.210 HD
ENDBRANCH   1  16
TORSDOF 10
ENDMDL
MODEL 8
REMARK VINA RESULT:      -4.3     18.647     20.187
REMARK  10 active torsions:
REMARK  status: ('A' for Active; 'I' for Inactive)
REMARK    1  A    between atoms: C_3  and  C_1 
REMARK    2  A    between atoms: C_4  and  C_1 
REMARK    3  A    between atoms: C_5  and  C_2 
REMARK    4  A    between atoms: O_7  and  C_2 
REMARK    5  A    between atoms: C_5  and  C_3 
REMARK    6  A    between atoms: C_3  and  O_8 
REMARK    7  A    between atoms: C_6  and  C_4 
REMARK    8  A    between atoms: C_4  and  O_9 
REMARK    9  A    between atoms: C_5  and  O_10 
REMARK   10  A    between atoms: O_12  and  C_6 
ROOT
HETATM    1  C   UNK N   1      35.497  14.217  11.659  0.00  0.00     0.151 C 
ENDROOT
BRANCH   1   2
HETATM    2  C   UNK N   1      36.102  14.580  13.024  0.00  0.00     0.077 C 
BRANCH   2   3
HETATM    3  C   UNK N   1      35.977  13.443  14.045  0.00  0.00     0.218 C 
BRANCH   3   4
HETATM    4  C   UNK N   1      36.480  13.887  15.391  0.00  0.00     0.169 C 
HETATM    5  O   UNK N   1      35.880  13.588  16.411  0.00  0.00    -0.648 OA
BRANCH   4   6
HETATM    6  O   UNK N   1      37.623  14.597  15.477  0.00  0.00    -0.774 OA
HETATM    7  H   UNK N   1      38.013  14.953  14.702  0.00  0.00     0.167 HD
ENDBRANCH   4   6
ENDBRANCH   3   4
BRANCH   3   8
HETATM    8  O   UNK N   1      34.645  13.027  14.135  0.00  0.00    -0.385 OA
HETATM    9  H   UNK N   1      34.154  13.144  14.963  0.00  0.00     0.210 HD
ENDBRANCH   3   8
ENDBRANCH   2   3
ENDBRANCH   1   2
BRANCH   1  10
HETATM   10  C   UNK N   1      36.214  14.967  10.521  0.00  0.00     0.170 C 
BRANCH  10  11
HETATM   11  C   UNK N   1      37.381  14.159   9.955  0.00  0.00     0.198 C 
BRANCH  11  12
HETATM   12  O   UNK N   1      38.567  14.895   9.979  0.00  0.00    -0.398 OA
HETATM   13  H   UNK N   1      38.878  15.291  10.807  0.00  0.00     0.209 HD
ENDBRANCH  11  12
ENDBRANCH  10  11
BRANCH  10  14
HETATM   14  O   UNK N   1      36.727  16.171  11.011  0.00  0.00    -0.391 OA
HETATM   15  H   UNK N   1      36.774  16.949  10.432  0.00  0.00     0.210 HD
ENDBRANCH  10  14
ENDBRANCH   1  10
BRANCH   1  16
HETATM   16  O   UNK N   1      34.134  14.520  11.653  0.00  0.00    -0.393 OA
HETATM   17  H   UNK N   1      33.491  13.860  11.348  0.00  0.00     0.210 HD
ENDBRANCH   1  16
TORSDOF 10
ENDMDL
MODEL 9
REMARK VINA RESULT:      -4.3     10.202     11.451
REMARK  10 active torsions:
REMARK  status: ('A' for Active; 'I' for Inactive)
REMARK    1  A    between atoms: C_3  and  C_1 
REMARK    2  A    between atoms: C_4  and  C_1 
REMARK    3  A    between atoms: C_5  and  C_2 
REMARK    4  A    between atoms: O_7  and  C_2 
REMARK    5  A    between atoms: C_5  and  C_3 
REMARK    6  A    between atoms: C_3  and  O_8 
REMARK    7  A    between atoms: C_6  and  C_4 
REMARK    8  A    between atoms: C_4  and  O_9 
REMARK    9  A    between atoms: C_5  and  O_10 
REMARK   10  A    between atoms: O_12  and  C_6 
ROOT
HETATM    1  C   UNK N   1      31.000  22.902  -2.919  0.00  0.00     0.151 C 
ENDROOT
BRANCH   1   2
HETATM    2  C   UNK N   1      29.688  22.636  -3.673  0.00  0.00     0.077 C 
BRANCH   2   3
HETATM    3  C   UNK N   1      28.782  23.871  -3.733  0.00  0.00     0.218 C 
BRANCH   3   4
HETATM    4  C   UNK N   1      27.650  23.740  -2.751  0.00  0.00     0.169 C 
HETATM    5  O   UNK N   1      26.539  24.171  -3.019  0.00  0.00    -0.648 OA
BRANCH   4   6
HETATM    6  O   UNK N   1      27.854  23.114  -1.575  0.00  0.00    -0.774 OA
HETATM    7  H   UNK N   1      28.262  22.271  -1.558  0.00  0.00     0.167 HD
ENDBRANCH   4   6
ENDBRANCH   3   4
BRANCH   3   8
HETATM    8  O   UNK N   1      29.528  25.023  -3.468  0.00  0.00    -0.385 OA
HETATM    9  H   UNK N   1      29.078  25.859  -3.270  0.00  0.00     0.210 HD
ENDBRANCH   3   8
ENDBRANCH   2   3
ENDBRANCH   1   2
BRANCH   1  10
HETATM   10  C   UNK N   1      32.050  21.823  -3.240  0.00  0.00     0.170 C 
BRANCH  10  11
HETATM   11  C   UNK N   1      31.464  20.694  -4.087  0.00  0.00     0.198 C 
BRANCH  11  12
HETATM   12  O   UNK N   1      32.288  19.568  -4.074  0.00  0.00    -0.398 OA
HETATM   13  H   UNK N   1      33.168  19.614  -3.669  0.00  0.00     0.209 HD
ENDBRANCH  11  12
ENDBRANCH  10  11
BRANCH  10  14
HETATM   14  O   UNK N   1      32.517  21.263  -2.049  0.00  0.00    -0.391 OA
HETATM   15  H   UNK N   1      31.915  20.752  -1.484  0.00  0.00     0.210 HD
ENDBRANCH  10  14
ENDBRANCH   1  10
BRANCH   1  16
HETATM   16  O   UNK N   1      30.753  22.942  -1.545  0.00  0.00    -0.393 OA
HETATM   17  H   UNK N   1      31.416  23.316  -0.943  0.00  0.00     0.210 HD
ENDBRANCH   1  16
TORSDOF 10
ENDMDL
