MODEL 1
REMARK VINA RESULT:      -6.0      0.000      0.000
REMARK  9 active torsions:
REMARK  status: ('A' for Active; 'I' for Inactive)
REMARK    1  A    between atoms: C_4  and  C_3 
REMARK    2  A    between atoms: P_17  and  C_3 
REMARK    3  A    between atoms: C_5  and  O_9 
REMARK    4  A    between atoms: C_6  and  O_10 
REMARK    5  A    between atoms: C_8  and  C_7 
REMARK    6  A    between atoms: O_12  and  C_7 
REMARK    7  A    between atoms: C_8  and  O_13 
REMARK    8  A    between atoms: P_17  and  O_14 
REMARK    9  A    between atoms: P_17  and  O_15 
ROOT
HETATM    1  C   UNK N   1      32.360  17.708   7.221  0.00  0.00     0.057 C 
HETATM    2  C   UNK N   1      34.113  15.837   7.441  0.00  0.00     0.083 C 
HETATM    3  C   UNK N   1      31.467  16.683   7.927  0.00  0.00     0.031 C 
HETATM    4  C   UNK N   1      33.056  15.097   6.639  0.00  0.00     0.150 C 
HETATM    5  C   UNK N   1      31.678  15.259   7.313  0.00  0.00     0.151 C 
HETATM    6  C   UNK N   1      33.873  17.362   7.357  0.00  0.00     0.145 C 
ENDROOT
BRANCH   3   7
HETATM    7  C   UNK N   1      30.007  17.142   7.836  0.00  0.00     0.132 C 
BRANCH   7   8
HETATM    8  P   UNK N   1      29.266  17.704   9.458  0.00  0.00     0.236 P 
HETATM    9  O   UNK N   1      29.876  19.042   9.951  0.00  0.00    -0.653 OA
BRANCH   8  10
HETATM   10  O   UNK N   1      29.564  16.609  10.770  0.00  0.00    -0.329 OA
HETATM   11  H   UNK N   1      30.343  16.047  10.909  0.00  0.00     0.220 HD
ENDBRANCH   8  10
BRANCH   8  12
HETATM   12  O   UNK N   1      27.555  17.994   9.433  0.00  0.00    -0.329 OA
HETATM   13  H   UNK N   1      26.880  17.637  10.031  0.00  0.00     0.220 HD
ENDBRANCH   8  12
ENDBRANCH   7   8
ENDBRANCH   3   7
BRANCH   5  14
HETATM   14  O   UNK N   1      30.701  14.957   6.359  0.00  0.00    -0.393 OA
HETATM   15  H   UNK N   1      30.534  14.148   5.849  0.00  0.00     0.210 HD
ENDBRANCH   5  14
BRANCH   6  16
HETATM   16  C   UNK N   1      34.508  17.997   8.569  0.00  0.00     0.175 C 
HETATM   17  O   UNK N   1      35.162  19.022   8.473  0.00  0.00    -0.648 OA
BRANCH  16  18
HETATM   18  O   UNK N   1      34.357  17.419   9.779  0.00  0.00    -0.774 OA
HETATM   19  H   UNK N   1      34.385  16.502   9.970  0.00  0.00     0.167 HD
ENDBRANCH  16  18
ENDBRANCH   6  16
BRANCH   6  20
HETATM   20  O   UNK N   1      34.515  17.856   6.221  0.00  0.00    -0.379 OA
HETATM   21  H   UNK N   1      35.321  18.344   5.988  0.00  0.00     0.211 HD
ENDBRANCH   6  20
BRANCH   4  22
HETATM   22  O   UNK N   1      33.381  13.747   6.507  0.00  0.00    -0.393 OA
HETATM   23  H   UNK N   1      33.734  13.243   5.757  0.00  0.00     0.210 HD
ENDBRANCH   4  22
TORSDOF 9
ENDMDL
MODEL 2
REMARK VINA RESULT:      -6.0      1.428      1.567
REMARK  9 active torsions:
REMARK  status: ('A' for Active; 'I' for Inactive)
REMARK    1  A    between atoms: C_4  and  C_3 
REMARK    2  A    between atoms: P_17  and  C_3 
REMARK    3  A    between atoms: C_5  and  O_9 
REMARK    4  A    between atoms: C_6  and  O_10 
REMARK    5  A    between atoms: C_8  and  C_7 
REMARK    6  A    between atoms: O_12  and  C_7 
REMARK    7  A    between atoms: C_8  and  O_13 
REMARK    8  A    between atoms: P_17  and  O_14 
REMARK    9  A    between atoms: P_17  and  O_15 
ROOT
HETATM    1  C   UNK N   1      32.610  18.243   8.094  0.00  0.00     0.057 C 
HETATM    2  C   UNK N   1      34.333  16.658   7.025  0.00  0.00     0.083 C 
HETATM    3  C   UNK N   1      31.623  17.179   7.606  0.00  0.00     0.031 C 
HETATM    4  C   UNK N   1      33.471  16.950   5.809  0.00  0.00     0.150 C 
HETATM    5  C   UNK N   1      31.984  16.723   6.153  0.00  0.00     0.151 C 
HETATM    6  C   UNK N   1      34.076  17.716   8.124  0.00  0.00     0.145 C 
ENDROOT
BRANCH   3   7
HETATM    7  C   UNK N   1      30.198  17.737   7.699  0.00  0.00     0.132 C 
BRANCH   7   8
HETATM    8  P   UNK N   1      29.446  17.669   9.410  0.00  0.00     0.236 P 
HETATM    9  O   UNK N   1      29.717  18.962  10.222  0.00  0.00    -0.653 OA
BRANCH   8  10
HETATM   10  O   UNK N   1      30.110  16.412  10.407  0.00  0.00    -0.329 OA
HETATM   11  H   UNK N   1      30.927  15.911  10.263  0.00  0.00     0.220 HD
ENDBRANCH   8  10
BRANCH   8  12
HETATM   12  O   UNK N   1      27.722  17.482   9.458  0.00  0.00    -0.329 OA
HETATM   13  H   UNK N   1      27.148  17.065   8.797  0.00  0.00     0.220 HD
ENDBRANCH   8  12
ENDBRANCH   7   8
ENDBRANCH   3   7
BRANCH   5  14
HETATM   14  O   UNK N   1      31.220  17.396   5.193  0.00  0.00    -0.393 OA
HETATM   15  H   UNK N   1      30.277  17.337   4.971  0.00  0.00     0.210 HD
ENDBRANCH   5  14
BRANCH   6  16
HETATM   16  C   UNK N   1      34.447  17.102   9.451  0.00  0.00     0.175 C 
HETATM   17  O   UNK N   1      35.400  17.514  10.091  0.00  0.00    -0.648 OA
BRANCH  16  18
HETATM   18  O   UNK N   1      33.717  16.076   9.937  0.00  0.00    -0.774 OA
HETATM   19  H   UNK N   1      32.891  16.134  10.377  0.00  0.00     0.167 HD
ENDBRANCH  16  18
ENDBRANCH   6  16
BRANCH   6  20
HETATM   20  O   UNK N   1      34.915  18.808   7.900  0.00  0.00    -0.379 OA
HETATM   21  H   UNK N   1      35.717  19.205   8.275  0.00  0.00     0.211 HD
ENDBRANCH   6  20
BRANCH   4  22
HETATM   22  O   UNK N   1      33.850  16.156   4.726  0.00  0.00    -0.393 OA
HETATM   23  H   UNK N   1      33.607  16.194   3.787  0.00  0.00     0.210 HD
ENDBRANCH   4  22
TORSDOF 9
ENDMDL
MODEL 3
REMARK VINA RESULT:      -5.7      3.217      5.011
REMARK  9 active torsions:
REMARK  status: ('A' for Active; 'I' for Inactive)
REMARK    1  A    between atoms: C_4  and  C_3 
REMARK    2  A    between atoms: P_17  and  C_3 
REMARK    3  A    between atoms: C_5  and  O_9 
REMARK    4  A    between atoms: C_6  and  O_10 
REMARK    5  A    between atoms: C_8  and  C_7 
REMARK    6  A    between atoms: O_12  and  C_7 
REMARK    7  A    between atoms: C_8  and  O_13 
REMARK    8  A    between atoms: P_17  and  O_14 
REMARK    9  A    between atoms: P_17  and  O_15 
ROOT
HETATM    1  C   UNK N   1      33.699  15.912   9.828  0.00  0.00     0.057 C 
HETATM    2  C   UNK N   1      32.939  15.979   7.370  0.00  0.00     0.083 C 
HETATM    3  C   UNK N   1      34.360  14.605   9.382  0.00  0.00     0.031 C 
HETATM    4  C   UNK N   1      32.321  14.655   7.789  0.00  0.00     0.150 C 
HETATM    5  C   UNK N   1      33.383  13.777   8.482  0.00  0.00     0.151 C 
HETATM    6  C   UNK N   1      33.303  16.814   8.620  0.00  0.00     0.145 C 
ENDROOT
BRANCH   3   7
HETATM    7  C   UNK N   1      34.810  13.822  10.621  0.00  0.00     0.132 C 
BRANCH   7   8
HETATM    8  P   UNK N   1      36.302  14.536  11.493  0.00  0.00     0.236 P 
HETATM    9  O   UNK N   1      35.999  14.903  12.969  0.00  0.00    -0.653 OA
BRANCH   8  10
HETATM   10  O   UNK N   1      36.856  16.029  10.805  0.00  0.00    -0.329 OA
HETATM   11  H   UNK N   1      37.327  16.750  11.252  0.00  0.00     0.220 HD
ENDBRANCH   8  10
BRANCH   8  12
HETATM   12  O   UNK N   1      37.682  13.488  11.584  0.00  0.00    -0.329 OA
HETATM   13  H   UNK N   1      37.784  12.601  11.205  0.00  0.00     0.220 HD
ENDBRANCH   8  12
ENDBRANCH   7   8
ENDBRANCH   3   7
BRANCH   5  14
HETATM   14  O   UNK N   1      32.708  12.797   9.217  0.00  0.00    -0.393 OA
HETATM   15  H   UNK N   1      32.876  12.430  10.099  0.00  0.00     0.210 HD
ENDBRANCH   5  14
BRANCH   6  16
HETATM   16  C   UNK N   1      34.397  17.776   8.229  0.00  0.00     0.175 C 
HETATM   17  O   UNK N   1      34.510  18.166   7.079  0.00  0.00    -0.648 OA
BRANCH  16  18
HETATM   18  O   UNK N   1      35.268  18.209   9.164  0.00  0.00    -0.774 OA
HETATM   19  H   UNK N   1      35.614  17.712   9.881  0.00  0.00     0.167 HD
ENDBRANCH  16  18
ENDBRANCH   6  16
BRANCH   6  20
HETATM   20  O   UNK N   1      32.186  17.557   9.005  0.00  0.00    -0.379 OA
HETATM   21  H   UNK N   1      31.381  17.448   9.535  0.00  0.00     0.211 HD
ENDBRANCH   6  20
BRANCH   4  22
HETATM   22  O   UNK N   1      31.775  13.989   6.691  0.00  0.00    -0.393 OA
HETATM   23  H   UNK N   1      30.946  13.496   6.588  0.00  0.00     0.210 HD
ENDBRANCH   4  22
TORSDOF 9
ENDMDL
MODEL 4
REMARK VINA RESULT:      -5.6      3.964      5.634
REMARK  9 active torsions:
REMARK  status: ('A' for Active; 'I' for Inactive)
REMARK    1  A    between atoms: C_4  and  C_3 
REMARK    2  A    between atoms: P_17  and  C_3 
REMARK    3  A    between atoms: C_5  and  O_9 
REMARK    4  A    between atoms: C_6  and  O_10 
REMARK    5  A    between atoms: C_8  and  C_7 
REMARK    6  A    between atoms: O_12  and  C_7 
REMARK    7  A    between atoms: C_8  and  O_13 
REMARK    8  A    between atoms: P_17  and  O_14 
REMARK    9  A    between atoms: P_17  and  O_15 
ROOT
HETATM    1  C   UNK N   1      35.579  13.972   9.045  0.00  0.00     0.057 C 
HETATM    2  C   UNK N   1      36.610  13.826  11.398  0.00  0.00     0.083 C 
HETATM    3  C   UNK N   1      35.022  15.291   9.586  0.00  0.00     0.031 C 
HETATM    4  C   UNK N   1      35.140  13.911  11.773  0.00  0.00     0.150 C 
HETATM    5  C   UNK N   1      34.482  15.100  11.043  0.00  0.00     0.151 C 
HETATM    6  C   UNK N   1      36.758  13.432   9.910  0.00  0.00     0.145 C 
ENDROOT
BRANCH   3   7
HETATM    7  C   UNK N   1      33.940  15.808   8.631  0.00  0.00     0.132 C 
BRANCH   7   8
HETATM    8  P   UNK N   1      34.113  17.610   8.162  0.00  0.00     0.236 P 
HETATM    9  O   UNK N   1      32.790  18.397   8.356  0.00  0.00    -0.653 OA
BRANCH   8  10
HETATM   10  O   UNK N   1      34.493  17.855   6.487  0.00  0.00    -0.329 OA
HETATM   11  H   UNK N   1      35.297  17.584   6.015  0.00  0.00     0.220 HD
ENDBRANCH   8  10
BRANCH   8  12
HETATM   12  O   UNK N   1      35.286  18.507   9.074  0.00  0.00    -0.329 OA
HETATM   13  H   UNK N   1      36.109  18.182   9.471  0.00  0.00     0.220 HD
ENDBRANCH   8  12
ENDBRANCH   7   8
ENDBRANCH   3   7
BRANCH   5  14
HETATM   14  O   UNK N   1      33.098  14.893  11.059  0.00  0.00    -0.393 OA
HETATM   15  H   UNK N   1      32.376  15.363  10.613  0.00  0.00     0.210 HD
ENDBRANCH   5  14
BRANCH   6  16
HETATM   16  C   UNK N   1      38.102  13.922   9.434  0.00  0.00     0.175 C 
HETATM   17  O   UNK N   1      38.700  13.348   8.539  0.00  0.00    -0.648 OA
BRANCH  16  18
HETATM   18  O   UNK N   1      38.657  15.009  10.010  0.00  0.00    -0.774 OA
HETATM   19  H   UNK N   1      39.570  15.161  10.158  0.00  0.00     0.167 HD
ENDBRANCH  16  18
ENDBRANCH   6  16
BRANCH   6  20
HETATM   20  O   UNK N   1      36.742  12.040   9.811  0.00  0.00    -0.379 OA
HETATM   21  H   UNK N   1      37.363  11.296   9.850  0.00  0.00     0.211 HD
ENDBRANCH   6  20
BRANCH   4  22
HETATM   22  O   UNK N   1      34.982  14.035  13.153  0.00  0.00    -0.393 OA
HETATM   23  H   UNK N   1      35.245  14.738  13.768  0.00  0.00     0.210 HD
ENDBRANCH   4  22
TORSDOF 9
ENDMDL
MODEL 5
REMARK VINA RESULT:      -5.5      2.172      3.707
REMARK  9 active torsions:
REMARK  status: ('A' for Active; 'I' for Inactive)
REMARK    1  A    between atoms: C_4  and  C_3 
REMARK    2  A    between atoms: P_17  and  C_3 
REMARK    3  A    between atoms: C_5  and  O_9 
REMARK    4  A    between atoms: C_6  and  O_10 
REMARK    5  A    between atoms: C_8  and  C_7 
REMARK    6  A    between atoms: O_12  and  C_7 
REMARK    7  A    between atoms: C_8  and  O_13 
REMARK    8  A    between atoms: P_17  and  O_14 
REMARK    9  A    between atoms: P_17  and  O_15 
ROOT
HETATM    1  C   UNK N   1      31.316  16.046   6.010  0.00  0.00     0.057 C 
HETATM    2  C   UNK N   1      33.323  17.527   5.378  0.00  0.00     0.083 C 
HETATM    3  C   UNK N   1      30.971  17.239   6.906  0.00  0.00     0.031 C 
HETATM    4  C   UNK N   1      33.553  17.418   6.876  0.00  0.00     0.150 C 
HETATM    5  C   UNK N   1      32.254  17.766   7.632  0.00  0.00     0.151 C 
HETATM    6  C   UNK N   1      32.352  16.419   4.907  0.00  0.00     0.145 C 
ENDROOT
BRANCH   3   7
HETATM    7  C   UNK N   1      29.877  16.822   7.896  0.00  0.00     0.132 C 
BRANCH   7   8
HETATM    8  P   UNK N   1      28.934  18.246   8.657  0.00  0.00     0.236 P 
HETATM    9  O   UNK N   1      29.754  18.974   9.754  0.00  0.00    -0.653 OA
BRANCH   8  10
HETATM   10  O   UNK N   1      27.489  17.755   9.484  0.00  0.00    -0.329 OA
HETATM   11  H   UNK N   1      27.293  17.831  10.431  0.00  0.00     0.220 HD
ENDBRANCH   8  10
BRANCH   8  12
HETATM   12  O   UNK N   1      28.472  19.506   7.557  0.00  0.00    -0.329 OA
HETATM   13  H   UNK N   1      28.726  20.442   7.580  0.00  0.00     0.220 HD
ENDBRANCH   8  12
ENDBRANCH   7   8
ENDBRANCH   3   7
BRANCH   5  14
HETATM   14  O   UNK N   1      32.366  17.250   8.927  0.00  0.00    -0.393 OA
HETATM   15  H   UNK N   1      32.159  16.373   9.286  0.00  0.00     0.210 HD
ENDBRANCH   5  14
BRANCH   6  16
HETATM   16  C   UNK N   1      31.700  16.888   3.631  0.00  0.00     0.175 C 
HETATM   17  O   UNK N   1      32.304  16.866   2.571  0.00  0.00    -0.648 OA
BRANCH  16  18
HETATM   18  O   UNK N   1      30.432  17.347   3.661  0.00  0.00    -0.774 OA
HETATM   19  H   UNK N   1      30.018  17.894   3.022  0.00  0.00     0.167 HD
ENDBRANCH  16  18
ENDBRANCH   6  16
BRANCH   6  20
HETATM   20  O   UNK N   1      33.088  15.268   4.623  0.00  0.00    -0.379 OA
HETATM   21  H   UNK N   1      33.609  14.598   5.092  0.00  0.00     0.211 HD
ENDBRANCH   6  20
BRANCH   4  22
HETATM   22  O   UNK N   1      34.595  18.250   7.284  0.00  0.00    -0.393 OA
HETATM   23  H   UNK N   1      35.086  18.942   6.812  0.00  0.00     0.210 HD
ENDBRANCH   4  22
TORSDOF 9
ENDMDL
MODEL 6
REMARK VINA RESULT:      -5.4      3.694      5.935
REMARK  9 active torsions:
REMARK  status: ('A' for Active; 'I' for Inactive)
REMARK    1  A    between atoms: C_4  and  C_3 
REMARK    2  A    between atoms: P_17  and  C_3 
REMARK    3  A    between atoms: C_5  and  O_9 
REMARK    4  A    between atoms: C_6  and  O_10 
REMARK    5  A    between atoms: C_8  and  C_7 
REMARK    6  A    between atoms: O_12  and  C_7 
REMARK    7  A    between atoms: C_8  and  O_13 
REMARK    8  A    between atoms: P_17  and  O_14 
REMARK    9  A    between atoms: P_17  and  O_15 
ROOT
HETATM    1  C   UNK N   1      34.243  14.387  10.516  0.00  0.00     0.057 C 
HETATM    2  C   UNK N   1      36.118  12.713   9.964  0.00  0.00     0.083 C 
HETATM    3  C   UNK N   1      35.122  15.338   9.697  0.00  0.00     0.031 C 
HETATM    4  C   UNK N   1      36.933  13.774  10.684  0.00  0.00     0.150 C 
HETATM    5  C   UNK N   1      36.628  15.163  10.088  0.00  0.00     0.151 C 
HETATM    6  C   UNK N   1      34.614  12.892  10.279  0.00  0.00     0.145 C 
ENDROOT
BRANCH   3   7
HETATM    7  C   UNK N   1      34.634  16.776   9.905  0.00  0.00     0.132 C 
BRANCH   7   8
HETATM    8  P   UNK N   1      34.294  17.718   8.325  0.00  0.00     0.236 P 
HETATM    9  O   UNK N   1      35.032  19.081   8.284  0.00  0.00    -0.653 OA
BRANCH   8  10
HETATM   10  O   UNK N   1      32.625  18.148   8.122  0.00  0.00    -0.329 OA
HETATM   11  H   UNK N   1      32.050  17.953   7.366  0.00  0.00     0.220 HD
ENDBRANCH   8  10
BRANCH   8  12
HETATM   12  O   UNK N   1      34.782  16.919   6.864  0.00  0.00    -0.329 OA
HETATM   13  H   UNK N   1      34.282  16.274   6.340  0.00  0.00     0.220 HD
ENDBRANCH   8  12
ENDBRANCH   7   8
ENDBRANCH   3   7
BRANCH   5  14
HETATM   14  O   UNK N   1      37.035  16.123  11.021  0.00  0.00    -0.393 OA
HETATM   15  H   UNK N   1      37.883  16.254  11.475  0.00  0.00     0.210 HD
ENDBRANCH   5  14
BRANCH   6  16
HETATM   16  C   UNK N   1      33.829  12.269   9.152  0.00  0.00     0.175 C 
HETATM   17  O   UNK N   1      34.332  12.096   8.055  0.00  0.00    -0.648 OA
BRANCH  16  18
HETATM   18  O   UNK N   1      32.546  11.903   9.357  0.00  0.00    -0.774 OA
HETATM   19  H   UNK N   1      32.241  11.226   9.930  0.00  0.00     0.167 HD
ENDBRANCH  16  18
ENDBRANCH   6  16
BRANCH   6  20
HETATM   20  O   UNK N   1      34.316  12.200  11.453  0.00  0.00    -0.379 OA
HETATM   21  H   UNK N   1      34.683  12.072  12.341  0.00  0.00     0.211 HD
ENDBRANCH   6  20
BRANCH   4  22
HETATM   22  O   UNK N   1      38.297  13.496  10.605  0.00  0.00    -0.393 OA
HETATM   23  H   UNK N   1      38.873  12.947  11.161  0.00  0.00     0.210 HD
ENDBRANCH   4  22
TORSDOF 9
ENDMDL
MODEL 7
REMARK VINA RESULT:      -5.3      5.481      7.068
REMARK  9 active torsions:
REMARK  status: ('A' for Active; 'I' for Inactive)
REMARK    1  A    between atoms: C_4  and  C_3 
REMARK    2  A    between atoms: P_17  and  C_3 
REMARK    3  A    between atoms: C_5  and  O_9 
REMARK    4  A    between atoms: C_6  and  O_10 
REMARK    5  A    between atoms: C_8  and  C_7 
REMARK    6  A    between atoms: O_12  and  C_7 
REMARK    7  A    between atoms: C_8  and  O_13 
REMARK    8  A    between atoms: P_17  and  O_14 
REMARK    9  A    between atoms: P_17  and  O_15 
ROOT
HETATM    1  C   UNK N   1      36.183  14.797  13.019  0.00  0.00     0.057 C 
HETATM    2  C   UNK N   1      36.712  12.337  12.482  0.00  0.00     0.083 C 
HETATM    3  C   UNK N   1      35.795  14.831  11.538  0.00  0.00     0.031 C 
HETATM    4  C   UNK N   1      37.639  13.016  11.488  0.00  0.00     0.150 C 
HETATM    5  C   UNK N   1      36.856  14.069  10.677  0.00  0.00     0.151 C 
HETATM    6  C   UNK N   1      36.272  13.343  13.572  0.00  0.00     0.145 C 
ENDROOT
BRANCH   3   7
HETATM    7  C   UNK N   1      35.629  16.289  11.096  0.00  0.00     0.132 C 
BRANCH   7   8
HETATM    8  P   UNK N   1      34.668  16.517   9.509  0.00  0.00     0.236 P 
HETATM    9  O   UNK N   1      34.729  17.977   8.989  0.00  0.00    -0.653 OA
BRANCH   8  10
HETATM   10  O   UNK N   1      32.967  16.214   9.682  0.00  0.00    -0.329 OA
HETATM   11  H   UNK N   1      32.239  16.629   9.194  0.00  0.00     0.220 HD
ENDBRANCH   8  10
BRANCH   8  12
HETATM   12  O   UNK N   1      35.209  15.558   8.167  0.00  0.00    -0.329 OA
HETATM   13  H   UNK N   1      34.695  15.263   7.399  0.00  0.00     0.220 HD
ENDBRANCH   8  12
ENDBRANCH   7   8
ENDBRANCH   3   7
BRANCH   5  14
HETATM   14  O   UNK N   1      37.788  14.945  10.110  0.00  0.00    -0.393 OA
HETATM   15  H   UNK N   1      38.017  15.863  10.326  0.00  0.00     0.210 HD
ENDBRANCH   5  14
BRANCH   6  16
HETATM   16  C   UNK N   1      34.965  12.858  14.147  0.00  0.00     0.175 C 
HETATM   17  O   UNK N   1      34.616  13.175  15.272  0.00  0.00    -0.648 OA
BRANCH  16  18
HETATM   18  O   UNK N   1      34.170  12.055  13.409  0.00  0.00    -0.774 OA
HETATM   19  H   UNK N   1      33.244  11.943  13.503  0.00  0.00     0.167 HD
ENDBRANCH  16  18
ENDBRANCH   6  16
BRANCH   6  20
HETATM   20  O   UNK N   1      37.223  13.344  14.592  0.00  0.00    -0.379 OA
HETATM   21  H   UNK N   1      37.797  13.972  15.058  0.00  0.00     0.211 HD
ENDBRANCH   6  20
BRANCH   4  22
HETATM   22  O   UNK N   1      38.230  12.082  10.638  0.00  0.00    -0.393 OA
HETATM   23  H   UNK N   1      39.120  11.695  10.629  0.00  0.00     0.210 HD
ENDBRANCH   4  22
TORSDOF 9
ENDMDL
MODEL 8
REMARK VINA RESULT:      -5.2      2.575      4.464
REMARK  9 active torsions:
REMARK  status: ('A' for Active; 'I' for Inactive)
REMARK    1  A    between atoms: C_4  and  C_3 
REMARK    2  A    between atoms: P_17  and  C_3 
REMARK    3  A    between atoms: C_5  and  O_9 
REMARK    4  A    between atoms: C_6  and  O_10 
REMARK    5  A    between atoms: C_8  and  C_7 
REMARK    6  A    between atoms: O_12  and  C_7 
REMARK    7  A    between atoms: C_8  and  O_13 
REMARK    8  A    between atoms: P_17  and  O_14 
REMARK    9  A    between atoms: P_17  and  O_15 
ROOT
HETATM    1  C   UNK N   1      32.341  16.306   7.199  0.00  0.00     0.057 C 
HETATM    2  C   UNK N   1      31.889  18.461   8.531  0.00  0.00     0.083 C 
HETATM    3  C   UNK N   1      31.280  16.896   6.266  0.00  0.00     0.031 C 
HETATM    4  C   UNK N   1      30.490  17.868   8.531  0.00  0.00     0.150 C 
HETATM    5  C   UNK N   1      30.087  17.479   7.093  0.00  0.00     0.151 C 
HETATM    6  C   UNK N   1      32.928  17.373   8.172  0.00  0.00     0.145 C 
ENDROOT
BRANCH   3   7
HETATM    7  C   UNK N   1      30.826  15.816   5.277  0.00  0.00     0.132 C 
BRANCH   7   8
HETATM    8  P   UNK N   1      30.287  16.466   3.609  0.00  0.00     0.236 P 
HETATM    9  O   UNK N   1      29.766  15.339   2.679  0.00  0.00    -0.653 OA
BRANCH   8  10
HETATM   10  O   UNK N   1      31.576  17.185   2.697  0.00  0.00    -0.329 OA
HETATM   11  H   UNK N   1      32.414  16.776   2.430  0.00  0.00     0.220 HD
ENDBRANCH   8  10
BRANCH   8  12
HETATM   12  O   UNK N   1      28.996  17.626   3.644  0.00  0.00    -0.329 OA
HETATM   13  H   UNK N   1      28.577  18.075   2.893  0.00  0.00     0.220 HD
ENDBRANCH   8  12
ENDBRANCH   7   8
ENDBRANCH   3   7
BRANCH   5  14
HETATM   14  O   UNK N   1      29.026  16.571   7.182  0.00  0.00    -0.393 OA
HETATM   15  H   UNK N   1      28.132  16.594   6.805  0.00  0.00     0.210 HD
ENDBRANCH   5  14
BRANCH   6  16
HETATM   16  C   UNK N   1      34.145  18.065   7.611  0.00  0.00     0.175 C 
HETATM   17  O   UNK N   1      34.564  17.796   6.498  0.00  0.00    -0.648 OA
BRANCH  16  18
HETATM   18  O   UNK N   1      34.786  18.990   8.355  0.00  0.00    -0.774 OA
HETATM   19  H   UNK N   1      34.717  19.922   8.273  0.00  0.00     0.167 HD
ENDBRANCH  16  18
ENDBRANCH   6  16
BRANCH   6  20
HETATM   20  O   UNK N   1      33.304  16.708   9.339  0.00  0.00    -0.379 OA
HETATM   21  H   UNK N   1      33.930  16.024   9.623  0.00  0.00     0.211 HD
ENDBRANCH   6  20
BRANCH   4  22
HETATM   22  O   UNK N   1      29.567  18.761   9.074  0.00  0.00    -0.393 OA
HETATM   23  H   UNK N   1      28.762  19.156   8.703  0.00  0.00     0.210 HD
ENDBRANCH   4  22
TORSDOF 9
ENDMDL
MODEL 9
REMARK VINA RESULT:      -5.2     13.536     14.411
REMARK  9 active torsions:
REMARK  status: ('A' for Active; 'I' for Inactive)
REMARK    1  A    between atoms: C_4  and  C_3 
REMARK    2  A    between atoms: P_17  and  C_3 
REMARK    3  A    between atoms: C_5  and  O_9 
REMARK    4  A    between atoms: C_6  and  O_10 
REMARK    5  A    between atoms: C_8  and  C_7 
REMARK    6  A    between atoms: O_12  and  C_7 
REMARK    7  A    between atoms: C_8  and  O_13 
REMARK    8  A    between atoms: P_17  and  O_14 
REMARK    9  A    between atoms: P_17  and  O_15 
ROOT
HETATM    1  C   UNK N   1      30.514  23.840  -4.450  0.00  0.00     0.057 C 
HETATM    2  C   UNK N   1      30.670  21.288  -4.739  0.00  0.00     0.083 C 
HETATM    3  C   UNK N   1      29.018  23.571  -4.633  0.00  0.00     0.031 C 
HETATM    4  C   UNK N   1      30.008  21.650  -6.057  0.00  0.00     0.150 C 
HETATM    5  C   UNK N   1      28.785  22.553  -5.799  0.00  0.00     0.151 C 
HETATM    6  C   UNK N   1      31.307  22.545  -4.101  0.00  0.00     0.145 C 
ENDROOT
BRANCH   3   7
HETATM    7  C   UNK N   1      28.295  24.901  -4.873  0.00  0.00     0.132 C 
BRANCH   7   8
HETATM    8  P   UNK N   1      26.581  24.999  -4.132  0.00  0.00     0.236 P 
HETATM    9  O   UNK N   1      26.381  23.984  -2.977  0.00  0.00    -0.653 OA
BRANCH   8  10
HETATM   10  O   UNK N   1      25.319  24.597  -5.254  0.00  0.00    -0.329 OA
HETATM   11  H   UNK N   1      25.094  25.050  -6.081  0.00  0.00     0.220 HD
ENDBRANCH   8  10
BRANCH   8  12
HETATM   12  O   UNK N   1      26.157  26.532  -3.437  0.00  0.00    -0.329 OA
HETATM   13  H   UNK N   1      26.084  27.390  -3.884  0.00  0.00     0.220 HD
ENDBRANCH   8  12
ENDBRANCH   7   8
ENDBRANCH   3   7
BRANCH   5  14
HETATM   14  O   UNK N   1      28.476  23.202  -6.999  0.00  0.00    -0.393 OA
HETATM   15  H   UNK N   1      28.446  22.877  -7.913  0.00  0.00     0.210 HD
ENDBRANCH   5  14
BRANCH   6  16
HETATM   16  C   UNK N   1      31.408  22.307  -2.615  0.00  0.00     0.175 C 
HETATM   17  O   UNK N   1      30.742  22.958  -1.827  0.00  0.00    -0.648 OA
BRANCH  16  18
HETATM   18  O   UNK N   1      32.253  21.365  -2.147  0.00  0.00    -0.774 OA
HETATM   19  H   UNK N   1      32.465  20.548  -2.557  0.00  0.00     0.167 HD
ENDBRANCH  16  18
ENDBRANCH   6  16
BRANCH   6  20
HETATM   20  O   UNK N   1      32.598  22.700  -4.606  0.00  0.00    -0.379 OA
HETATM   21  H   UNK N   1      33.085  23.289  -5.203  0.00  0.00     0.211 HD
ENDBRANCH   6  20
BRANCH   4  22
HETATM   22  O   UNK N   1      29.633  20.505  -6.760  0.00  0.00    -0.393 OA
HETATM   23  H   UNK N   1      30.124  19.943  -7.380  0.00  0.00     0.210 HD
ENDBRANCH   4  22
TORSDOF 9
ENDMDL
