MODEL 1
REMARK VINA RESULT:      -5.5      0.000      0.000
REMARK  0 active torsions:
REMARK  status: ('A' for Active; 'I' for Inactive)
REMARK       I    between atoms: C_10  and  N_11 
ROOT
HETATM    1  C   UNK N   1      36.518  13.586  14.102  0.00  0.00     0.098 C 
HETATM    2  C   UNK N   1      35.824  14.213  12.947  0.00  0.00     0.122 A 
HETATM    3  N   UNK N   1      36.201  15.390  12.376  0.00  0.00    -0.332 N 
ATOM      4  HN  UNK N   1      36.976  16.001  12.631  1.00  0.00     0.168 HD
HETATM    5  C   UNK N   1      35.297  15.549  11.391  0.00  0.00     0.155 A 
HETATM    6  C   UNK N   1      34.441  14.507  11.399  0.00  0.00     0.196 A 
HETATM    7  O   UNK N   1      34.766  13.686  12.356  0.00  0.00    -0.278 OA
HETATM    8  N   UNK N   1      33.419  14.389  10.521  0.00  0.00    -0.168 N 
ATOM      9  HN  UNK N   1      32.789  13.588  10.553  1.00  0.00     0.186 HD
HETATM   10  C   UNK N   1      33.256  15.375   9.588  0.00  0.00     0.680 A 
HETATM   11  N   UNK N   1      32.203  15.284   8.658  0.00  0.00    -0.234 N 
HETATM   12  N   UNK N   1      34.113  16.451   9.553  0.00  0.00    -0.154 N 
HETATM   13  C   UNK N   1      35.152  16.559  10.455  0.00  0.00     0.290 A 
HETATM   14  O   UNK N   1      35.908  17.512  10.423  0.00  0.00    -0.265 OA
HETATM   15  H   UNK N   1      32.080  15.990   7.983  0.00  0.00     0.174 HD
HETATM   16  H   UNK N   1      31.590  14.514   8.683  0.00  0.00     0.174 HD
HETATM   17  H   UNK N   1      33.983  17.153   8.875  0.00  0.00     0.187 HD
ENDROOT
TORSDOF 0
ENDMDL
MODEL 2
REMARK VINA RESULT:      -5.2      4.034      6.072
REMARK  0 active torsions:
REMARK  status: ('A' for Active; 'I' for Inactive)
REMARK       I    between atoms: C_10  and  N_11 
ROOT
HETATM    1  C   UNK N   1      28.847  16.588   6.338  0.00  0.00     0.098 C 
HETATM    2  C   UNK N   1      30.230  16.796   6.841  0.00  0.00     0.122 A 
HETATM    3  N   UNK N   1      31.279  17.172   6.059  0.00  0.00    -0.332 N 
ATOM      4  HN  UNK N   1      31.289  17.362   5.057  1.00  0.00     0.168 HD
HETATM    5  C   UNK N   1      32.299  17.231   6.934  0.00  0.00     0.155 A 
HETATM    6  C   UNK N   1      31.852  16.903   8.164  0.00  0.00     0.196 A 
HETATM    7  O   UNK N   1      30.580  16.636   8.105  0.00  0.00    -0.278 OA
HETATM    8  N   UNK N   1      32.653  16.874   9.253  0.00  0.00    -0.168 N 
ATOM      9  HN  UNK N   1      32.284  16.621  10.170  1.00  0.00     0.186 HD
HETATM   10  C   UNK N   1      33.973  17.193   9.090  0.00  0.00     0.680 A 
HETATM   11  N   UNK N   1      34.835  17.173  10.203  0.00  0.00    -0.234 N 
HETATM   12  N   UNK N   1      34.460  17.533   7.849  0.00  0.00    -0.154 N 
HETATM   13  C   UNK N   1      33.632  17.558   6.745  0.00  0.00     0.290 A 
HETATM   14  O   UNK N   1      34.065  17.859   5.648  0.00  0.00    -0.265 OA
HETATM   15  H   UNK N   1      35.785  17.402  10.093  0.00  0.00     0.174 HD
HETATM   16  H   UNK N   1      34.486  16.930  11.091  0.00  0.00     0.174 HD
HETATM   17  H   UNK N   1      35.413  17.760   7.747  0.00  0.00     0.187 HD
ENDROOT
TORSDOF 0
ENDMDL
MODEL 3
REMARK VINA RESULT:      -5.2      1.625      4.518
REMARK  0 active torsions:
REMARK  status: ('A' for Active; 'I' for Inactive)
REMARK       I    between atoms: C_10  and  N_11 
ROOT
HETATM    1  C   UNK N   1      34.307  18.343   8.140  0.00  0.00     0.098 C 
HETATM    2  C   UNK N   1      34.633  17.242   9.083  0.00  0.00     0.122 A 
HETATM    3  N   UNK N   1      34.160  15.970   8.966  0.00  0.00    -0.332 N 
ATOM      4  HN  UNK N   1      33.541  15.586   8.253  1.00  0.00     0.168 HD
HETATM    5  C   UNK N   1      34.712  15.346  10.023  0.00  0.00     0.155 A 
HETATM    6  C   UNK N   1      35.468  16.224  10.715  0.00  0.00     0.196 A 
HETATM    7  O   UNK N   1      35.418  17.389  10.136  0.00  0.00    -0.278 OA
HETATM    8  N   UNK N   1      36.150  15.885  11.832  0.00  0.00    -0.168 N 
ATOM      9  HN  UNK N   1      36.713  16.572  12.332  1.00  0.00     0.186 HD
HETATM   10  C   UNK N   1      36.063  14.593  12.272  0.00  0.00     0.680 A 
HETATM   11  N   UNK N   1      36.761  14.206  13.432  0.00  0.00    -0.234 N 
HETATM   12  N   UNK N   1      35.300  13.674  11.589  0.00  0.00    -0.154 N 
HETATM   13  C   UNK N   1      34.609  14.033  10.450  0.00  0.00     0.290 A 
HETATM   14  O   UNK N   1      33.935  13.218   9.847  0.00  0.00    -0.265 OA
HETATM   15  H   UNK N   1      36.703  13.278  13.754  0.00  0.00     0.174 HD
HETATM   16  H   UNK N   1      37.306  14.864  13.920  0.00  0.00     0.174 HD
HETATM   17  H   UNK N   1      35.247  12.747  11.918  0.00  0.00     0.187 HD
ENDROOT
TORSDOF 0
ENDMDL
MODEL 4
REMARK VINA RESULT:      -5.1      3.194      5.459
REMARK  0 active torsions:
REMARK  status: ('A' for Active; 'I' for Inactive)
REMARK       I    between atoms: C_10  and  N_11 
ROOT
HETATM    1  C   UNK N   1      32.316  17.089   4.308  0.00  0.00     0.098 C 
HETATM    2  C   UNK N   1      32.845  17.012   5.695  0.00  0.00     0.122 A 
HETATM    3  N   UNK N   1      33.645  17.957   6.262  0.00  0.00    -0.332 N 
ATOM      4  HN  UNK N   1      33.993  18.823   5.852  1.00  0.00     0.168 HD
HETATM    5  C   UNK N   1      33.862  17.465   7.495  0.00  0.00     0.155 A 
HETATM    6  C   UNK N   1      33.214  16.290   7.628  0.00  0.00     0.196 A 
HETATM    7  O   UNK N   1      32.589  16.012   6.520  0.00  0.00    -0.278 OA
HETATM    8  N   UNK N   1      33.247  15.557   8.764  0.00  0.00    -0.168 N 
ATOM      9  HN  UNK N   1      32.746  14.671   8.832  1.00  0.00     0.186 HD
HETATM   10  C   UNK N   1      33.972  16.038   9.819  0.00  0.00     0.680 A 
HETATM   11  N   UNK N   1      34.028  15.300  11.017  0.00  0.00    -0.234 N 
HETATM   12  N   UNK N   1      34.644  17.234   9.715  0.00  0.00    -0.154 N 
HETATM   13  C   UNK N   1      34.602  17.972   8.550  0.00  0.00     0.290 A 
HETATM   14  O   UNK N   1      35.198  19.030   8.461  0.00  0.00    -0.265 OA
HETATM   15  H   UNK N   1      34.548  15.640  11.780  0.00  0.00     0.174 HD
HETATM   16  H   UNK N   1      33.547  14.445  11.090  0.00  0.00     0.174 HD
HETATM   17  H   UNK N   1      35.162  17.568  10.484  0.00  0.00     0.187 HD
ENDROOT
TORSDOF 0
ENDMDL
MODEL 5
REMARK VINA RESULT:      -5.1     15.212     16.826
REMARK  0 active torsions:
REMARK  status: ('A' for Active; 'I' for Inactive)
REMARK       I    between atoms: C_10  and  N_11 
ROOT
HETATM    1  C   UNK N   1      21.300  17.767   6.588  0.00  0.00     0.098 C 
HETATM    2  C   UNK N   1      21.067  18.206   5.187  0.00  0.00     0.122 A 
HETATM    3  N   UNK N   1      20.801  17.359   4.155  0.00  0.00    -0.332 N 
ATOM      4  HN  UNK N   1      20.722  16.343   4.171  1.00  0.00     0.168 HD
HETATM    5  C   UNK N   1      20.668  18.194   3.108  0.00  0.00     0.155 A 
HETATM    6  C   UNK N   1      20.850  19.464   3.525  0.00  0.00     0.196 A 
HETATM    7  O   UNK N   1      21.096  19.470   4.803  0.00  0.00    -0.278 OA
HETATM    8  N   UNK N   1      20.777  20.528   2.693  0.00  0.00    -0.168 N 
ATOM      9  HN  UNK N   1      20.920  21.476   3.039  1.00  0.00     0.186 HD
HETATM   10  C   UNK N   1      20.505  20.295   1.373  0.00  0.00     0.680 A 
HETATM   11  N   UNK N   1      20.421  21.379   0.479  0.00  0.00    -0.234 N 
HETATM   12  N   UNK N   1      20.313  19.011   0.917  0.00  0.00    -0.154 N 
HETATM   13  C   UNK N   1      20.391  17.934   1.777  0.00  0.00     0.290 A 
HETATM   14  O   UNK N   1      20.222  16.800   1.370  0.00  0.00    -0.265 OA
HETATM   15  H   UNK N   1      20.226  21.219  -0.472  0.00  0.00     0.174 HD
HETATM   16  H   UNK N   1      20.558  22.298   0.806  0.00  0.00     0.174 HD
HETATM   17  H   UNK N   1      20.118  18.859  -0.036  0.00  0.00     0.187 HD
ENDROOT
TORSDOF 0
ENDMDL
MODEL 6
REMARK VINA RESULT:      -5.1      3.331      6.001
REMARK  0 active torsions:
REMARK  status: ('A' for Active; 'I' for Inactive)
REMARK       I    between atoms: C_10  and  N_11 
ROOT
HETATM    1  C   UNK N   1      32.961  17.657   4.048  0.00  0.00     0.098 C 
HETATM    2  C   UNK N   1      33.208  17.294   5.468  0.00  0.00     0.122 A 
HETATM    3  N   UNK N   1      32.573  16.282   6.120  0.00  0.00    -0.332 N 
ATOM      4  HN  UNK N   1      31.865  15.642   5.763  1.00  0.00     0.168 HD
HETATM    5  C   UNK N   1      33.112  16.334   7.352  0.00  0.00     0.155 A 
HETATM    6  C   UNK N   1      34.016  17.334   7.402  0.00  0.00     0.196 A 
HETATM    7  O   UNK N   1      34.074  17.923   6.243  0.00  0.00    -0.278 OA
HETATM    8  N   UNK N   1      34.722  17.630   8.517  0.00  0.00    -0.168 N 
ATOM      9  HN  UNK N   1      35.399  18.393   8.522  1.00  0.00     0.186 HD
HETATM   10  C   UNK N   1      34.504  16.877   9.636  0.00  0.00     0.680 A 
HETATM   11  N   UNK N   1      35.223  17.158  10.814  0.00  0.00    -0.234 N 
HETATM   12  N   UNK N   1      33.588  15.849   9.618  0.00  0.00    -0.154 N 
HETATM   13  C   UNK N   1      32.874  15.558   8.474  0.00  0.00     0.290 A 
HETATM   14  O   UNK N   1      32.064  14.649   8.461  0.00  0.00    -0.265 OA
HETATM   15  H   UNK N   1      35.070  16.620  11.623  0.00  0.00     0.174 HD
HETATM   16  H   UNK N   1      35.877  17.892  10.827  0.00  0.00     0.174 HD
HETATM   17  H   UNK N   1      33.442  15.315  10.432  0.00  0.00     0.187 HD
ENDROOT
TORSDOF 0
ENDMDL
MODEL 7
REMARK VINA RESULT:      -4.8      3.237      4.411
REMARK  0 active torsions:
REMARK  status: ('A' for Active; 'I' for Inactive)
REMARK       I    between atoms: C_10  and  N_11 
ROOT
HETATM    1  C   UNK N   1      34.447  10.290  15.919  0.00  0.00     0.098 C 
HETATM    2  C   UNK N   1      34.990  11.516  15.280  0.00  0.00     0.122 A 
HETATM    3  N   UNK N   1      35.834  12.389  15.895  0.00  0.00    -0.332 N 
ATOM      4  HN  UNK N   1      36.211  12.349  16.841  1.00  0.00     0.168 HD
HETATM    5  C   UNK N   1      36.048  13.319  14.946  0.00  0.00     0.155 A 
HETATM    6  C   UNK N   1      35.356  12.991  13.835  0.00  0.00     0.196 A 
HETATM    7  O   UNK N   1      34.706  11.882  14.042  0.00  0.00    -0.278 OA
HETATM    8  N   UNK N   1      35.375  13.741  12.710  0.00  0.00    -0.168 N 
ATOM      9  HN  UNK N   1      34.840  13.465  11.887  1.00  0.00     0.186 HD
HETATM   10  C   UNK N   1      36.132  14.879  12.708  0.00  0.00     0.680 A 
HETATM   11  N   UNK N   1      36.174  15.683  11.553  0.00  0.00    -0.234 N 
HETATM   12  N   UNK N   1      36.849  15.242  13.825  0.00  0.00    -0.154 N 
HETATM   13  C   UNK N   1      36.821  14.467  14.967  0.00  0.00     0.290 A 
HETATM   14  O   UNK N   1      37.457  14.790  15.953  0.00  0.00    -0.265 OA
HETATM   15  H   UNK N   1      36.716  16.504  11.544  0.00  0.00     0.174 HD
HETATM   16  H   UNK N   1      35.660  15.424  10.754  0.00  0.00     0.174 HD
HETATM   17  H   UNK N   1      37.390  16.065  13.808  0.00  0.00     0.187 HD
ENDROOT
TORSDOF 0
ENDMDL
MODEL 8
REMARK VINA RESULT:      -4.8     19.820     21.598
REMARK  0 active torsions:
REMARK  status: ('A' for Active; 'I' for Inactive)
REMARK       I    between atoms: C_10  and  N_11 
ROOT
HETATM    1  C   UNK N   1      25.661  23.632  -8.205  0.00  0.00     0.098 C 
HETATM    2  C   UNK N   1      25.788  24.475  -6.988  0.00  0.00     0.122 A 
HETATM    3  N   UNK N   1      26.132  23.998  -5.760  0.00  0.00    -0.332 N 
ATOM      4  HN  UNK N   1      26.347  23.039  -5.488  1.00  0.00     0.168 HD
HETATM    5  C   UNK N   1      26.119  25.104  -4.993  0.00  0.00     0.155 A 
HETATM    6  C   UNK N   1      25.781  26.168  -5.751  0.00  0.00     0.196 A 
HETATM    7  O   UNK N   1      25.578  25.780  -6.977  0.00  0.00    -0.278 OA
HETATM    8  N   UNK N   1      25.685  27.422  -5.254  0.00  0.00    -0.168 N 
ATOM      9  HN  UNK N   1      25.428  28.206  -5.854  1.00  0.00     0.186 HD
HETATM   10  C   UNK N   1      25.944  27.610  -3.925  0.00  0.00     0.680 A 
HETATM   11  N   UNK N   1      25.853  28.903  -3.375  0.00  0.00    -0.234 N 
HETATM   12  N   UNK N   1      26.290  26.545  -3.125  0.00  0.00    -0.154 N 
HETATM   13  C   UNK N   1      26.385  25.270  -3.645  0.00  0.00     0.290 A 
HETATM   14  O   UNK N   1      26.692  24.330  -2.935  0.00  0.00    -0.265 OA
HETATM   15  H   UNK N   1      26.037  29.045  -2.419  0.00  0.00     0.174 HD
HETATM   16  H   UNK N   1      25.605  29.664  -3.948  0.00  0.00     0.174 HD
HETATM   17  H   UNK N   1      26.474  26.695  -2.169  0.00  0.00     0.187 HD
ENDROOT
TORSDOF 0
ENDMDL
MODEL 9
REMARK VINA RESULT:      -4.7     13.583     15.529
REMARK  0 active torsions:
REMARK  status: ('A' for Active; 'I' for Inactive)
REMARK       I    between atoms: C_10  and  N_11 
ROOT
HETATM    1  C   UNK N   1      24.705  16.624   4.809  0.00  0.00     0.098 C 
HETATM    2  C   UNK N   1      23.557  17.385   4.254  0.00  0.00     0.122 A 
HETATM    3  N   UNK N   1      23.612  18.697   3.892  0.00  0.00    -0.332 N 
ATOM      4  HN  UNK N   1      24.405  19.336   3.939  1.00  0.00     0.168 HD
HETATM    5  C   UNK N   1      22.362  18.941   3.456  0.00  0.00     0.155 A 
HETATM    6  C   UNK N   1      21.624  17.817   3.564  0.00  0.00     0.196 A 
HETATM    7  O   UNK N   1      22.360  16.861   4.054  0.00  0.00    -0.278 OA
HETATM    8  N   UNK N   1      20.323  17.755   3.201  0.00  0.00    -0.168 N 
ATOM      9  HN  UNK N   1      19.793  16.889   3.295  1.00  0.00     0.186 HD
HETATM   10  C   UNK N   1      19.739  18.887   2.703  0.00  0.00     0.680 A 
HETATM   11  N   UNK N   1      18.386  18.857   2.316  0.00  0.00    -0.234 N 
HETATM   12  N   UNK N   1      20.465  20.049   2.580  0.00  0.00    -0.154 N 
HETATM   13  C   UNK N   1      21.792  20.099   2.955  0.00  0.00     0.290 A 
HETATM   14  O   UNK N   1      22.432  21.129   2.845  0.00  0.00    -0.265 OA
HETATM   15  H   UNK N   1      17.960  19.668   1.957  0.00  0.00     0.174 HD
HETATM   16  H   UNK N   1      17.868  18.025   2.404  0.00  0.00     0.174 HD
HETATM   17  H   UNK N   1      20.031  20.857   2.221  0.00  0.00     0.187 HD
ENDROOT
TORSDOF 0
ENDMDL
