MODEL 1
REMARK VINA RESULT:      -8.2      0.000      0.000
REMARK  14 active torsions:
REMARK  status: ('A' for Active; 'I' for Inactive)
REMARK    1  A    between atoms: C_6  and  C_5 
REMARK    2  A    between atoms: C_13  and  C_5 
REMARK    3  A    between atoms: C_14  and  C_6 
REMARK    4  A    between atoms: C_12  and  C_7 
REMARK    5  A    between atoms: N_23  and  C_7 
REMARK    6  A    between atoms: N_30  and  C_9 
REMARK    7  A    between atoms: O_31  and  C_9 
REMARK    8  A    between atoms: C_17  and  C_10 
REMARK    9  A    between atoms: N_23  and  C_11 
REMARK   10  A    between atoms: C_19  and  C_13 
REMARK   11  A    between atoms: C_13  and  N_26 
REMARK   12  A    between atoms: O_33  and  C_14 
REMARK       I    between atoms: N_26  and  C_17 
REMARK   13  A    between atoms: O_35  and  C_18 
REMARK   14  A    between atoms: O_37  and  C_19 
REMARK       I    between atoms: N_21  and  C_20 
ROOT
HETATM    1  N   UNK N   1      28.533  17.309   4.513  0.00  0.00    -0.388 N 
HETATM    2  H   UNK N   1      28.314  16.349   4.486  0.00  0.00     0.159 HD
ENDROOT
BRANCH   1   3
HETATM    3  C   UNK N   1      29.916  17.648   4.629  0.00  0.00     0.150 C 
BRANCH   3   4
HETATM    4  C   UNK N   1      30.513  16.740   5.702  0.00  0.00     0.143 C 
HETATM    5  C   UNK N   1      29.981  17.203   7.034  0.00  0.00     0.089 C 
HETATM    6  N   UNK N   1      30.734  17.395   8.061  0.00  0.00    -0.351 N 
HETATM    7  C   UNK N   1      32.126  17.151   8.039  0.00  0.00     0.152 A 
ATOM      8  HN  UNK N   1      30.309  17.737   8.923  1.00  0.00     0.166 HD
HETATM    9  C   UNK N   1      32.768  16.792   6.848  0.00  0.00     0.130 A 
HETATM   10  N   UNK N   1      32.834  17.232   9.195  0.00  0.00    -0.174 N 
HETATM   11  C   UNK N   1      34.163  16.532   6.902  0.00  0.00     0.186 A 
HETATM   12  N   UNK N   1      31.990  16.655   5.652  0.00  0.00    -0.342 N 
HETATM   13  N   UNK N   1      34.815  16.624   8.088  0.00  0.00    -0.168 N 
HETATM   14  C   UNK N   1      34.163  16.965   9.224  0.00  0.00     0.679 A 
ATOM     15  HN  UNK N   1      35.816  16.431   8.124  1.00  0.00     0.186 HD
HETATM   16  N   UNK N   1      34.801  17.019  10.330  0.00  0.00    -0.234 N 
HETATM   17  H   UNK N   1      34.329  17.258  11.161  0.00  0.00     0.174 HD
ATOM     18  HN  UNK N   1      35.800  16.814  10.354  1.00  0.00     0.174 HD
HETATM   19  H   UNK N   1      32.374  17.489  10.027  0.00  0.00     0.186 HD
BRANCH  11  20
HETATM   20  O   UNK N   1      34.862  16.171   5.813  0.00  0.00    -0.344 OA
HETATM   21  H   UNK N   1      34.579  16.442   4.962  0.00  0.00     0.219 HD
ENDBRANCH  11  20
BRANCH  12  22
HETATM   22  C   UNK N   1      32.656  16.293   4.413  0.00  0.00     0.291 C 
BRANCH  22  23
HETATM   23  O   UNK N   1      33.145  17.428   3.771  0.00  0.00    -0.382 OA
HETATM   24  H   UNK N   1      33.561  18.305   3.771  0.00  0.00     0.211 HD
ENDBRANCH  22  23
ENDBRANCH  12  22
ENDBRANCH   3   4
ENDBRANCH   1   3
BRANCH   1  25
HETATM   25  C   UNK N   1      27.451  18.201   4.437  0.00  0.00     0.028 A 
HETATM   26  C   UNK N   1      27.560  19.480   3.868  0.00  0.00     0.030 A 
HETATM   27  C   UNK N   1      26.393  20.214   3.604  0.00  0.00     0.019 A 
HETATM   28  C   UNK N   1      25.139  19.669   3.938  0.00  0.00     0.032 A 
HETATM   29  C   UNK N   1      25.070  18.445   4.603  0.00  0.00     0.019 A 
HETATM   30  C   UNK N   1      26.216  17.720   4.847  0.00  0.00     0.030 A 
BRANCH  28  31
HETATM   31  C   UNK N   1      23.913  20.135   3.277  0.00  0.00     0.252 C 
HETATM   32  N   UNK N   1      22.771  19.451   3.559  0.00  0.00    -0.343 N 
HETATM   33  H   UNK N   1      22.694  19.070   4.464  0.00  0.00     0.163 HD
HETATM   34  O   UNK N   1      23.983  20.885   2.317  0.00  0.00    -0.268 OA
BRANCH  32  35
HETATM   35  C   UNK N   1      21.659  19.226   2.660  0.00  0.00     0.183 C 
BRANCH  35  36
HETATM   36  C   UNK N   1      21.037  17.871   3.015  0.00  0.00     0.046 C 
BRANCH  36  37
HETATM   37  C   UNK N   1      19.840  17.513   2.141  0.00  0.00     0.112 C 
BRANCH  37  38
HETATM   38  C   UNK N   1      20.301  17.151   0.769  0.00  0.00     0.139 C 
HETATM   39  O   UNK N   1      20.682  16.016   0.537  0.00  0.00    -0.650 OA
BRANCH  38  40
HETATM   40  O   UNK N   1      20.310  18.077  -0.209  0.00  0.00    -0.776 OA
HETATM   41  H   UNK N   1      19.738  18.045  -0.950  0.00  0.00     0.167 HD
ENDBRANCH  38  40
ENDBRANCH  37  38
ENDBRANCH  36  37
ENDBRANCH  35  36
BRANCH  35  42
HETATM   42  C   UNK N   1      20.642  20.342   2.611  0.00  0.00     0.163 C 
HETATM   43  O   UNK N   1      20.248  20.861   3.641  0.00  0.00    -0.648 OA
BRANCH  42  44
HETATM   44  O   UNK N   1      20.228  20.836   1.427  0.00  0.00    -0.775 OA
HETATM   45  H   UNK N   1      20.726  20.718   0.642  0.00  0.00     0.167 HD
ENDBRANCH  42  44
ENDBRANCH  35  42
ENDBRANCH  32  35
ENDBRANCH  28  31
ENDBRANCH   1  25
TORSDOF 14
ENDMDL
MODEL 2
REMARK VINA RESULT:      -7.9      2.380     12.075
REMARK  14 active torsions:
REMARK  status: ('A' for Active; 'I' for Inactive)
REMARK    1  A    between atoms: C_6  and  C_5 
REMARK    2  A    between atoms: C_13  and  C_5 
REMARK    3  A    between atoms: C_14  and  C_6 
REMARK    4  A    between atoms: C_12  and  C_7 
REMARK    5  A    between atoms: N_23  and  C_7 
REMARK    6  A    between atoms: N_30  and  C_9 
REMARK    7  A    between atoms: O_31  and  C_9 
REMARK    8  A    between atoms: C_17  and  C_10 
REMARK    9  A    between atoms: N_23  and  C_11 
REMARK   10  A    between atoms: C_19  and  C_13 
REMARK   11  A    between atoms: C_13  and  N_26 
REMARK   12  A    between atoms: O_33  and  C_14 
REMARK       I    between atoms: N_26  and  C_17 
REMARK   13  A    between atoms: O_35  and  C_18 
REMARK   14  A    between atoms: O_37  and  C_19 
REMARK       I    between atoms: N_21  and  C_20 
ROOT
HETATM    1  N   UNK N   1      26.642  16.961   6.018  0.00  0.00    -0.388 N 
HETATM    2  H   UNK N   1      26.074  16.478   6.661  0.00  0.00     0.159 HD
ENDROOT
BRANCH   1   3
HETATM    3  C   UNK N   1      26.023  17.368   4.796  0.00  0.00     0.150 C 
BRANCH   3   4
HETATM    4  C   UNK N   1      24.658  17.954   5.157  0.00  0.00     0.143 C 
HETATM    5  C   UNK N   1      23.678  16.810   5.218  0.00  0.00     0.089 C 
HETATM    6  N   UNK N   1      22.529  16.842   4.637  0.00  0.00    -0.351 N 
HETATM    7  C   UNK N   1      22.069  17.971   3.922  0.00  0.00     0.152 A 
ATOM      8  HN  UNK N   1      21.927  16.020   4.697  1.00  0.00     0.166 HD
HETATM    9  C   UNK N   1      22.905  19.074   3.719  0.00  0.00     0.130 A 
HETATM   10  N   UNK N   1      20.791  17.992   3.463  0.00  0.00    -0.174 N 
HETATM   11  C   UNK N   1      22.371  20.187   3.017  0.00  0.00     0.186 A 
HETATM   12  N   UNK N   1      24.230  19.053   4.264  0.00  0.00    -0.342 N 
HETATM   13  N   UNK N   1      21.085  20.152   2.587  0.00  0.00    -0.168 N 
HETATM   14  C   UNK N   1      20.299  19.072   2.808  0.00  0.00     0.679 A 
ATOM     15  HN  UNK N   1      20.702  20.956   2.088  1.00  0.00     0.186 HD
HETATM   16  N   UNK N   1      19.084  19.079   2.412  0.00  0.00    -0.234 N 
HETATM   17  H   UNK N   1      18.505  18.299   2.578  0.00  0.00     0.174 HD
ATOM     18  HN  UNK N   1      18.711  19.893   1.923  1.00  0.00     0.174 HD
HETATM   19  H   UNK N   1      20.211  17.209   3.608  0.00  0.00     0.186 HD
BRANCH  11  20
HETATM   20  O   UNK N   1      23.094  21.295   2.784  0.00  0.00    -0.344 OA
HETATM   21  H   UNK N   1      23.026  22.030   3.362  0.00  0.00     0.219 HD
ENDBRANCH  11  20
BRANCH  12  22
HETATM   22  C   UNK N   1      25.103  20.193   4.044  0.00  0.00     0.291 C 
BRANCH  22  23
HETATM   23  O   UNK N   1      25.718  20.105   2.798  0.00  0.00    -0.382 OA
HETATM   24  H   UNK N   1      26.421  19.795   2.205  0.00  0.00     0.211 HD
ENDBRANCH  22  23
ENDBRANCH  12  22
ENDBRANCH   3   4
ENDBRANCH   1   3
BRANCH   1  25
HETATM   25  C   UNK N   1      27.976  17.175   6.398  0.00  0.00     0.028 A 
HETATM   26  C   UNK N   1      28.336  17.667   7.663  0.00  0.00     0.030 A 
HETATM   27  C   UNK N   1      29.683  17.622   8.057  0.00  0.00     0.019 A 
HETATM   28  C   UNK N   1      30.650  17.113   7.171  0.00  0.00     0.032 A 
HETATM   29  C   UNK N   1      30.277  16.736   5.880  0.00  0.00     0.019 A 
HETATM   30  C   UNK N   1      28.953  16.766   5.501  0.00  0.00     0.030 A 
BRANCH  28  31
HETATM   31  C   UNK N   1      31.934  16.601   7.666  0.00  0.00     0.252 C 
HETATM   32  N   UNK N   1      32.444  17.203   8.775  0.00  0.00    -0.343 N 
HETATM   33  H   UNK N   1      31.794  17.541   9.434  0.00  0.00     0.163 HD
HETATM   34  O   UNK N   1      32.628  15.896   6.951  0.00  0.00    -0.268 OA
BRANCH  32  35
HETATM   35  C   UNK N   1      33.845  17.396   9.082  0.00  0.00     0.183 C 
BRANCH  35  36
HETATM   36  C   UNK N   1      34.488  16.013   9.228  0.00  0.00     0.046 C 
BRANCH  36  37
HETATM   37  C   UNK N   1      34.420  15.465  10.649  0.00  0.00     0.112 C 
BRANCH  37  38
HETATM   38  C   UNK N   1      35.735  15.649  11.328  0.00  0.00     0.139 C 
HETATM   39  O   UNK N   1      35.891  15.244  12.469  0.00  0.00    -0.650 OA
BRANCH  38  40
HETATM   40  O   UNK N   1      36.746  16.272  10.693  0.00  0.00    -0.776 OA
HETATM   41  H   UNK N   1      37.367  16.820  11.130  0.00  0.00     0.167 HD
ENDBRANCH  38  40
ENDBRANCH  37  38
ENDBRANCH  36  37
ENDBRANCH  35  36
BRANCH  35  42
HETATM   42  C   UNK N   1      34.592  18.290   8.122  0.00  0.00     0.163 C 
HETATM   43  O   UNK N   1      35.287  19.199   8.542  0.00  0.00    -0.648 OA
BRANCH  42  44
HETATM   44  O   UNK N   1      34.573  18.037   6.798  0.00  0.00    -0.775 OA
HETATM   45  H   UNK N   1      34.912  18.648   6.174  0.00  0.00     0.167 HD
ENDBRANCH  42  44
ENDBRANCH  35  42
ENDBRANCH  32  35
ENDBRANCH  28  31
ENDBRANCH   1  25
TORSDOF 14
ENDMDL
MODEL 3
REMARK VINA RESULT:      -7.9      2.410      3.224
REMARK  14 active torsions:
REMARK  status: ('A' for Active; 'I' for Inactive)
REMARK    1  A    between atoms: C_6  and  C_5 
REMARK    2  A    between atoms: C_13  and  C_5 
REMARK    3  A    between atoms: C_14  and  C_6 
REMARK    4  A    between atoms: C_12  and  C_7 
REMARK    5  A    between atoms: N_23  and  C_7 
REMARK    6  A    between atoms: N_30  and  C_9 
REMARK    7  A    between atoms: O_31  and  C_9 
REMARK    8  A    between atoms: C_17  and  C_10 
REMARK    9  A    between atoms: N_23  and  C_11 
REMARK   10  A    between atoms: C_19  and  C_13 
REMARK   11  A    between atoms: C_13  and  N_26 
REMARK   12  A    between atoms: O_33  and  C_14 
REMARK       I    between atoms: N_26  and  C_17 
REMARK   13  A    between atoms: O_35  and  C_18 
REMARK   14  A    between atoms: O_37  and  C_19 
REMARK       I    between atoms: N_21  and  C_20 
ROOT
HETATM    1  N   UNK N   1      28.811  18.312   6.233  0.00  0.00    -0.388 N 
HETATM    2  H   UNK N   1      29.380  19.025   6.603  0.00  0.00     0.159 HD
ENDROOT
BRANCH   1   3
HETATM    3  C   UNK N   1      28.993  17.001   6.774  0.00  0.00     0.150 C 
BRANCH   3   4
HETATM    4  C   UNK N   1      30.428  16.581   6.460  0.00  0.00     0.143 C 
HETATM    5  C   UNK N   1      30.368  15.226   5.802  0.00  0.00     0.089 C 
HETATM    6  N   UNK N   1      31.117  14.241   6.158  0.00  0.00    -0.351 N 
HETATM    7  C   UNK N   1      32.091  14.356   7.176  0.00  0.00     0.152 A 
ATOM      8  HN  UNK N   1      31.003  13.343   5.687  1.00  0.00     0.166 HD
HETATM    9  C   UNK N   1      32.204  15.533   7.924  0.00  0.00     0.130 A 
HETATM   10  N   UNK N   1      32.946  13.324   7.397  0.00  0.00    -0.174 N 
HETATM   11  C   UNK N   1      33.224  15.593   8.910  0.00  0.00     0.186 A 
HETATM   12  N   UNK N   1      31.330  16.631   7.632  0.00  0.00    -0.342 N 
HETATM   13  N   UNK N   1      34.051  14.532   9.083  0.00  0.00    -0.168 N 
HETATM   14  C   UNK N   1      33.921  13.410   8.335  0.00  0.00     0.679 A 
ATOM     15  HN  UNK N   1      34.786  14.581   9.789  1.00  0.00     0.186 HD
HETATM   16  N   UNK N   1      34.732  12.437   8.505  0.00  0.00    -0.234 N 
HETATM   17  H   UNK N   1      34.647  11.623   7.957  0.00  0.00     0.174 HD
ATOM     18  HN  UNK N   1      35.468  12.503   9.207  1.00  0.00     0.174 HD
HETATM   19  H   UNK N   1      32.856  12.499   6.867  0.00  0.00     0.186 HD
BRANCH  11  20
HETATM   20  O   UNK N   1      33.416  16.685   9.670  0.00  0.00    -0.344 OA
HETATM   21  H   UNK N   1      34.092  17.295   9.451  0.00  0.00     0.219 HD
ENDBRANCH  11  20
BRANCH  12  22
HETATM   22  C   UNK N   1      31.439  17.849   8.415  0.00  0.00     0.291 C 
BRANCH  22  23
HETATM   23  O   UNK N   1      30.654  17.764   9.562  0.00  0.00    -0.382 OA
HETATM   24  H   UNK N   1      29.823  17.571  10.024  0.00  0.00     0.211 HD
ENDBRANCH  22  23
ENDBRANCH  12  22
ENDBRANCH   3   4
ENDBRANCH   1   3
BRANCH   1  25
HETATM   25  C   UNK N   1      27.907  18.689   5.227  0.00  0.00     0.028 A 
HETATM   26  C   UNK N   1      27.096  17.763   4.549  0.00  0.00     0.030 A 
HETATM   27  C   UNK N   1      26.050  18.234   3.740  0.00  0.00     0.019 A 
HETATM   28  C   UNK N   1      25.850  19.619   3.599  0.00  0.00     0.032 A 
HETATM   29  C   UNK N   1      26.740  20.513   4.195  0.00  0.00     0.019 A 
HETATM   30  C   UNK N   1      27.756  20.050   5.002  0.00  0.00     0.030 A 
BRANCH  28  31
HETATM   31  C   UNK N   1      24.545  20.156   3.191  0.00  0.00     0.252 C 
HETATM   32  N   UNK N   1      23.445  19.551   3.716  0.00  0.00    -0.343 N 
HETATM   33  H   UNK N   1      23.532  19.187   4.627  0.00  0.00     0.163 HD
HETATM   34  O   UNK N   1      24.463  20.890   2.218  0.00  0.00    -0.268 OA
BRANCH  32  35
HETATM   35  C   UNK N   1      22.161  19.389   3.068  0.00  0.00     0.183 C 
BRANCH  35  36
HETATM   36  C   UNK N   1      21.529  18.098   3.598  0.00  0.00     0.046 C 
BRANCH  36  37
HETATM   37  C   UNK N   1      22.208  17.568   4.854  0.00  0.00     0.112 C 
BRANCH  37  38
HETATM   38  C   UNK N   1      21.280  17.672   6.018  0.00  0.00     0.139 C 
HETATM   39  O   UNK N   1      21.344  18.637   6.760  0.00  0.00    -0.650 OA
BRANCH  38  40
HETATM   40  O   UNK N   1      20.382  16.698   6.257  0.00  0.00    -0.776 OA
HETATM   41  H   UNK N   1      20.419  16.139   7.009  0.00  0.00     0.167 HD
ENDBRANCH  38  40
ENDBRANCH  37  38
ENDBRANCH  36  37
ENDBRANCH  35  36
BRANCH  35  42
HETATM   42  C   UNK N   1      21.237  20.579   3.174  0.00  0.00     0.163 C 
HETATM   43  O   UNK N   1      20.283  20.552   3.934  0.00  0.00    -0.648 OA
BRANCH  42  44
HETATM   44  O   UNK N   1      21.507  21.716   2.501  0.00  0.00    -0.775 OA
HETATM   45  H   UNK N   1      21.005  21.978   1.756  0.00  0.00     0.167 HD
ENDBRANCH  42  44
ENDBRANCH  35  42
ENDBRANCH  32  35
ENDBRANCH  28  31
ENDBRANCH   1  25
TORSDOF 14
ENDMDL
MODEL 4
REMARK VINA RESULT:      -7.8      1.399      1.598
REMARK  14 active torsions:
REMARK  status: ('A' for Active; 'I' for Inactive)
REMARK    1  A    between atoms: C_6  and  C_5 
REMARK    2  A    between atoms: C_13  and  C_5 
REMARK    3  A    between atoms: C_14  and  C_6 
REMARK    4  A    between atoms: C_12  and  C_7 
REMARK    5  A    between atoms: N_23  and  C_7 
REMARK    6  A    between atoms: N_30  and  C_9 
REMARK    7  A    between atoms: O_31  and  C_9 
REMARK    8  A    between atoms: C_17  and  C_10 
REMARK    9  A    between atoms: N_23  and  C_11 
REMARK   10  A    between atoms: C_19  and  C_13 
REMARK   11  A    between atoms: C_13  and  N_26 
REMARK   12  A    between atoms: O_33  and  C_14 
REMARK       I    between atoms: N_26  and  C_17 
REMARK   13  A    between atoms: O_35  and  C_18 
REMARK   14  A    between atoms: O_37  and  C_19 
REMARK       I    between atoms: N_21  and  C_20 
ROOT
HETATM    1  N   UNK N   1      28.599  17.614   4.084  0.00  0.00    -0.388 N 
HETATM    2  H   UNK N   1      28.551  16.701   3.718  0.00  0.00     0.159 HD
ENDROOT
BRANCH   1   3
HETATM    3  C   UNK N   1      29.892  18.083   4.470  0.00  0.00     0.150 C 
BRANCH   3   4
HETATM    4  C   UNK N   1      30.443  17.092   5.494  0.00  0.00     0.143 C 
HETATM    5  C   UNK N   1      29.882  17.475   6.840  0.00  0.00     0.089 C 
HETATM    6  N   UNK N   1      30.610  17.581   7.897  0.00  0.00    -0.351 N 
HETATM    7  C   UNK N   1      31.997  17.311   7.895  0.00  0.00     0.152 A 
ATOM      8  HN  UNK N   1      30.167  17.873   8.769  1.00  0.00     0.166 HD
HETATM    9  C   UNK N   1      32.665  17.020   6.701  0.00  0.00     0.130 A 
HETATM   10  N   UNK N   1      32.674  17.299   9.073  0.00  0.00    -0.174 N 
HETATM   11  C   UNK N   1      34.052  16.728   6.773  0.00  0.00     0.186 A 
HETATM   12  N   UNK N   1      31.918  16.980   5.477  0.00  0.00    -0.342 N 
HETATM   13  N   UNK N   1      34.673  16.726   7.979  0.00  0.00    -0.168 N 
HETATM   14  C   UNK N   1      33.996  17.003   9.119  0.00  0.00     0.679 A 
ATOM     15  HN  UNK N   1      35.669  16.511   8.029  1.00  0.00     0.186 HD
HETATM   16  N   UNK N   1      34.604  16.969  10.243  0.00  0.00    -0.234 N 
HETATM   17  H   UNK N   1      34.114  17.161  11.075  0.00  0.00     0.174 HD
ATOM     18  HN  UNK N   1      35.598  16.743  10.279  1.00  0.00     0.174 HD
HETATM   19  H   UNK N   1      32.195  17.508   9.908  0.00  0.00     0.186 HD
BRANCH  11  20
HETATM   20  O   UNK N   1      34.775  16.427   5.681  0.00  0.00    -0.344 OA
HETATM   21  H   UNK N   1      34.402  15.897   5.004  0.00  0.00     0.219 HD
ENDBRANCH  11  20
BRANCH  12  22
HETATM   22  C   UNK N   1      32.612  16.689   4.235  0.00  0.00     0.291 C 
BRANCH  22  23
HETATM   23  O   UNK N   1      32.520  15.333   3.930  0.00  0.00    -0.382 OA
HETATM   24  H   UNK N   1      32.199  14.591   3.392  0.00  0.00     0.211 HD
ENDBRANCH  22  23
ENDBRANCH  12  22
ENDBRANCH   3   4
ENDBRANCH   1   3
BRANCH   1  25
HETATM   25  C   UNK N   1      27.387  18.317   4.175  0.00  0.00     0.028 A 
HETATM   26  C   UNK N   1      27.299  19.706   3.983  0.00  0.00     0.030 A 
HETATM   27  C   UNK N   1      26.034  20.299   3.844  0.00  0.00     0.019 A 
HETATM   28  C   UNK N   1      24.879  19.500   3.928  0.00  0.00     0.032 A 
HETATM   29  C   UNK N   1      24.995  18.143   4.231  0.00  0.00     0.019 A 
HETATM   30  C   UNK N   1      26.238  17.560   4.350  0.00  0.00     0.030 A 
BRANCH  28  31
HETATM   31  C   UNK N   1      23.611  19.940   3.332  0.00  0.00     0.252 C 
HETATM   32  N   UNK N   1      22.508  19.201   3.630  0.00  0.00    -0.343 N 
HETATM   33  H   UNK N   1      22.482  18.784   4.522  0.00  0.00     0.163 HD
HETATM   34  O   UNK N   1      23.614  20.728   2.400  0.00  0.00    -0.268 OA
BRANCH  32  35
HETATM   35  C   UNK N   1      21.371  18.965   2.765  0.00  0.00     0.183 C 
BRANCH  35  36
HETATM   36  C   UNK N   1      21.104  17.456   2.744  0.00  0.00     0.046 C 
BRANCH  36  37
HETATM   37  C   UNK N   1      21.325  16.788   4.096  0.00  0.00     0.112 C 
BRANCH  37  38
HETATM   38  C   UNK N   1      20.014  16.409   4.698  0.00  0.00     0.139 C 
HETATM   39  O   UNK N   1      19.985  15.797   5.752  0.00  0.00    -0.650 OA
BRANCH  38  40
HETATM   40  O   UNK N   1      18.864  16.730   4.075  0.00  0.00    -0.776 OA
HETATM   41  H   UNK N   1      18.451  17.568   4.159  0.00  0.00     0.167 HD
ENDBRANCH  38  40
ENDBRANCH  37  38
ENDBRANCH  36  37
ENDBRANCH  35  36
BRANCH  35  42
HETATM   42  C   UNK N   1      20.139  19.773   3.096  0.00  0.00     0.163 C 
HETATM   43  O   UNK N   1      20.231  20.793   3.757  0.00  0.00    -0.648 OA
BRANCH  42  44
HETATM   44  O   UNK N   1      18.939  19.426   2.589  0.00  0.00    -0.775 OA
HETATM   45  H   UNK N   1      18.203  19.249   3.140  0.00  0.00     0.167 HD
ENDBRANCH  42  44
ENDBRANCH  35  42
ENDBRANCH  32  35
ENDBRANCH  28  31
ENDBRANCH   1  25
TORSDOF 14
ENDMDL
MODEL 5
REMARK VINA RESULT:      -7.7      2.366     11.812
REMARK  14 active torsions:
REMARK  status: ('A' for Active; 'I' for Inactive)
REMARK    1  A    between atoms: C_6  and  C_5 
REMARK    2  A    between atoms: C_13  and  C_5 
REMARK    3  A    between atoms: C_14  and  C_6 
REMARK    4  A    between atoms: C_12  and  C_7 
REMARK    5  A    between atoms: N_23  and  C_7 
REMARK    6  A    between atoms: N_30  and  C_9 
REMARK    7  A    between atoms: O_31  and  C_9 
REMARK    8  A    between atoms: C_17  and  C_10 
REMARK    9  A    between atoms: N_23  and  C_11 
REMARK   10  A    between atoms: C_19  and  C_13 
REMARK   11  A    between atoms: C_13  and  N_26 
REMARK   12  A    between atoms: O_33  and  C_14 
REMARK       I    between atoms: N_26  and  C_17 
REMARK   13  A    between atoms: O_35  and  C_18 
REMARK   14  A    between atoms: O_37  and  C_19 
REMARK       I    between atoms: N_21  and  C_20 
ROOT
HETATM    1  N   UNK N   1      26.291  17.569   5.539  0.00  0.00    -0.388 N 
HETATM    2  H   UNK N   1      25.727  17.431   6.334  0.00  0.00     0.159 HD
ENDROOT
BRANCH   1   3
HETATM    3  C   UNK N   1      25.644  18.095   4.378  0.00  0.00     0.150 C 
BRANCH   3   4
HETATM    4  C   UNK N   1      24.225  18.482   4.791  0.00  0.00     0.143 C 
HETATM    5  C   UNK N   1      23.433  17.207   4.937  0.00  0.00     0.089 C 
HETATM    6  N   UNK N   1      22.267  17.044   4.417  0.00  0.00    -0.351 N 
HETATM    7  C   UNK N   1      21.608  18.063   3.692  0.00  0.00     0.152 A 
ATOM      8  HN  UNK N   1      21.800  16.144   4.532  1.00  0.00     0.166 HD
HETATM    9  C   UNK N   1      22.256  19.271   3.413  0.00  0.00     0.130 A 
HETATM   10  N   UNK N   1      20.322  17.875   3.300  0.00  0.00    -0.174 N 
HETATM   11  C   UNK N   1      21.527  20.264   2.707  0.00  0.00     0.186 A 
HETATM   12  N   UNK N   1      23.594  19.470   3.889  0.00  0.00    -0.342 N 
HETATM   13  N   UNK N   1      20.243  20.021   2.345  0.00  0.00    -0.168 N 
HETATM   14  C   UNK N   1      19.641  18.844   2.639  0.00  0.00     0.679 A 
ATOM     15  HN  UNK N   1      19.720  20.739   1.843  1.00  0.00     0.186 HD
HETATM   16  N   UNK N   1      18.422  18.654   2.306  0.00  0.00    -0.234 N 
HETATM   17  H   UNK N   1      17.977  17.803   2.526  0.00  0.00     0.174 HD
ATOM     18  HN  UNK N   1      17.908  19.384   1.813  1.00  0.00     0.174 HD
HETATM   19  H   UNK N   1      19.875  17.020   3.499  0.00  0.00     0.186 HD
BRANCH  11  20
HETATM   20  O   UNK N   1      22.062  21.459   2.403  0.00  0.00    -0.344 OA
HETATM   21  H   UNK N   1      21.507  22.171   2.151  0.00  0.00     0.219 HD
ENDBRANCH  11  20
BRANCH  12  22
HETATM   22  C   UNK N   1      24.272  20.720   3.590  0.00  0.00     0.291 C 
BRANCH  22  23
HETATM   23  O   UNK N   1      24.754  20.714   2.284  0.00  0.00    -0.382 OA
HETATM   24  H   UNK N   1      25.461  20.821   1.626  0.00  0.00     0.211 HD
ENDBRANCH  22  23
ENDBRANCH  12  22
ENDBRANCH   3   4
ENDBRANCH   1   3
BRANCH   1  25
HETATM   25  C   UNK N   1      27.646  17.225   5.663  0.00  0.00     0.028 A 
HETATM   26  C   UNK N   1      28.466  17.728   6.687  0.00  0.00     0.030 A 
HETATM   27  C   UNK N   1      29.731  17.155   6.895  0.00  0.00     0.019 A 
HETATM   28  C   UNK N   1      30.166  16.110   6.059  0.00  0.00     0.032 A 
HETATM   29  C   UNK N   1      29.376  15.709   4.982  0.00  0.00     0.019 A 
HETATM   30  C   UNK N   1      28.129  16.261   4.789  0.00  0.00     0.030 A 
BRANCH  28  31
HETATM   31  C   UNK N   1      31.212  15.177   6.499  0.00  0.00     0.252 C 
HETATM   32  N   UNK N   1      31.682  15.340   7.765  0.00  0.00    -0.343 N 
HETATM   33  H   UNK N   1      31.041  15.668   8.437  0.00  0.00     0.163 HD
HETATM   34  O   UNK N   1      31.818  14.508   5.677  0.00  0.00    -0.268 OA
BRANCH  32  35
HETATM   35  C   UNK N   1      33.031  15.080   8.222  0.00  0.00     0.183 C 
BRANCH  35  36
HETATM   36  C   UNK N   1      33.479  16.279   9.064  0.00  0.00     0.046 C 
BRANCH  36  37
HETATM   37  C   UNK N   1      33.083  17.621   8.459  0.00  0.00     0.112 C 
BRANCH  37  38
HETATM   38  C   UNK N   1      34.253  18.229   7.760  0.00  0.00     0.139 C 
HETATM   39  O   UNK N   1      34.500  17.916   6.607  0.00  0.00    -0.650 OA
BRANCH  38  40
HETATM   40  O   UNK N   1      35.042  19.111   8.401  0.00  0.00    -0.776 OA
HETATM   41  H   UNK N   1      35.881  18.887   8.755  0.00  0.00     0.167 HD
ENDBRANCH  38  40
ENDBRANCH  37  38
ENDBRANCH  36  37
ENDBRANCH  35  36
BRANCH  35  42
HETATM   42  C   UNK N   1      33.222  13.762   8.933  0.00  0.00     0.163 C 
HETATM   43  O   UNK N   1      32.944  12.715   8.373  0.00  0.00    -0.648 OA
BRANCH  42  44
HETATM   44  O   UNK N   1      33.786  13.721  10.156  0.00  0.00    -0.775 OA
HETATM   45  H   UNK N   1      33.473  13.145  10.825  0.00  0.00     0.167 HD
ENDBRANCH  42  44
ENDBRANCH  35  42
ENDBRANCH  32  35
ENDBRANCH  28  31
ENDBRANCH   1  25
TORSDOF 14
ENDMDL
MODEL 6
REMARK VINA RESULT:      -7.5      2.233      3.590
REMARK  14 active torsions:
REMARK  status: ('A' for Active; 'I' for Inactive)
REMARK    1  A    between atoms: C_6  and  C_5 
REMARK    2  A    between atoms: C_13  and  C_5 
REMARK    3  A    between atoms: C_14  and  C_6 
REMARK    4  A    between atoms: C_12  and  C_7 
REMARK    5  A    between atoms: N_23  and  C_7 
REMARK    6  A    between atoms: N_30  and  C_9 
REMARK    7  A    between atoms: O_31  and  C_9 
REMARK    8  A    between atoms: C_17  and  C_10 
REMARK    9  A    between atoms: N_23  and  C_11 
REMARK   10  A    between atoms: C_19  and  C_13 
REMARK   11  A    between atoms: C_13  and  N_26 
REMARK   12  A    between atoms: O_33  and  C_14 
REMARK       I    between atoms: N_26  and  C_17 
REMARK   13  A    between atoms: O_35  and  C_18 
REMARK   14  A    between atoms: O_37  and  C_19 
REMARK       I    between atoms: N_21  and  C_20 
ROOT
HETATM    1  N   UNK N   1      30.545  15.984   6.748  0.00  0.00    -0.388 N 
HETATM    2  H   UNK N   1      30.678  15.041   7.000  0.00  0.00     0.159 HD
ENDROOT
BRANCH   1   3
HETATM    3  C   UNK N   1      31.655  16.862   6.945  0.00  0.00     0.150 C 
BRANCH   3   4
HETATM    4  C   UNK N   1      32.829  16.005   7.413  0.00  0.00     0.143 C 
HETATM    5  C   UNK N   1      32.262  14.715   7.949  0.00  0.00     0.089 C 
HETATM    6  N   UNK N   1      32.616  14.211   9.080  0.00  0.00    -0.351 N 
HETATM    7  C   UNK N   1      33.598  14.806   9.903  0.00  0.00     0.152 A 
ATOM      8  HN  UNK N   1      32.169  13.349   9.393  1.00  0.00     0.166 HD
HETATM    9  C   UNK N   1      34.153  16.045   9.568  0.00  0.00     0.130 A 
HETATM   10  N   UNK N   1      34.029  14.144  11.008  0.00  0.00    -0.174 N 
HETATM   11  C   UNK N   1      35.157  16.573  10.422  0.00  0.00     0.186 A 
HETATM   12  N   UNK N   1      33.726  16.697   8.364  0.00  0.00    -0.342 N 
HETATM   13  N   UNK N   1      35.550  15.863  11.510  0.00  0.00    -0.168 N 
HETATM   14  C   UNK N   1      34.999  14.661  11.802  0.00  0.00     0.679 A 
ATOM     15  HN  UNK N   1      36.276  16.243  12.118  1.00  0.00     0.186 HD
HETATM   16  N   UNK N   1      35.408  14.006  12.820  0.00  0.00    -0.234 N 
HETATM   17  H   UNK N   1      35.017  13.127  13.031  0.00  0.00     0.174 HD
ATOM     18  HN  UNK N   1      36.141  14.392  13.415  1.00  0.00     0.174 HD
HETATM   19  H   UNK N   1      33.629  13.274  11.238  0.00  0.00     0.186 HD
BRANCH  11  20
HETATM   20  O   UNK N   1      35.756  17.750  10.175  0.00  0.00    -0.344 OA
HETATM   21  H   UNK N   1      36.086  17.938   9.319  0.00  0.00     0.219 HD
ENDBRANCH  11  20
BRANCH  12  22
HETATM   22  C   UNK N   1      34.294  17.989   8.020  0.00  0.00     0.291 C 
BRANCH  22  23
HETATM   23  O   UNK N   1      34.594  18.045   6.662  0.00  0.00    -0.382 OA
HETATM   24  H   UNK N   1      34.545  18.460   5.785  0.00  0.00     0.211 HD
ENDBRANCH  22  23
ENDBRANCH  12  22
ENDBRANCH   3   4
ENDBRANCH   1   3
BRANCH   1  25
HETATM   25  C   UNK N   1      29.283  16.324   6.235  0.00  0.00     0.028 A 
HETATM   26  C   UNK N   1      28.662  17.556   6.500  0.00  0.00     0.030 A 
HETATM   27  C   UNK N   1      27.526  17.923   5.761  0.00  0.00     0.019 A 
HETATM   28  C   UNK N   1      27.014  17.042   4.791  0.00  0.00     0.032 A 
HETATM   29  C   UNK N   1      27.586  15.780   4.629  0.00  0.00     0.019 A 
HETATM   30  C   UNK N   1      28.710  15.428   5.344  0.00  0.00     0.030 A 
BRANCH  28  31
HETATM   31  C   UNK N   1      26.173  17.534   3.692  0.00  0.00     0.252 C 
HETATM   32  N   UNK N   1      25.561  18.734   3.883  0.00  0.00    -0.343 N 
HETATM   33  H   UNK N   1      26.044  19.396   4.430  0.00  0.00     0.163 HD
HETATM   34  O   UNK N   1      25.816  16.773   2.807  0.00  0.00    -0.268 OA
BRANCH  32  35
HETATM   35  C   UNK N   1      24.271  19.134   3.363  0.00  0.00     0.183 C 
BRANCH  35  36
HETATM   36  C   UNK N   1      23.226  18.877   4.455  0.00  0.00     0.046 C 
BRANCH  36  37
HETATM   37  C   UNK N   1      22.110  17.939   4.009  0.00  0.00     0.112 C 
BRANCH  37  38
HETATM   38  C   UNK N   1      20.847  18.708   3.812  0.00  0.00     0.139 C 
HETATM   39  O   UNK N   1      19.872  18.159   3.327  0.00  0.00    -0.650 OA
BRANCH  38  40
HETATM   40  O   UNK N   1      20.784  20.008   4.156  0.00  0.00    -0.776 OA
HETATM   41  H   UNK N   1      21.531  20.503   4.434  0.00  0.00     0.167 HD
ENDBRANCH  38  40
ENDBRANCH  37  38
ENDBRANCH  36  37
ENDBRANCH  35  36
BRANCH  35  42
HETATM   42  C   UNK N   1      24.210  20.540   2.815  0.00  0.00     0.163 C 
HETATM   43  O   UNK N   1      23.218  21.227   2.994  0.00  0.00    -0.648 OA
BRANCH  42  44
HETATM   44  O   UNK N   1      25.282  21.082   2.205  0.00  0.00    -0.775 OA
HETATM   45  H   UNK N   1      25.690  21.863   2.524  0.00  0.00     0.167 HD
ENDBRANCH  42  44
ENDBRANCH  35  42
ENDBRANCH  32  35
ENDBRANCH  28  31
ENDBRANCH   1  25
TORSDOF 14
ENDMDL
MODEL 7
REMARK VINA RESULT:      -7.4      2.773     11.752
REMARK  14 active torsions:
REMARK  status: ('A' for Active; 'I' for Inactive)
REMARK    1  A    between atoms: C_6  and  C_5 
REMARK    2  A    between atoms: C_13  and  C_5 
REMARK    3  A    between atoms: C_14  and  C_6 
REMARK    4  A    between atoms: C_12  and  C_7 
REMARK    5  A    between atoms: N_23  and  C_7 
REMARK    6  A    between atoms: N_30  and  C_9 
REMARK    7  A    between atoms: O_31  and  C_9 
REMARK    8  A    between atoms: C_17  and  C_10 
REMARK    9  A    between atoms: N_23  and  C_11 
REMARK   10  A    between atoms: C_19  and  C_13 
REMARK   11  A    between atoms: C_13  and  N_26 
REMARK   12  A    between atoms: O_33  and  C_14 
REMARK       I    between atoms: N_26  and  C_17 
REMARK   13  A    between atoms: O_35  and  C_18 
REMARK   14  A    between atoms: O_37  and  C_19 
REMARK       I    between atoms: N_21  and  C_20 
ROOT
HETATM    1  N   UNK N   1      27.074  19.387   4.630  0.00  0.00    -0.388 N 
HETATM    2  H   UNK N   1      27.281  19.827   3.774  0.00  0.00     0.159 HD
ENDROOT
BRANCH   1   3
HETATM    3  C   UNK N   1      25.713  19.435   5.063  0.00  0.00     0.150 C 
BRANCH   3   4
HETATM    4  C   UNK N   1      24.845  19.064   3.862  0.00  0.00     0.143 C 
HETATM    5  C   UNK N   1      24.257  20.341   3.318  0.00  0.00     0.089 C 
HETATM    6  N   UNK N   1      23.007  20.470   3.034  0.00  0.00    -0.351 N 
HETATM    7  C   UNK N   1      22.082  19.411   3.172  0.00  0.00     0.152 A 
ATOM      8  HN  UNK N   1      22.673  21.373   2.695  1.00  0.00     0.166 HD
HETATM    9  C   UNK N   1      22.474  18.193   3.739  0.00  0.00     0.130 A 
HETATM   10  N   UNK N   1      20.814  19.572   2.715  0.00  0.00    -0.174 N 
HETATM   11  C   UNK N   1      21.503  17.160   3.821  0.00  0.00     0.186 A 
HETATM   12  N   UNK N   1      23.834  18.026   4.160  0.00  0.00    -0.342 N 
HETATM   13  N   UNK N   1      20.253  17.378   3.342  0.00  0.00    -0.168 N 
HETATM   14  C   UNK N   1      19.908  18.566   2.791  0.00  0.00     0.679 A 
ATOM     15  HN  UNK N   1      19.559  16.632   3.398  1.00  0.00     0.186 HD
HETATM   16  N   UNK N   1      18.729  18.732   2.327  0.00  0.00    -0.234 N 
HETATM   17  H   UNK N   1      18.476  19.591   1.917  0.00  0.00     0.174 HD
ATOM     18  HN  UNK N   1      18.048  17.974   2.380  1.00  0.00     0.174 HD
HETATM   19  H   UNK N   1      20.547  20.434   2.321  0.00  0.00     0.186 HD
BRANCH  11  20
HETATM   20  O   UNK N   1      21.789  15.953   4.339  0.00  0.00    -0.344 OA
HETATM   21  H   UNK N   1      21.176  15.250   4.255  0.00  0.00     0.219 HD
ENDBRANCH  11  20
BRANCH  12  22
HETATM   22  C   UNK N   1      24.239  16.766   4.758  0.00  0.00     0.291 C 
BRANCH  22  23
HETATM   23  O   UNK N   1      23.898  16.733   6.108  0.00  0.00    -0.382 OA
HETATM   24  H   UNK N   1      23.315  16.947   6.854  0.00  0.00     0.211 HD
ENDBRANCH  22  23
ENDBRANCH  12  22
ENDBRANCH   3   4
ENDBRANCH   1   3
BRANCH   1  25
HETATM   25  C   UNK N   1      28.149  18.778   5.298  0.00  0.00     0.028 A 
HETATM   26  C   UNK N   1      28.180  18.612   6.692  0.00  0.00     0.030 A 
HETATM   27  C   UNK N   1      29.160  17.783   7.261  0.00  0.00     0.019 A 
HETATM   28  C   UNK N   1      30.107  17.156   6.431  0.00  0.00     0.032 A 
HETATM   29  C   UNK N   1      30.118  17.428   5.062  0.00  0.00     0.019 A 
HETATM   30  C   UNK N   1      29.146  18.230   4.504  0.00  0.00     0.030 A 
BRANCH  28  31
HETATM   31  C   UNK N   1      30.816  15.948   6.871  0.00  0.00     0.252 C 
HETATM   32  N   UNK N   1      31.827  16.126   7.765  0.00  0.00    -0.343 N 
HETATM   33  H   UNK N   1      31.725  16.865   8.408  0.00  0.00     0.163 HD
HETATM   34  O   UNK N   1      30.700  14.907   6.244  0.00  0.00    -0.268 OA
BRANCH  32  35
HETATM   35  C   UNK N   1      33.038  15.339   7.862  0.00  0.00     0.183 C 
BRANCH  35  36
HETATM   36  C   UNK N   1      34.205  16.215   7.395  0.00  0.00     0.046 C 
BRANCH  36  37
HETATM   37  C   UNK N   1      33.951  17.706   7.585  0.00  0.00     0.112 C 
BRANCH  37  38
HETATM   38  C   UNK N   1      34.881  18.254   8.614  0.00  0.00     0.139 C 
HETATM   39  O   UNK N   1      35.324  19.384   8.491  0.00  0.00    -0.650 OA
BRANCH  38  40
HETATM   40  O   UNK N   1      35.244  17.502   9.670  0.00  0.00    -0.776 OA
HETATM   41  H   UNK N   1      35.693  17.847  10.416  0.00  0.00     0.167 HD
ENDBRANCH  38  40
ENDBRANCH  37  38
ENDBRANCH  36  37
ENDBRANCH  35  36
BRANCH  35  42
HETATM   42  C   UNK N   1      33.284  14.709   9.213  0.00  0.00     0.163 C 
HETATM   43  O   UNK N   1      33.685  13.560   9.292  0.00  0.00    -0.648 OA
BRANCH  42  44
HETATM   44  O   UNK N   1      33.151  15.437  10.340  0.00  0.00    -0.775 OA
HETATM   45  H   UNK N   1      32.497  15.238  10.980  0.00  0.00     0.167 HD
ENDBRANCH  42  44
ENDBRANCH  35  42
ENDBRANCH  32  35
ENDBRANCH  28  31
ENDBRANCH   1  25
TORSDOF 14
ENDMDL
MODEL 8
REMARK VINA RESULT:      -7.4      2.526      3.961
REMARK  14 active torsions:
REMARK  status: ('A' for Active; 'I' for Inactive)
REMARK    1  A    between atoms: C_6  and  C_5 
REMARK    2  A    between atoms: C_13  and  C_5 
REMARK    3  A    between atoms: C_14  and  C_6 
REMARK    4  A    between atoms: C_12  and  C_7 
REMARK    5  A    between atoms: N_23  and  C_7 
REMARK    6  A    between atoms: N_30  and  C_9 
REMARK    7  A    between atoms: O_31  and  C_9 
REMARK    8  A    between atoms: C_17  and  C_10 
REMARK    9  A    between atoms: N_23  and  C_11 
REMARK   10  A    between atoms: C_19  and  C_13 
REMARK   11  A    between atoms: C_13  and  N_26 
REMARK   12  A    between atoms: O_33  and  C_14 
REMARK       I    between atoms: N_26  and  C_17 
REMARK   13  A    between atoms: O_35  and  C_18 
REMARK   14  A    between atoms: O_37  and  C_19 
REMARK       I    between atoms: N_21  and  C_20 
ROOT
HETATM    1  N   UNK N   1      26.274  17.161   6.050  0.00  0.00    -0.388 N 
HETATM    2  H   UNK N   1      26.374  18.079   6.391  0.00  0.00     0.159 HD
ENDROOT
BRANCH   1   3
HETATM    3  C   UNK N   1      27.211  16.194   6.528  0.00  0.00     0.150 C 
BRANCH   3   4
HETATM    4  C   UNK N   1      28.608  16.764   6.286  0.00  0.00     0.143 C 
HETATM    5  C   UNK N   1      29.465  15.648   5.746  0.00  0.00     0.089 C 
HETATM    6  N   UNK N   1      30.639  15.382   6.204  0.00  0.00    -0.351 N 
HETATM    7  C   UNK N   1      31.244  16.141   7.231  0.00  0.00     0.152 A 
ATOM      8  HN  UNK N   1      31.151  14.593   5.809  1.00  0.00     0.166 HD
HETATM    9  C   UNK N   1      30.534  17.158   7.878  0.00  0.00     0.130 A 
HETATM   10  N   UNK N   1      32.539  15.899   7.561  0.00  0.00    -0.174 N 
HETATM   11  C   UNK N   1      31.211  17.902   8.880  0.00  0.00     0.186 A 
HETATM   12  N   UNK N   1      29.187  17.435   7.471  0.00  0.00    -0.342 N 
HETATM   13  N   UNK N   1      32.507  17.618   9.163  0.00  0.00    -0.168 N 
HETATM   14  C   UNK N   1      33.169  16.632   8.512  0.00  0.00     0.679 A 
ATOM     15  HN  UNK N   1      32.992  18.158   9.880  1.00  0.00     0.186 HD
HETATM   16  N   UNK N   1      34.396  16.405   8.784  0.00  0.00    -0.234 N 
HETATM   17  H   UNK N   1      34.885  15.696   8.307  0.00  0.00     0.174 HD
ATOM     18  HN  UNK N   1      34.872  16.959   9.496  1.00  0.00     0.174 HD
HETATM   19  H   UNK N   1      33.029  15.179   7.102  0.00  0.00     0.186 HD
BRANCH  11  20
HETATM   20  O   UNK N   1      30.615  18.905   9.547  0.00  0.00    -0.344 OA
HETATM   21  H   UNK N   1      30.326  18.775  10.429  0.00  0.00     0.219 HD
ENDBRANCH  11  20
BRANCH  12  22
HETATM   22  C   UNK N   1      28.445  18.483   8.149  0.00  0.00     0.291 C 
BRANCH  22  23
HETATM   23  O   UNK N   1      27.760  17.966   9.246  0.00  0.00    -0.382 OA
HETATM   24  H   UNK N   1      27.201  17.299   9.675  0.00  0.00     0.211 HD
ENDBRANCH  22  23
ENDBRANCH  12  22
ENDBRANCH   3   4
ENDBRANCH   1   3
BRANCH   1  25
HETATM   25  C   UNK N   1      25.226  16.940   5.142  0.00  0.00     0.028 A 
HETATM   26  C   UNK N   1      24.960  15.679   4.582  0.00  0.00     0.030 A 
HETATM   27  C   UNK N   1      23.758  15.481   3.883  0.00  0.00     0.019 A 
HETATM   28  C   UNK N   1      22.858  16.551   3.731  0.00  0.00     0.032 A 
HETATM   29  C   UNK N   1      23.202  17.819   4.201  0.00  0.00     0.019 A 
HETATM   30  C   UNK N   1      24.373  18.008   4.901  0.00  0.00     0.030 A 
BRANCH  28  31
HETATM   31  C   UNK N   1      21.435  16.309   3.458  0.00  0.00     0.252 C 
HETATM   32  N   UNK N   1      21.001  16.581   2.197  0.00  0.00    -0.343 N 
HETATM   33  H   UNK N   1      21.645  16.436   1.466  0.00  0.00     0.163 HD
HETATM   34  O   UNK N   1      20.651  16.166   4.382  0.00  0.00    -0.268 OA
BRANCH  32  35
HETATM   35  C   UNK N   1      19.689  17.062   1.824  0.00  0.00     0.183 C 
BRANCH  35  36
HETATM   36  C   UNK N   1      19.530  18.477   2.393  0.00  0.00     0.046 C 
BRANCH  36  37
HETATM   37  C   UNK N   1      20.587  19.450   1.885  0.00  0.00     0.112 C 
BRANCH  37  38
HETATM   38  C   UNK N   1      20.891  20.465   2.935  0.00  0.00     0.139 C 
HETATM   39  O   UNK N   1      20.589  20.246   4.096  0.00  0.00    -0.650 OA
BRANCH  38  40
HETATM   40  O   UNK N   1      21.487  21.626   2.603  0.00  0.00    -0.776 OA
HETATM   41  H   UNK N   1      21.416  22.405   3.119  0.00  0.00     0.167 HD
ENDBRANCH  38  40
ENDBRANCH  37  38
ENDBRANCH  36  37
ENDBRANCH  35  36
BRANCH  35  42
HETATM   42  C   UNK N   1      19.375  16.987   0.349  0.00  0.00     0.163 C 
HETATM   43  O   UNK N   1      20.267  17.094  -0.476  0.00  0.00    -0.648 OA
BRANCH  42  44
HETATM   44  O   UNK N   1      18.124  16.708  -0.070  0.00  0.00    -0.775 OA
HETATM   45  H   UNK N   1      17.709  15.891   0.126  0.00  0.00     0.167 HD
ENDBRANCH  42  44
ENDBRANCH  35  42
ENDBRANCH  32  35
ENDBRANCH  28  31
ENDBRANCH   1  25
TORSDOF 14
ENDMDL
MODEL 9
REMARK VINA RESULT:      -7.3      2.405      3.346
REMARK  14 active torsions:
REMARK  status: ('A' for Active; 'I' for Inactive)
REMARK    1  A    between atoms: C_6  and  C_5 
REMARK    2  A    between atoms: C_13  and  C_5 
REMARK    3  A    between atoms: C_14  and  C_6 
REMARK    4  A    between atoms: C_12  and  C_7 
REMARK    5  A    between atoms: N_23  and  C_7 
REMARK    6  A    between atoms: N_30  and  C_9 
REMARK    7  A    between atoms: O_31  and  C_9 
REMARK    8  A    between atoms: C_17  and  C_10 
REMARK    9  A    between atoms: N_23  and  C_11 
REMARK   10  A    between atoms: C_19  and  C_13 
REMARK   11  A    between atoms: C_13  and  N_26 
REMARK   12  A    between atoms: O_33  and  C_14 
REMARK       I    between atoms: N_26  and  C_17 
REMARK   13  A    between atoms: O_35  and  C_18 
REMARK   14  A    between atoms: O_37  and  C_19 
REMARK       I    between atoms: N_21  and  C_20 
ROOT
HETATM    1  N   UNK N   1      29.938  16.501   5.785  0.00  0.00    -0.388 N 
HETATM    2  H   UNK N   1      30.209  15.589   5.533  0.00  0.00     0.159 HD
ENDROOT
BRANCH   1   3
HETATM    3  C   UNK N   1      30.867  17.251   6.570  0.00  0.00     0.150 C 
BRANCH   3   4
HETATM    4  C   UNK N   1      32.098  16.370   6.774  0.00  0.00     0.143 C 
HETATM    5  C   UNK N   1      31.627  14.938   6.814  0.00  0.00     0.089 C 
HETATM    6  N   UNK N   1      31.998  14.104   7.722  0.00  0.00    -0.351 N 
HETATM    7  C   UNK N   1      32.912  14.449   8.743  0.00  0.00     0.152 A 
ATOM      8  HN  UNK N   1      31.616  13.158   7.703  1.00  0.00     0.166 HD
HETATM    9  C   UNK N   1      33.371  15.764   8.874  0.00  0.00     0.130 A 
HETATM   10  N   UNK N   1      33.373  13.481   9.577  0.00  0.00    -0.174 N 
HETATM   11  C   UNK N   1      34.311  16.036   9.903  0.00  0.00     0.186 A 
HETATM   12  N   UNK N   1      32.916  16.756   7.945  0.00  0.00    -0.342 N 
HETATM   13  N   UNK N   1      34.739  15.027  10.702  0.00  0.00    -0.168 N 
HETATM   14  C   UNK N   1      34.281  13.762  10.543  0.00  0.00     0.679 A 
ATOM     15  HN  UNK N   1      35.418  15.225  11.437  1.00  0.00     0.186 HD
HETATM   16  N   UNK N   1      34.722  12.829  11.297  0.00  0.00    -0.234 N 
HETATM   17  H   UNK N   1      34.399  11.906  11.179  0.00  0.00     0.174 HD
ATOM     18  HN  UNK N   1      35.409  13.039  12.021  1.00  0.00     0.174 HD
HETATM   19  H   UNK N   1      33.041  12.559   9.479  0.00  0.00     0.186 HD
BRANCH  11  20
HETATM   20  O   UNK N   1      34.817  17.266  10.098  0.00  0.00    -0.344 OA
HETATM   21  H   UNK N   1      35.147  17.758   9.373  0.00  0.00     0.219 HD
ENDBRANCH  11  20
BRANCH  12  22
HETATM   22  C   UNK N   1      33.383  18.124   8.086  0.00  0.00     0.291 C 
BRANCH  22  23
HETATM   23  O   UNK N   1      34.529  18.331   7.321  0.00  0.00    -0.382 OA
HETATM   24  H   UNK N   1      34.990  18.657   6.532  0.00  0.00     0.211 HD
ENDBRANCH  22  23
ENDBRANCH  12  22
ENDBRANCH   3   4
ENDBRANCH   1   3
BRANCH   1  25
HETATM   25  C   UNK N   1      28.677  16.927   5.338  0.00  0.00     0.028 A 
HETATM   26  C   UNK N   1      27.494  16.224   5.619  0.00  0.00     0.030 A 
HETATM   27  C   UNK N   1      26.256  16.833   5.355  0.00  0.00     0.019 A 
HETATM   28  C   UNK N   1      26.222  18.121   4.790  0.00  0.00     0.032 A 
HETATM   29  C   UNK N   1      27.413  18.747   4.420  0.00  0.00     0.019 A 
HETATM   30  C   UNK N   1      28.626  18.155   4.694  0.00  0.00     0.030 A 
BRANCH  28  31
HETATM   31  C   UNK N   1      25.039  18.979   4.936  0.00  0.00     0.252 C 
HETATM   32  N   UNK N   1      23.912  18.387   5.416  0.00  0.00    -0.343 N 
HETATM   33  H   UNK N   1      24.037  17.656   6.064  0.00  0.00     0.163 HD
HETATM   34  O   UNK N   1      24.998  20.063   4.376  0.00  0.00    -0.268 OA
BRANCH  32  35
HETATM   35  C   UNK N   1      22.548  18.725   5.069  0.00  0.00     0.183 C 
BRANCH  35  36
HETATM   36  C   UNK N   1      22.350  18.404   3.583  0.00  0.00     0.046 C 
BRANCH  36  37
HETATM   37  C   UNK N   1      21.170  19.141   2.962  0.00  0.00     0.112 C 
BRANCH  37  38
HETATM   38  C   UNK N   1      21.651  20.354   2.238  0.00  0.00     0.139 C 
HETATM   39  O   UNK N   1      22.186  21.258   2.858  0.00  0.00    -0.650 OA
BRANCH  38  40
HETATM   40  O   UNK N   1      21.485  20.458   0.906  0.00  0.00    -0.776 OA
HETATM   41  H   UNK N   1      21.593  19.737   0.317  0.00  0.00     0.167 HD
ENDBRANCH  38  40
ENDBRANCH  37  38
ENDBRANCH  36  37
ENDBRANCH  35  36
BRANCH  35  42
HETATM   42  C   UNK N   1      21.491  18.100   5.948  0.00  0.00     0.163 C 
HETATM   43  O   UNK N   1      21.001  17.023   5.651  0.00  0.00    -0.648 OA
BRANCH  42  44
HETATM   44  O   UNK N   1      21.144  18.679   7.115  0.00  0.00    -0.775 OA
HETATM   45  H   UNK N   1      20.849  19.567   7.156  0.00  0.00     0.167 HD
ENDBRANCH  42  44
ENDBRANCH  35  42
ENDBRANCH  32  35
ENDBRANCH  28  31
ENDBRANCH   1  25
TORSDOF 14
ENDMDL
