REMARK  3 active torsions:
REMARK  status: ('A' for Active; 'I' for Inactive)
REMARK    1  A    between atoms: C_3  and  C_4 
REMARK    2  A    between atoms: C_4  and  C_5 
REMARK    3  A    between atoms: C_5  and  O_6 
ROOT
HETATM    1  C   UNK N   1      -1.894   0.526  -0.000  0.00  0.00     0.069 C 
HETATM    2  C   UNK N   1      -0.480   0.061  -0.000  0.00  0.00     0.018 A 
HETATM    3  C   UNK N   1       0.611   0.931   0.000  0.00  0.00     0.008 A 
HETATM    4  S   UNK N   1       1.956  -0.033   0.000  0.00  0.00    -0.087 SA
HETATM    5  C   UNK N   1       1.189  -1.502   0.000  0.00  0.00     0.138 A 
HETATM    6  N   UNK N   1      -0.154  -1.279   0.000  0.00  0.00    -0.363 N 
ATOM      7  HN  UNK N   1      -0.848  -2.027   0.000  1.00  0.00     0.165 HD
ENDROOT
BRANCH   3   8
HETATM    8  C   UNK N   1       0.537   2.425  -0.000  0.00  0.00     0.074 C 
BRANCH   8   9
HETATM    9  C   UNK N   1       1.903   3.076  -0.000  0.00  0.00     0.169 C 
BRANCH   9  10
HETATM   10  O   UNK N   1       1.745   4.459   0.000  0.00  0.00    -0.401 OA
HETATM   11  H   UNK N   1       2.524   5.036   0.000  0.00  0.00     0.209 HD
ENDBRANCH   9  10
ENDBRANCH   8   9
ENDBRANCH   3   8
TORSDOF 3
