MODEL 1
REMARK VINA RESULT:      -5.1      0.000      0.000
REMARK  9 active torsions:
REMARK  status: ('A' for Active; 'I' for Inactive)
REMARK    1  A    between atoms: C_2  and  N_1 
REMARK    2  A    between atoms: C_2  and  C_3 
REMARK    3  A    between atoms: C_2  and  C_11 
REMARK    4  A    between atoms: C_3  and  C_4 
REMARK    5  A    between atoms: C_4  and  C_5 
REMARK    6  A    between atoms: C_5  and  C_6 
REMARK    7  A    between atoms: C_6  and  C_8 
REMARK    8  A    between atoms: C_8  and  O_9 
REMARK    9  A    between atoms: C_11  and  O_12 
ROOT
HETATM    1  C   UNK N   1      21.013  18.133   2.893  0.00  0.00     0.036 C 
ENDROOT
BRANCH   1   2
HETATM    2  C   UNK N   1      20.122  19.334   2.608  0.00  0.00     0.173 C 
BRANCH   2   3
HETATM    3  N   UNK N   1      18.818  18.855   2.179  0.00  0.00    -0.418 N 
HETATM    4  H   UNK N   1      18.222  19.438   1.591  0.00  0.00     0.150 HD
HETATM    5  H   UNK N   1      18.496  17.932   2.468  0.00  0.00     0.150 HD
ENDBRANCH   2   3
BRANCH   2   6
HETATM    6  C   UNK N   1      20.718  20.230   1.554  0.00  0.00     0.163 C 
HETATM    7  O   UNK N   1      21.320  21.240   1.881  0.00  0.00    -0.648 OA
BRANCH   6   8
HETATM    8  O   UNK N   1      20.574  19.938   0.245  0.00  0.00    -0.775 OA
HETATM    9  H   UNK N   1      21.305  19.740  -0.307  0.00  0.00     0.167 HD
ENDBRANCH   6   8
ENDBRANCH   2   6
ENDBRANCH   1   2
BRANCH   1  10
HETATM   10  C   UNK N   1      20.212  16.884   3.234  0.00  0.00     0.007 C 
BRANCH  10  11
HETATM   11  C   UNK N   1      20.724  15.756   2.348  0.00  0.00     0.044 C 
BRANCH  11  12
HETATM   12  C   UNK N   1      19.975  15.450   1.070  0.00  0.00     0.006 C 
HETATM   13  C   UNK N   1      19.722  14.166   0.818  0.00  0.00     0.026 C 
BRANCH  12  14
HETATM   14  C   UNK N   1      19.484  16.473   0.105  0.00  0.00     0.171 C 
HETATM   15  O   UNK N   1      20.252  17.267  -0.413  0.00  0.00    -0.646 OA
BRANCH  14  16
HETATM   16  O   UNK N   1      18.172  16.530  -0.204  0.00  0.00    -0.773 OA
HETATM   17  H   UNK N   1      17.819  17.302  -0.600  0.00  0.00     0.167 HD
ENDBRANCH  14  16
ENDBRANCH  12  14
ENDBRANCH  11  12
ENDBRANCH  10  11
ENDBRANCH   1  10
TORSDOF 9
ENDMDL
MODEL 2
REMARK VINA RESULT:      -4.7     12.518     13.794
REMARK  9 active torsions:
REMARK  status: ('A' for Active; 'I' for Inactive)
REMARK    1  A    between atoms: C_2  and  N_1 
REMARK    2  A    between atoms: C_2  and  C_3 
REMARK    3  A    between atoms: C_2  and  C_11 
REMARK    4  A    between atoms: C_3  and  C_4 
REMARK    5  A    between atoms: C_4  and  C_5 
REMARK    6  A    between atoms: C_5  and  C_6 
REMARK    7  A    between atoms: C_6  and  C_8 
REMARK    8  A    between atoms: C_8  and  O_9 
REMARK    9  A    between atoms: C_11  and  O_12 
ROOT
HETATM    1  C   UNK N   1      32.653  16.616   8.556  0.00  0.00     0.036 C 
ENDROOT
BRANCH   1   2
HETATM    2  C   UNK N   1      34.147  16.886   8.665  0.00  0.00     0.173 C 
BRANCH   2   3
HETATM    3  N   UNK N   1      34.482  17.101  10.063  0.00  0.00    -0.418 N 
HETATM    4  H   UNK N   1      33.758  17.362  10.732  0.00  0.00     0.150 HD
HETATM    5  H   UNK N   1      35.446  16.992  10.377  0.00  0.00     0.150 HD
ENDBRANCH   2   3
BRANCH   2   6
HETATM    6  C   UNK N   1      34.557  18.081   7.844  0.00  0.00     0.163 C 
HETATM    7  O   UNK N   1      34.435  18.058   6.629  0.00  0.00    -0.648 OA
BRANCH   6   8
HETATM    8  O   UNK N   1      35.080  19.173   8.437  0.00  0.00    -0.775 OA
HETATM    9  H   UNK N   1      34.623  19.648   9.103  0.00  0.00     0.167 HD
ENDBRANCH   6   8
ENDBRANCH   2   6
ENDBRANCH   1   2
BRANCH   1  10
HETATM   10  C   UNK N   1      31.829  17.896   8.570  0.00  0.00     0.007 C 
BRANCH  10  11
HETATM   11  C   UNK N   1      30.509  17.597   7.870  0.00  0.00     0.044 C 
BRANCH  11  12
HETATM   12  C   UNK N   1      29.247  18.224   8.420  0.00  0.00     0.006 C 
HETATM   13  C   UNK N   1      29.115  18.237   9.746  0.00  0.00     0.026 C 
BRANCH  12  14
HETATM   14  C   UNK N   1      28.174  18.842   7.594  0.00  0.00     0.171 C 
HETATM   15  O   UNK N   1      28.157  18.706   6.381  0.00  0.00    -0.646 OA
BRANCH  14  16
HETATM   16  O   UNK N   1      27.203  19.569   8.186  0.00  0.00    -0.773 OA
HETATM   17  H   UNK N   1      27.287  20.500   8.246  0.00  0.00     0.167 HD
ENDBRANCH  14  16
ENDBRANCH  12  14
ENDBRANCH  11  12
ENDBRANCH  10  11
ENDBRANCH   1  10
TORSDOF 9
ENDMDL
MODEL 3
REMARK VINA RESULT:      -4.6     12.456     13.832
REMARK  9 active torsions:
REMARK  status: ('A' for Active; 'I' for Inactive)
REMARK    1  A    between atoms: C_2  and  N_1 
REMARK    2  A    between atoms: C_2  and  C_3 
REMARK    3  A    between atoms: C_2  and  C_11 
REMARK    4  A    between atoms: C_3  and  C_4 
REMARK    5  A    between atoms: C_4  and  C_5 
REMARK    6  A    between atoms: C_5  and  C_6 
REMARK    7  A    between atoms: C_6  and  C_8 
REMARK    8  A    between atoms: C_8  and  O_9 
REMARK    9  A    between atoms: C_11  and  O_12 
ROOT
HETATM    1  C   UNK N   1      30.325  17.449   7.911  0.00  0.00     0.036 C 
ENDROOT
BRANCH   1   2
HETATM    2  C   UNK N   1      29.723  18.579   8.734  0.00  0.00     0.173 C 
BRANCH   2   3
HETATM    3  N   UNK N   1      29.947  18.299  10.143  0.00  0.00    -0.418 N 
HETATM    4  H   UNK N   1      29.767  19.016  10.846  0.00  0.00     0.150 HD
HETATM    5  H   UNK N   1      30.288  17.382  10.431  0.00  0.00     0.150 HD
ENDBRANCH   2   3
BRANCH   2   6
HETATM    6  C   UNK N   1      28.250  18.739   8.466  0.00  0.00     0.163 C 
HETATM    7  O   UNK N   1      27.872  19.366   7.488  0.00  0.00    -0.648 OA
BRANCH   6   8
HETATM    8  O   UNK N   1      27.338  18.213   9.309  0.00  0.00    -0.775 OA
HETATM    9  H   UNK N   1      26.767  17.514   9.056  0.00  0.00     0.167 HD
ENDBRANCH   6   8
ENDBRANCH   2   6
ENDBRANCH   1   2
BRANCH   1  10
HETATM   10  C   UNK N   1      31.345  16.637   8.697  0.00  0.00     0.007 C 
BRANCH  10  11
HETATM   11  C   UNK N   1      32.466  16.260   7.737  0.00  0.00     0.044 C 
BRANCH  11  12
HETATM   12  C   UNK N   1      33.550  17.279   7.461  0.00  0.00     0.006 C 
HETATM   13  C   UNK N   1      33.751  17.607   6.186  0.00  0.00     0.026 C 
BRANCH  12  14
HETATM   14  C   UNK N   1      34.373  17.950   8.505  0.00  0.00     0.171 C 
HETATM   15  O   UNK N   1      34.942  19.005   8.274  0.00  0.00    -0.646 OA
BRANCH  14  16
HETATM   16  O   UNK N   1      34.498  17.390   9.726  0.00  0.00    -0.773 OA
HETATM   17  H   UNK N   1      33.847  17.544  10.381  0.00  0.00     0.167 HD
ENDBRANCH  14  16
ENDBRANCH  12  14
ENDBRANCH  11  12
ENDBRANCH  10  11
ENDBRANCH   1  10
TORSDOF 9
ENDMDL
MODEL 4
REMARK VINA RESULT:      -4.6      2.549      4.810
REMARK  9 active torsions:
REMARK  status: ('A' for Active; 'I' for Inactive)
REMARK    1  A    between atoms: C_2  and  N_1 
REMARK    2  A    between atoms: C_2  and  C_3 
REMARK    3  A    between atoms: C_2  and  C_11 
REMARK    4  A    between atoms: C_3  and  C_4 
REMARK    5  A    between atoms: C_4  and  C_5 
REMARK    6  A    between atoms: C_5  and  C_6 
REMARK    7  A    between atoms: C_6  and  C_8 
REMARK    8  A    between atoms: C_8  and  O_9 
REMARK    9  A    between atoms: C_11  and  O_12 
ROOT
HETATM    1  C   UNK N   1      20.984  18.414   2.990  0.00  0.00     0.036 C 
ENDROOT
BRANCH   1   2
HETATM    2  C   UNK N   1      20.000  19.489   2.550  0.00  0.00     0.173 C 
BRANCH   2   3
HETATM    3  N   UNK N   1      18.713  18.864   2.291  0.00  0.00    -0.418 N 
HETATM    4  H   UNK N   1      17.889  19.437   2.108  0.00  0.00     0.150 HD
HETATM    5  H   UNK N   1      18.633  17.848   2.293  0.00  0.00     0.150 HD
ENDBRANCH   2   3
BRANCH   2   6
HETATM    6  C   UNK N   1      20.482  20.213   1.321  0.00  0.00     0.163 C 
HETATM    7  O   UNK N   1      20.792  21.392   1.389  0.00  0.00    -0.648 OA
BRANCH   6   8
HETATM    8  O   UNK N   1      20.553  19.577   0.134  0.00  0.00    -0.775 OA
HETATM    9  H   UNK N   1      19.948  18.905  -0.111  0.00  0.00     0.167 HD
ENDBRANCH   6   8
ENDBRANCH   2   6
ENDBRANCH   1   2
BRANCH   1  10
HETATM   10  C   UNK N   1      21.791  18.831   4.212  0.00  0.00     0.007 C 
BRANCH  10  11
HETATM   11  C   UNK N   1      23.230  18.387   3.984  0.00  0.00     0.044 C 
BRANCH  11  12
HETATM   12  C   UNK N   1      24.305  19.448   3.907  0.00  0.00     0.006 C 
HETATM   13  C   UNK N   1      25.323  19.331   4.759  0.00  0.00     0.026 C 
BRANCH  12  14
HETATM   14  C   UNK N   1      24.317  20.580   2.940  0.00  0.00     0.171 C 
HETATM   15  O   UNK N   1      23.414  21.402   2.922  0.00  0.00    -0.646 OA
BRANCH  14  16
HETATM   16  O   UNK N   1      25.335  20.706   2.064  0.00  0.00    -0.773 OA
HETATM   17  H   UNK N   1      25.165  20.693   1.143  0.00  0.00     0.167 HD
ENDBRANCH  14  16
ENDBRANCH  12  14
ENDBRANCH  11  12
ENDBRANCH  10  11
ENDBRANCH   1  10
TORSDOF 9
ENDMDL
MODEL 5
REMARK VINA RESULT:      -4.6     11.663     12.967
REMARK  9 active torsions:
REMARK  status: ('A' for Active; 'I' for Inactive)
REMARK    1  A    between atoms: C_2  and  N_1 
REMARK    2  A    between atoms: C_2  and  C_3 
REMARK    3  A    between atoms: C_2  and  C_11 
REMARK    4  A    between atoms: C_3  and  C_4 
REMARK    5  A    between atoms: C_4  and  C_5 
REMARK    6  A    between atoms: C_5  and  C_6 
REMARK    7  A    between atoms: C_6  and  C_8 
REMARK    8  A    between atoms: C_8  and  O_9 
REMARK    9  A    between atoms: C_11  and  O_12 
ROOT
HETATM    1  C   UNK N   1      31.597  17.237   6.611  0.00  0.00     0.036 C 
ENDROOT
BRANCH   1   2
HETATM    2  C   UNK N   1      32.569  17.170   7.780  0.00  0.00     0.173 C 
BRANCH   2   3
HETATM    3  N   UNK N   1      31.910  17.693   8.966  0.00  0.00    -0.418 N 
HETATM    4  H   UNK N   1      30.907  17.563   9.098  0.00  0.00     0.150 HD
HETATM    5  H   UNK N   1      32.453  18.193   9.669  0.00  0.00     0.150 HD
ENDBRANCH   2   3
BRANCH   2   6
HETATM    6  C   UNK N   1      33.828  17.948   7.501  0.00  0.00     0.163 C 
HETATM    7  O   UNK N   1      34.317  18.651   8.372  0.00  0.00    -0.648 OA
BRANCH   6   8
HETATM    8  O   UNK N   1      34.413  17.894   6.287  0.00  0.00    -0.775 OA
HETATM    9  H   UNK N   1      34.168  18.468   5.588  0.00  0.00     0.167 HD
ENDBRANCH   6   8
ENDBRANCH   2   6
ENDBRANCH   1   2
BRANCH   1  10
HETATM   10  C   UNK N   1      30.231  16.663   6.959  0.00  0.00     0.007 C 
BRANCH  10  11
HETATM   11  C   UNK N   1      29.181  17.657   6.479  0.00  0.00     0.044 C 
BRANCH  11  12
HETATM   12  C   UNK N   1      28.486  18.520   7.508  0.00  0.00     0.006 C 
HETATM   13  C   UNK N   1      27.875  19.615   7.056  0.00  0.00     0.026 C 
BRANCH  12  14
HETATM   14  C   UNK N   1      28.415  18.219   8.964  0.00  0.00     0.171 C 
HETATM   15  O   UNK N   1      29.237  18.677   9.742  0.00  0.00    -0.646 OA
BRANCH  14  16
HETATM   16  O   UNK N   1      27.433  17.426   9.440  0.00  0.00    -0.773 OA
HETATM   17  H   UNK N   1      26.579  17.780   9.593  0.00  0.00     0.167 HD
ENDBRANCH  14  16
ENDBRANCH  12  14
ENDBRANCH  11  12
ENDBRANCH  10  11
ENDBRANCH   1  10
TORSDOF 9
ENDMDL
MODEL 6
REMARK VINA RESULT:      -4.5      9.183     10.048
REMARK  9 active torsions:
REMARK  status: ('A' for Active; 'I' for Inactive)
REMARK    1  A    between atoms: C_2  and  N_1 
REMARK    2  A    between atoms: C_2  and  C_3 
REMARK    3  A    between atoms: C_2  and  C_11 
REMARK    4  A    between atoms: C_3  and  C_4 
REMARK    5  A    between atoms: C_4  and  C_5 
REMARK    6  A    between atoms: C_5  and  C_6 
REMARK    7  A    between atoms: C_6  and  C_8 
REMARK    8  A    between atoms: C_8  and  O_9 
REMARK    9  A    between atoms: C_11  and  O_12 
ROOT
HETATM    1  C   UNK N   1      21.332  14.729   9.214  0.00  0.00     0.036 C 
ENDROOT
BRANCH   1   2
HETATM    2  C   UNK N   1      20.559  15.471   8.133  0.00  0.00     0.173 C 
BRANCH   2   3
HETATM    3  N   UNK N   1      21.508  16.117   7.240  0.00  0.00    -0.418 N 
HETATM    4  H   UNK N   1      22.510  15.971   7.361  0.00  0.00     0.150 HD
HETATM    5  H   UNK N   1      21.170  16.718   6.490  0.00  0.00     0.150 HD
ENDBRANCH   2   3
BRANCH   2   6
HETATM    6  C   UNK N   1      19.623  16.494   8.722  0.00  0.00     0.163 C 
HETATM    7  O   UNK N   1      18.500  16.166   9.068  0.00  0.00    -0.648 OA
BRANCH   6   8
HETATM    8  O   UNK N   1      20.008  17.780   8.852  0.00  0.00    -0.775 OA
HETATM    9  H   UNK N   1      19.633  18.352   9.493  0.00  0.00     0.167 HD
ENDBRANCH   6   8
ENDBRANCH   2   6
ENDBRANCH   1   2
BRANCH   1  10
HETATM   10  C   UNK N   1      21.098  13.225   9.166  0.00  0.00     0.007 C 
BRANCH  10  11
HETATM   11  C   UNK N   1      21.469  12.662  10.532  0.00  0.00     0.044 C 
BRANCH  11  12
HETATM   12  C   UNK N   1      22.818  11.995  10.691  0.00  0.00     0.006 C 
HETATM   13  C   UNK N   1      23.319  11.395   9.612  0.00  0.00     0.026 C 
BRANCH  12  14
HETATM   14  C   UNK N   1      23.623  11.990  11.944  0.00  0.00     0.171 C 
HETATM   15  O   UNK N   1      23.097  11.792  13.028  0.00  0.00    -0.646 OA
BRANCH  14  16
HETATM   16  O   UNK N   1      24.952  12.210  11.890  0.00  0.00    -0.773 OA
HETATM   17  H   UNK N   1      25.362  12.398  11.068  0.00  0.00     0.167 HD
ENDBRANCH  14  16
ENDBRANCH  12  14
ENDBRANCH  11  12
ENDBRANCH  10  11
ENDBRANCH   1  10
TORSDOF 9
ENDMDL
MODEL 7
REMARK VINA RESULT:      -4.4     14.654     15.762
REMARK  9 active torsions:
REMARK  status: ('A' for Active; 'I' for Inactive)
REMARK    1  A    between atoms: C_2  and  N_1 
REMARK    2  A    between atoms: C_2  and  C_3 
REMARK    3  A    between atoms: C_2  and  C_11 
REMARK    4  A    between atoms: C_3  and  C_4 
REMARK    5  A    between atoms: C_4  and  C_5 
REMARK    6  A    between atoms: C_5  and  C_6 
REMARK    7  A    between atoms: C_6  and  C_8 
REMARK    8  A    between atoms: C_8  and  O_9 
REMARK    9  A    between atoms: C_11  and  O_12 
ROOT
HETATM    1  C   UNK N   1      34.080  15.542   8.740  0.00  0.00     0.036 C 
ENDROOT
BRANCH   1   2
HETATM    2  C   UNK N   1      34.772  15.212  10.056  0.00  0.00     0.173 C 
BRANCH   2   3
HETATM    3  N   UNK N   1      33.758  15.018  11.080  0.00  0.00    -0.418 N 
HETATM    4  H   UNK N   1      33.817  14.227  11.721  0.00  0.00     0.150 HD
HETATM    5  H   UNK N   1      32.983  15.676  11.157  0.00  0.00     0.150 HD
ENDBRANCH   2   3
BRANCH   2   6
HETATM    6  C   UNK N   1      35.726  16.301  10.471  0.00  0.00     0.163 C 
HETATM    7  O   UNK N   1      35.411  17.473  10.335  0.00  0.00    -0.648 OA
BRANCH   6   8
HETATM    8  O   UNK N   1      36.939  15.995  10.974  0.00  0.00    -0.775 OA
HETATM    9  H   UNK N   1      37.324  16.476  11.680  0.00  0.00     0.167 HD
ENDBRANCH   6   8
ENDBRANCH   2   6
ENDBRANCH   1   2
BRANCH   1  10
HETATM   10  C   UNK N   1      32.590  15.797   8.916  0.00  0.00     0.007 C 
BRANCH  10  11
HETATM   11  C   UNK N   1      32.267  17.116   8.227  0.00  0.00     0.044 C 
BRANCH  11  12
HETATM   12  C   UNK N   1      32.162  17.131   6.718  0.00  0.00     0.006 C 
HETATM   13  C   UNK N   1      31.005  16.727   6.195  0.00  0.00     0.026 C 
BRANCH  12  14
HETATM   14  C   UNK N   1      33.237  17.587   5.794  0.00  0.00     0.171 C 
HETATM   15  O   UNK N   1      34.350  17.864   6.213  0.00  0.00    -0.646 OA
BRANCH  14  16
HETATM   16  O   UNK N   1      32.985  17.701   4.474  0.00  0.00    -0.773 OA
HETATM   17  H   UNK N   1      33.039  16.947   3.920  0.00  0.00     0.167 HD
ENDBRANCH  14  16
ENDBRANCH  12  14
ENDBRANCH  11  12
ENDBRANCH  10  11
ENDBRANCH   1  10
TORSDOF 9
ENDMDL
MODEL 8
REMARK VINA RESULT:      -4.4     10.823     12.091
REMARK  9 active torsions:
REMARK  status: ('A' for Active; 'I' for Inactive)
REMARK    1  A    between atoms: C_2  and  N_1 
REMARK    2  A    between atoms: C_2  and  C_3 
REMARK    3  A    between atoms: C_2  and  C_11 
REMARK    4  A    between atoms: C_3  and  C_4 
REMARK    5  A    between atoms: C_4  and  C_5 
REMARK    6  A    between atoms: C_5  and  C_6 
REMARK    7  A    between atoms: C_6  and  C_8 
REMARK    8  A    between atoms: C_8  and  O_9 
REMARK    9  A    between atoms: C_11  and  O_12 
ROOT
HETATM    1  C   UNK N   1      27.769  24.259  -5.599  0.00  0.00     0.036 C 
ENDROOT
BRANCH   1   2
HETATM    2  C   UNK N   1      26.551  23.964  -4.735  0.00  0.00     0.173 C 
BRANCH   2   3
HETATM    3  N   UNK N   1      25.382  24.563  -5.358  0.00  0.00    -0.418 N 
HETATM    4  H   UNK N   1      24.445  24.250  -5.103  0.00  0.00     0.150 HD
HETATM    5  H   UNK N   1      25.499  25.299  -6.054  0.00  0.00     0.150 HD
ENDBRANCH   2   3
BRANCH   2   6
HETATM    6  C   UNK N   1      26.721  24.493  -3.335  0.00  0.00     0.163 C 
HETATM    7  O   UNK N   1      27.184  23.774  -2.463  0.00  0.00    -0.648 OA
BRANCH   6   8
HETATM    8  O   UNK N   1      26.344  25.751  -3.027  0.00  0.00    -0.775 OA
HETATM    9  H   UNK N   1      26.966  26.434  -2.870  0.00  0.00     0.167 HD
ENDBRANCH   6   8
ENDBRANCH   2   6
ENDBRANCH   1   2
BRANCH   1  10
HETATM   10  C   UNK N   1      28.717  23.071  -5.691  0.00  0.00     0.007 C 
BRANCH  10  11
HETATM   11  C   UNK N   1      29.901  23.357  -4.777  0.00  0.00     0.044 C 
BRANCH  11  12
HETATM   12  C   UNK N   1      30.432  22.233  -3.916  0.00  0.00     0.006 C 
HETATM   13  C   UNK N   1      30.450  21.018  -4.462  0.00  0.00     0.026 C 
BRANCH  12  14
HETATM   14  C   UNK N   1      30.954  22.396  -2.530  0.00  0.00     0.171 C 
HETATM   15  O   UNK N   1      32.030  21.920  -2.205  0.00  0.00    -0.646 OA
BRANCH  14  16
HETATM   16  O   UNK N   1      30.231  23.074  -1.615  0.00  0.00    -0.773 OA
HETATM   17  H   UNK N   1      30.569  23.867  -1.248  0.00  0.00     0.167 HD
ENDBRANCH  14  16
ENDBRANCH  12  14
ENDBRANCH  11  12
ENDBRANCH  10  11
ENDBRANCH   1  10
TORSDOF 9
ENDMDL
MODEL 9
REMARK VINA RESULT:      -4.3      9.087     10.074
REMARK  9 active torsions:
REMARK  status: ('A' for Active; 'I' for Inactive)
REMARK    1  A    between atoms: C_2  and  N_1 
REMARK    2  A    between atoms: C_2  and  C_3 
REMARK    3  A    between atoms: C_2  and  C_11 
REMARK    4  A    between atoms: C_3  and  C_4 
REMARK    5  A    between atoms: C_4  and  C_5 
REMARK    6  A    between atoms: C_5  and  C_6 
REMARK    7  A    between atoms: C_6  and  C_8 
REMARK    8  A    between atoms: C_8  and  O_9 
REMARK    9  A    between atoms: C_11  and  O_12 
ROOT
HETATM    1  C   UNK N   1      22.631  13.087  10.091  0.00  0.00     0.036 C 
ENDROOT
BRANCH   1   2
HETATM    2  C   UNK N   1      22.666  11.933  11.083  0.00  0.00     0.173 C 
BRANCH   2   3
HETATM    3  N   UNK N   1      21.387  11.870  11.770  0.00  0.00    -0.418 N 
HETATM    4  H   UNK N   1      21.305  12.181  12.738  0.00  0.00     0.150 HD
HETATM    5  H   UNK N   1      20.566  11.511  11.282  0.00  0.00     0.150 HD
ENDBRANCH   2   3
BRANCH   2   6
HETATM    6  C   UNK N   1      23.783  12.092  12.081  0.00  0.00     0.163 C 
HETATM    7  O   UNK N   1      23.551  12.001  13.276  0.00  0.00    -0.648 OA
BRANCH   6   8
HETATM    8  O   UNK N   1      25.039  12.358  11.667  0.00  0.00    -0.775 OA
HETATM    9  H   UNK N   1      25.217  12.799  10.860  0.00  0.00     0.167 HD
ENDBRANCH   6   8
ENDBRANCH   2   6
ENDBRANCH   1   2
BRANCH   1  10
HETATM   10  C   UNK N   1      21.223  13.624   9.875  0.00  0.00     0.007 C 
BRANCH  10  11
HETATM   11  C   UNK N   1      21.039  13.838   8.378  0.00  0.00     0.044 C 
BRANCH  11  12
HETATM   12  C   UNK N   1      20.502  15.170   7.904  0.00  0.00     0.006 C 
HETATM   13  C   UNK N   1      20.515  16.168   8.786  0.00  0.00     0.026 C 
BRANCH  12  14
HETATM   14  C   UNK N   1      19.995  15.443   6.530  0.00  0.00     0.171 C 
HETATM   15  O   UNK N   1      18.824  15.731   6.339  0.00  0.00    -0.646 OA
BRANCH  14  16
HETATM   16  O   UNK N   1      20.834  15.371   5.477  0.00  0.00    -0.773 OA
HETATM   17  H   UNK N   1      21.309  14.580   5.311  0.00  0.00     0.167 HD
ENDBRANCH  14  16
ENDBRANCH  12  14
ENDBRANCH  11  12
ENDBRANCH  10  11
ENDBRANCH   1  10
TORSDOF 9
ENDMDL
