MODEL 1
REMARK VINA RESULT:      -5.2      0.000      0.000
REMARK  2 active torsions:
REMARK  status: ('A' for Active; 'I' for Inactive)
REMARK    1  A    between atoms: O_1  and  S_2 
REMARK    2  A    between atoms: S_2  and  C_5 
ROOT
HETATM    1  C   UNK N   1      22.036  13.408   9.730  0.00  0.00     0.072 A 
HETATM    2  C   UNK N   1      21.876  12.648  10.891  0.00  0.00     0.025 A 
HETATM    3  C   UNK N   1      22.974  11.981  11.447  0.00  0.00     0.002 A 
HETATM    4  C   UNK N   1      24.230  12.080  10.843  0.00  0.00    -0.083 A 
HETATM    5 Hg   UNK N   1      25.863  11.154  11.704  0.00  0.00     0.083 Hg
HETATM    6  C   UNK N   1      24.389  12.832   9.675  0.00  0.00     0.002 A 
HETATM    7  C   UNK N   1      23.290  13.499   9.119  0.00  0.00     0.025 A 
ENDROOT
BRANCH   1   8
HETATM    8  S   UNK N   1      20.654  14.342   9.082  0.00  0.00     0.129 S 
HETATM    9  O   UNK N   1      19.363  14.100   9.876  0.00  0.00    -0.598 OA
HETATM   10  O   UNK N   1      20.255  13.823   7.693  0.00  0.00    -0.598 OA
BRANCH   8  11
HETATM   11  O   UNK N   1      20.776  16.046   8.910  0.00  0.00    -0.292 OA
HETATM   12  H   UNK N   1      20.219  16.773   9.228  0.00  0.00     0.232 HD
ENDBRANCH   8  11
ENDBRANCH   1   8
TORSDOF 2
ENDMDL
MODEL 2
REMARK VINA RESULT:      -5.1     11.852     12.778
REMARK  2 active torsions:
REMARK  status: ('A' for Active; 'I' for Inactive)
REMARK    1  A    between atoms: O_1  and  S_2 
REMARK    2  A    between atoms: S_2  and  C_5 
ROOT
HETATM    1  C   UNK N   1      34.488  16.705   9.355  0.00  0.00     0.072 A 
HETATM    2  C   UNK N   1      33.724  15.547   9.194  0.00  0.00     0.025 A 
HETATM    3  C   UNK N   1      33.776  14.534  10.159  0.00  0.00     0.002 A 
HETATM    4  C   UNK N   1      34.588  14.685  11.285  0.00  0.00    -0.083 A 
HETATM    5 Hg   UNK N   1      34.610  13.221  12.742  0.00  0.00     0.083 Hg
HETATM    6  C   UNK N   1      35.362  15.838  11.442  0.00  0.00     0.002 A 
HETATM    7  C   UNK N   1      35.310  16.851  10.477  0.00  0.00     0.025 A 
ENDROOT
BRANCH   1   8
HETATM    8  S   UNK N   1      34.340  18.040   8.173  0.00  0.00     0.129 S 
HETATM    9  O   UNK N   1      35.276  19.213   8.498  0.00  0.00    -0.598 OA
HETATM   10  O   UNK N   1      32.964  18.713   8.287  0.00  0.00    -0.598 OA
BRANCH   8  11
HETATM   11  O   UNK N   1      34.554  17.731   6.499  0.00  0.00    -0.292 OA
HETATM   12  H   UNK N   1      34.079  18.044   5.714  0.00  0.00     0.232 HD
ENDBRANCH   8  11
ENDBRANCH   1   8
TORSDOF 2
ENDMDL
MODEL 3
REMARK VINA RESULT:      -4.9     10.954     11.637
REMARK  2 active torsions:
REMARK  status: ('A' for Active; 'I' for Inactive)
REMARK    1  A    between atoms: O_1  and  S_2 
REMARK    2  A    between atoms: S_2  and  C_5 
ROOT
HETATM    1  C   UNK N   1      32.162  17.679   7.764  0.00  0.00     0.072 A 
HETATM    2  C   UNK N   1      31.410  16.980   6.817  0.00  0.00     0.025 A 
HETATM    3  C   UNK N   1      30.012  16.973   6.900  0.00  0.00     0.002 A 
HETATM    4  C   UNK N   1      29.371  17.669   7.926  0.00  0.00    -0.083 A 
HETATM    5 Hg   UNK N   1      27.307  17.716   8.006  0.00  0.00     0.083 Hg
HETATM    6  C   UNK N   1      30.122  18.360   8.881  0.00  0.00     0.002 A 
HETATM    7  C   UNK N   1      31.520  18.368   8.798  0.00  0.00     0.025 A 
ENDROOT
BRANCH   1   8
HETATM    8  S   UNK N   1      33.940  17.772   7.595  0.00  0.00     0.129 S 
HETATM    9  O   UNK N   1      34.390  17.727   6.128  0.00  0.00    -0.598 OA
HETATM   10  O   UNK N   1      34.603  16.503   8.151  0.00  0.00    -0.598 OA
BRANCH   8  11
HETATM   11  O   UNK N   1      34.802  19.079   8.301  0.00  0.00    -0.292 OA
HETATM   12  H   UNK N   1      34.543  19.754   8.946  0.00  0.00     0.232 HD
ENDBRANCH   8  11
ENDBRANCH   1   8
TORSDOF 2
ENDMDL
MODEL 4
REMARK VINA RESULT:      -4.8     14.612     15.274
REMARK  2 active torsions:
REMARK  status: ('A' for Active; 'I' for Inactive)
REMARK    1  A    between atoms: O_1  and  S_2 
REMARK    2  A    between atoms: S_2  and  C_5 
ROOT
HETATM    1  C   UNK N   1      35.681  12.858  16.363  0.00  0.00     0.072 A 
HETATM    2  C   UNK N   1      35.375  13.844  17.303  0.00  0.00     0.025 A 
HETATM    3  C   UNK N   1      35.161  13.494  18.641  0.00  0.00     0.002 A 
HETATM    4  C   UNK N   1      35.259  12.158  19.037  0.00  0.00    -0.083 A 
HETATM    5 Hg   UNK N   1      35.013  11.651  21.024  0.00  0.00     0.083 Hg
HETATM    6  C   UNK N   1      35.554  11.168  18.095  0.00  0.00     0.002 A 
HETATM    7  C   UNK N   1      35.767  11.518  16.756  0.00  0.00     0.025 A 
ENDROOT
BRANCH   1   8
HETATM    8  S   UNK N   1      36.054  13.322  14.676  0.00  0.00     0.129 S 
HETATM    9  O   UNK N   1      34.790  13.452  13.814  0.00  0.00    -0.598 OA
HETATM   10  O   UNK N   1      36.795  12.187  13.954  0.00  0.00    -0.598 OA
BRANCH   8  11
HETATM   11  O   UNK N   1      36.975  14.735  14.360  0.00  0.00    -0.292 OA
HETATM   12  H   UNK N   1      37.014  15.328  13.593  0.00  0.00     0.232 HD
ENDBRANCH   8  11
ENDBRANCH   1   8
TORSDOF 2
ENDMDL
MODEL 5
REMARK VINA RESULT:      -4.8     14.115     14.776
REMARK  2 active torsions:
REMARK  status: ('A' for Active; 'I' for Inactive)
REMARK    1  A    between atoms: O_1  and  S_2 
REMARK    2  A    between atoms: S_2  and  C_5 
ROOT
HETATM    1  C   UNK N   1      35.004  11.966  16.441  0.00  0.00     0.072 A 
HETATM    2  C   UNK N   1      35.209  11.008  17.436  0.00  0.00     0.025 A 
HETATM    3  C   UNK N   1      35.379  11.407  18.767  0.00  0.00     0.002 A 
HETATM    4  C   UNK N   1      35.338  12.763  19.099  0.00  0.00    -0.083 A 
HETATM    5 Hg   UNK N   1      35.517  13.346  21.073  0.00  0.00     0.083 Hg
HETATM    6  C   UNK N   1      35.144  13.723  18.102  0.00  0.00     0.002 A 
HETATM    7  C   UNK N   1      34.974  13.324  16.771  0.00  0.00     0.025 A 
ENDROOT
BRANCH   1   8
HETATM    8  S   UNK N   1      34.686  11.446  14.758  0.00  0.00     0.129 S 
HETATM    9  O   UNK N   1      34.426  12.634  13.821  0.00  0.00    -0.598 OA
HETATM   10  O   UNK N   1      33.350  10.694  14.668  0.00  0.00    -0.598 OA
BRANCH   8  11
HETATM   11  O   UNK N   1      35.820  10.452  13.939  0.00  0.00    -0.292 OA
HETATM   12  H   UNK N   1      35.800  10.025  13.068  0.00  0.00     0.232 HD
ENDBRANCH   8  11
ENDBRANCH   1   8
TORSDOF 2
ENDMDL
MODEL 6
REMARK VINA RESULT:      -4.7     11.566     12.585
REMARK  2 active torsions:
REMARK  status: ('A' for Active; 'I' for Inactive)
REMARK    1  A    between atoms: O_1  and  S_2 
REMARK    2  A    between atoms: S_2  and  C_5 
ROOT
HETATM    1  C   UNK N   1      32.763  17.295   6.365  0.00  0.00     0.072 A 
HETATM    2  C   UNK N   1      33.144  17.532   5.043  0.00  0.00     0.025 A 
HETATM    3  C   UNK N   1      32.175  17.590   4.035  0.00  0.00     0.002 A 
HETATM    4  C   UNK N   1      30.826  17.416   4.353  0.00  0.00    -0.083 A 
HETATM    5 Hg   UNK N   1      29.390  17.572   2.876  0.00  0.00     0.083 Hg
HETATM    6  C   UNK N   1      30.444  17.167   5.675  0.00  0.00     0.002 A 
HETATM    7  C   UNK N   1      31.414  17.109   6.683  0.00  0.00     0.025 A 
ENDROOT
BRANCH   1   8
HETATM    8  S   UNK N   1      33.993  17.325   7.664  0.00  0.00     0.129 S 
HETATM    9  O   UNK N   1      34.815  18.622   7.659  0.00  0.00    -0.598 OA
HETATM   10  O   UNK N   1      35.084  16.277   7.400  0.00  0.00    -0.598 OA
BRANCH   8  11
HETATM   11  O   UNK N   1      33.521  17.085   9.297  0.00  0.00    -0.292 OA
HETATM   12  H   UNK N   1      33.419  16.283   9.833  0.00  0.00     0.232 HD
ENDBRANCH   8  11
ENDBRANCH   1   8
TORSDOF 2
ENDMDL
MODEL 7
REMARK VINA RESULT:      -4.7     10.945     11.548
REMARK  2 active torsions:
REMARK  status: ('A' for Active; 'I' for Inactive)
REMARK    1  A    between atoms: O_1  and  S_2 
REMARK    2  A    between atoms: S_2  and  C_5 
ROOT
HETATM    1  C   UNK N   1      32.099  17.703   7.710  0.00  0.00     0.072 A 
HETATM    2  C   UNK N   1      31.477  18.365   8.771  0.00  0.00     0.025 A 
HETATM    3  C   UNK N   1      30.082  18.351   8.883  0.00  0.00     0.002 A 
HETATM    4  C   UNK N   1      29.313  17.670   7.937  0.00  0.00    -0.083 A 
HETATM    5 Hg   UNK N   1      27.259  17.590   8.143  0.00  0.00     0.083 Hg
HETATM    6  C   UNK N   1      29.934  17.016   6.868  0.00  0.00     0.002 A 
HETATM    7  C   UNK N   1      31.329  17.031   6.756  0.00  0.00     0.025 A 
ENDROOT
BRANCH   1   8
HETATM    8  S   UNK N   1      33.885  17.637   7.627  0.00  0.00     0.129 S 
HETATM    9  O   UNK N   1      34.544  18.868   8.266  0.00  0.00    -0.598 OA
HETATM   10  O   UNK N   1      34.364  17.760   6.173  0.00  0.00    -0.598 OA
BRANCH   8  11
HETATM   11  O   UNK N   1      34.723  16.282   8.266  0.00  0.00    -0.292 OA
HETATM   12  H   UNK N   1      35.096  16.103   9.143  0.00  0.00     0.232 HD
ENDBRANCH   8  11
ENDBRANCH   1   8
TORSDOF 2
ENDMDL
MODEL 8
REMARK VINA RESULT:      -4.6     19.708     20.671
REMARK  2 active torsions:
REMARK  status: ('A' for Active; 'I' for Inactive)
REMARK    1  A    between atoms: O_1  and  S_2 
REMARK    2  A    between atoms: S_2  and  C_5 
ROOT
HETATM    1  C   UNK N   1      26.300  27.650  -4.111  0.00  0.00     0.072 A 
HETATM    2  C   UNK N   1      26.738  26.440  -3.569  0.00  0.00     0.025 A 
HETATM    3  C   UNK N   1      26.304  25.228  -4.120  0.00  0.00     0.002 A 
HETATM    4  C   UNK N   1      25.437  25.231  -5.216  0.00  0.00    -0.083 A 
HETATM    5 Hg   UNK N   1      24.854  23.444  -6.072  0.00  0.00     0.083 Hg
HETATM    6  C   UNK N   1      24.990  26.442  -5.752  0.00  0.00     0.002 A 
HETATM    7  C   UNK N   1      25.424  27.653  -5.201  0.00  0.00     0.025 A 
ENDROOT
BRANCH   1   8
HETATM    8  S   UNK N   1      26.938  29.194  -3.471  0.00  0.00     0.129 S 
HETATM    9  O   UNK N   1      28.287  29.573  -4.099  0.00  0.00    -0.598 OA
HETATM   10  O   UNK N   1      27.326  29.047  -1.992  0.00  0.00    -0.598 OA
BRANCH   8  11
HETATM   11  O   UNK N   1      25.979  30.615  -3.548  0.00  0.00    -0.292 OA
HETATM   12  H   UNK N   1      26.015  31.393  -4.126  0.00  0.00     0.232 HD
ENDBRANCH   8  11
ENDBRANCH   1   8
TORSDOF 2
ENDMDL
MODEL 9
REMARK VINA RESULT:      -4.5     19.420     20.332
REMARK  2 active torsions:
REMARK  status: ('A' for Active; 'I' for Inactive)
REMARK    1  A    between atoms: O_1  and  S_2 
REMARK    2  A    between atoms: S_2  and  C_5 
ROOT
HETATM    1  C   UNK N   1      25.914  25.135  -5.822  0.00  0.00     0.072 A 
HETATM    2  C   UNK N   1      26.468  25.013  -4.546  0.00  0.00     0.025 A 
HETATM    3  C   UNK N   1      26.403  26.086  -3.649  0.00  0.00     0.002 A 
HETATM    4  C   UNK N   1      25.781  27.277  -4.031  0.00  0.00    -0.083 A 
HETATM    5 Hg   UNK N   1      25.624  28.835  -2.684  0.00  0.00     0.083 Hg
HETATM    6  C   UNK N   1      25.237  27.404  -5.312  0.00  0.00     0.002 A 
HETATM    7  C   UNK N   1      25.301  26.331  -6.209  0.00  0.00     0.025 A 
ENDROOT
BRANCH   1   8
HETATM    8  S   UNK N   1      25.907  23.727  -6.926  0.00  0.00     0.129 S 
HETATM    9  O   UNK N   1      25.087  23.988  -8.198  0.00  0.00    -0.598 OA
HETATM   10  O   UNK N   1      25.133  22.556  -6.305  0.00  0.00    -0.598 OA
BRANCH   8  11
HETATM   11  O   UNK N   1      27.391  23.053  -7.466  0.00  0.00    -0.292 OA
HETATM   12  H   UNK N   1      27.909  23.186  -8.274  0.00  0.00     0.232 HD
ENDBRANCH   8  11
ENDBRANCH   1   8
TORSDOF 2
ENDMDL
