REMARK  8 active torsions:
REMARK  status: ('A' for Active; 'I' for Inactive)
REMARK    1  A    between atoms: C_7  and  C_4 
REMARK    2  A    between atoms: O_18  and  C_4 
REMARK    3  A    between atoms: C_6  and  O_14 
REMARK    4  A    between atoms: C_8  and  N_13 
REMARK    5  A    between atoms: O_15  and  C_9 
REMARK    6  A    between atoms: P_20  and  O_17 
REMARK    7  A    between atoms: P_20  and  O_18 
REMARK    8  A    between atoms: S_21  and  P_20 
ROOT
HETATM    1  C   UNK N   1       0.045   2.468  -0.200  0.00  0.00     0.088 C 
HETATM    2  C   UNK N   1      -1.088   3.351   0.180  0.00  0.00     0.153 C 
HETATM    3  C   UNK N   1      -1.992   2.341   0.846  0.00  0.00     0.177 C 
HETATM    4  C   UNK N   1      -0.688   1.179  -0.591  0.00  0.00     0.235 C 
HETATM    5  O   UNK N   1      -1.970   1.198   0.029  0.00  0.00    -0.356 OA
ENDROOT
BRANCH   4   6
HETATM    6  N   UNK N   1       0.034  -0.075  -0.250  0.00  0.00    -0.282 N 
HETATM    7  C   UNK N   1      -0.648  -1.241  -0.442  0.00  0.00     0.109 A 
HETATM    8  C   UNK N   1      -0.072  -2.475  -0.150  0.00  0.00     0.005 A 
HETATM    9  C   UNK N   1      -0.856  -3.726  -0.347  0.00  0.00     0.054 C 
HETATM   10  C   UNK N   1       1.236  -2.510   0.328  0.00  0.00     0.151 A 
HETATM   11  N   UNK N   1       1.915  -1.353   0.506  0.00  0.00    -0.288 N 
HETATM   12  C   UNK N   1       1.342  -0.138   0.232  0.00  0.00     0.330 A 
ATOM     13  HN  UNK N   1       2.874  -1.386   0.853  1.00  0.00     0.172 HD
HETATM   14  O   UNK N   1       2.006   0.868   0.400  0.00  0.00    -0.246 OA
BRANCH  10  15
HETATM   15  O   UNK N   1       1.831  -3.682   0.613  0.00  0.00    -0.346 OA
HETATM   16  H   UNK N   1       1.331  -4.450   0.811  0.00  0.00     0.219 HD
ENDBRANCH  10  15
ENDBRANCH   4   6
BRANCH   2  17
HETATM   17  O   UNK N   1      -0.700   4.367   1.054  0.00  0.00    -0.393 OA
HETATM   18  H   UNK N   1       0.046   4.486   1.662  0.00  0.00     0.210 HD
ENDBRANCH   2  17
BRANCH   3  19
HETATM   19  C   UNK N   1      -3.413   2.865   1.080  0.00  0.00     0.211 C 
BRANCH  19  20
HETATM   20  O   UNK N   1      -3.985   3.431  -0.072  0.00  0.00    -0.324 OA
BRANCH  20  21
HETATM   21  P   UNK N   1      -5.109   4.616   0.545  0.00  0.00     0.243 P 
HETATM   22  S   UNK N   1      -6.276   3.611  -0.328  0.00  0.00    -0.026 SA
BRANCH  21  23
HETATM   23  O   UNK N   1      -5.706   5.765  -0.611  0.00  0.00    -0.337 OA
HETATM   24  H   UNK N   1      -5.317   6.375  -1.257  0.00  0.00     0.218 HD
ENDBRANCH  21  23
BRANCH  21  25
HETATM   25  S   UNK N   1      -3.690   5.556  -0.787  0.00  0.00    -0.087 SA
HETATM   26  H   UNK N   1      -2.731   5.078  -1.625  0.00  0.00     0.111 HD
ENDBRANCH  21  25
ENDBRANCH  20  21
ENDBRANCH  19  20
ENDBRANCH   3  19
TORSDOF 8
