MODEL 1
REMARK VINA RESULT:      -7.4      0.000      0.000
REMARK  15 active torsions:
REMARK  status: ('A' for Active; 'I' for Inactive)
REMARK    1  A    between atoms: C_5  and  C_1 
REMARK    2  A    between atoms: O_29  and  C_1 
REMARK    3  A    between atoms: P_32  and  C_4 
REMARK    4  A    between atoms: P_33  and  C_4 
REMARK    5  A    between atoms: C_7  and  O_20 
REMARK    6  A    between atoms: C_8  and  O_21 
REMARK    7  A    between atoms: N_12  and  C_9 
REMARK    8  A    between atoms: C_11  and  N_19 
REMARK    9  A    between atoms: P_32  and  O_22 
REMARK   10  A    between atoms: P_33  and  O_24 
REMARK   11  A    between atoms: P_34  and  O_26 
REMARK   12  A    between atoms: P_34  and  O_27 
REMARK   13  A    between atoms: P_32  and  O_29 
REMARK   14  A    between atoms: P_33  and  O_31 
REMARK   15  A    between atoms: P_34  and  O_31 
ROOT
HETATM    1  C   UNK N   1      30.420  17.063   8.563  0.00  0.00     0.179 C 
HETATM    2  C   UNK N   1      29.493  17.574   9.649  0.00  0.00     0.182 C 
HETATM    3  C   UNK N   1      28.128  17.311   9.023  0.00  0.00     0.198 C 
HETATM    4  C   UNK N   1      28.489  16.983   7.563  0.00  0.00     0.262 C 
HETATM    5  O   UNK N   1      29.806  17.447   7.346  0.00  0.00    -0.353 OA
ENDROOT
BRANCH   1   6
HETATM    6  C   UNK N   1      31.850  17.558   8.719  0.00  0.00     0.213 C 
BRANCH   6   7
HETATM    7  O   UNK N   1      32.779  16.517   8.674  0.00  0.00    -0.316 OA
BRANCH   7   8
HETATM    8  P   UNK N   1      34.250  17.389   8.444  0.00  0.00     0.249 P 
HETATM    9  O   UNK N   1      34.887  17.065   7.067  0.00  0.00    -0.653 OA
BRANCH   8  10
HETATM   10  C   UNK N   1      34.998  15.661   8.672  0.00  0.00     0.250 C 
BRANCH  10  11
HETATM   11  P   UNK N   1      34.768  14.935  10.424  0.00  0.00     0.258 P 
HETATM   12  O   UNK N   1      34.919  13.392  10.368  0.00  0.00    -0.653 OA
BRANCH  11  13
HETATM   13  O   UNK N   1      33.162  15.173  11.051  0.00  0.00    -0.328 OA
HETATM   14  H   UNK N   1      32.192  15.181  11.098  0.00  0.00     0.220 HD
ENDBRANCH  11  13
BRANCH  11  15
HETATM   15  O   UNK N   1      35.933  15.443  11.631  0.00  0.00    -0.218 OA
BRANCH  15  16
HETATM   16  P   UNK N   1      36.073  14.176  12.830  0.00  0.00     0.398 P 
HETATM   17  O   UNK N   1      36.580  14.826  14.145  0.00  0.00    -0.631 OA
BRANCH  16  18
HETATM   18  O   UNK N   1      37.268  13.006  12.369  0.00  0.00    -0.307 OA
HETATM   19  H   UNK N   1      37.308  12.260  11.750  0.00  0.00     0.222 HD
ENDBRANCH  16  18
BRANCH  16  20
HETATM   20  O   UNK N   1      34.568  13.380  13.186  0.00  0.00    -0.307 OA
HETATM   21  H   UNK N   1      34.231  12.484  13.031  0.00  0.00     0.222 HD
ENDBRANCH  16  20
ENDBRANCH  15  16
ENDBRANCH  11  15
ENDBRANCH  10  11
ENDBRANCH   8  10
BRANCH   8  22
HETATM   22  O   UNK N   1      35.226  17.398   9.879  0.00  0.00    -0.329 OA
HETATM   23  H   UNK N   1      35.308  16.964  10.742  0.00  0.00     0.220 HD
ENDBRANCH   8  22
ENDBRANCH   7   8
ENDBRANCH   6   7
ENDBRANCH   1   6
BRANCH   2  24
HETATM   24  O   UNK N   1      29.687  18.954   9.799  0.00  0.00    -0.390 OA
HETATM   25  H   UNK N   1      29.936  19.830   9.467  0.00  0.00     0.210 HD
ENDBRANCH   2  24
BRANCH   3  26
HETATM   26  O   UNK N   1      27.308  18.441   9.135  0.00  0.00    -0.388 OA
HETATM   27  H   UNK N   1      26.720  19.164   8.869  0.00  0.00     0.210 HD
ENDBRANCH   3  26
BRANCH   4  28
HETATM   28  N   UNK N   1      27.508  17.454   6.584  0.00  0.00    -0.297 N 
HETATM   29  C   UNK N   1      26.532  16.760   5.940  0.00  0.00     0.188 A 
HETATM   30  N   UNK N   1      25.763  17.587   5.171  0.00  0.00    -0.346 N 
HETATM   31  C   UNK N   1      26.297  18.811   5.359  0.00  0.00     0.122 A 
ATOM     32  HN  UNK N   1      24.966  17.335   4.587  1.00  0.00     0.167 HD
HETATM   33  C   UNK N   1      25.918  20.047   4.855  0.00  0.00     0.131 A 
HETATM   34  C   UNK N   1      27.344  18.723   6.197  0.00  0.00     0.142 A 
HETATM   35  N   UNK N   1      26.650  21.142   5.223  0.00  0.00    -0.337 N 
HETATM   36  C   UNK N   1      27.725  21.022   6.070  0.00  0.00     0.183 A 
ATOM     37  HN  UNK N   1      26.395  22.062   4.862  1.00  0.00     0.168 HD
HETATM   38  N   UNK N   1      28.074  19.801   6.575  0.00  0.00    -0.336 N 
ATOM     39  HN  UNK N   1      28.861  19.704   7.216  1.00  0.00     0.168 HD
BRANCH  33  40
HETATM   40  N   UNK N   1      24.803  20.184   4.005  0.00  0.00    -0.383 N 
HETATM   41  H   UNK N   1      24.426  19.417   3.518  0.00  0.00     0.157 HD
HETATM   42  H   UNK N   1      24.390  21.071   3.896  0.00  0.00     0.157 HD
ENDBRANCH  33  40
ENDBRANCH   4  28
TORSDOF 15
ENDMDL
MODEL 2
REMARK VINA RESULT:      -6.7      6.179     10.234
REMARK  15 active torsions:
REMARK  status: ('A' for Active; 'I' for Inactive)
REMARK    1  A    between atoms: C_5  and  C_1 
REMARK    2  A    between atoms: O_29  and  C_1 
REMARK    3  A    between atoms: P_32  and  C_4 
REMARK    4  A    between atoms: P_33  and  C_4 
REMARK    5  A    between atoms: C_7  and  O_20 
REMARK    6  A    between atoms: C_8  and  O_21 
REMARK    7  A    between atoms: N_12  and  C_9 
REMARK    8  A    between atoms: C_11  and  N_19 
REMARK    9  A    between atoms: P_32  and  O_22 
REMARK   10  A    between atoms: P_33  and  O_24 
REMARK   11  A    between atoms: P_34  and  O_26 
REMARK   12  A    between atoms: P_34  and  O_27 
REMARK   13  A    between atoms: P_32  and  O_29 
REMARK   14  A    between atoms: P_33  and  O_31 
REMARK   15  A    between atoms: P_34  and  O_31 
ROOT
HETATM    1  C   UNK N   1      35.235  15.387  10.027  0.00  0.00     0.179 C 
HETATM    2  C   UNK N   1      36.674  14.919   9.923  0.00  0.00     0.182 C 
HETATM    3  C   UNK N   1      36.593  13.556  10.600  0.00  0.00     0.198 C 
HETATM    4  C   UNK N   1      35.201  13.590  11.256  0.00  0.00     0.262 C 
HETATM    5  O   UNK N   1      34.796  14.944  11.298  0.00  0.00    -0.353 OA
ENDROOT
BRANCH   1   6
HETATM    6  C   UNK N   1      35.077  16.883   9.803  0.00  0.00     0.213 C 
BRANCH   6   7
HETATM    7  O   UNK N   1      33.820  17.211   9.291  0.00  0.00    -0.316 OA
BRANCH   7   8
HETATM    8  P   UNK N   1      34.004  16.761   7.635  0.00  0.00     0.249 P 
HETATM    9  O   UNK N   1      34.505  17.954   6.780  0.00  0.00    -0.653 OA
BRANCH   8  10
HETATM   10  C   UNK N   1      32.476  17.867   7.442  0.00  0.00     0.250 C 
BRANCH  10  11
HETATM   11  P   UNK N   1      30.925  17.225   8.353  0.00  0.00     0.258 P 
HETATM   12  O   UNK N   1      30.234  18.401   9.091  0.00  0.00    -0.653 OA
BRANCH  11  13
HETATM   13  O   UNK N   1      31.304  16.100   9.626  0.00  0.00    -0.328 OA
HETATM   14  H   UNK N   1      31.421  15.738  10.519  0.00  0.00     0.220 HD
ENDBRANCH  11  13
BRANCH  11  15
HETATM   15  O   UNK N   1      29.663  16.542   7.345  0.00  0.00    -0.218 OA
BRANCH  15  16
HETATM   16  P   UNK N   1      28.198  17.465   7.596  0.00  0.00     0.398 P 
HETATM   17  O   UNK N   1      27.122  16.915   6.621  0.00  0.00    -0.631 OA
BRANCH  16  18
HETATM   18  O   UNK N   1      28.430  19.134   7.180  0.00  0.00    -0.307 OA
HETATM   19  H   UNK N   1      28.450  19.648   6.358  0.00  0.00     0.222 HD
ENDBRANCH  16  18
BRANCH  16  20
HETATM   20  O   UNK N   1      27.557  17.339   9.208  0.00  0.00    -0.307 OA
HETATM   21  H   UNK N   1      27.691  16.710   9.934  0.00  0.00     0.222 HD
ENDBRANCH  16  20
ENDBRANCH  15  16
ENDBRANCH  11  15
ENDBRANCH  10  11
ENDBRANCH   8  10
BRANCH   8  22
HETATM   22  O   UNK N   1      32.683  15.780   7.082  0.00  0.00    -0.329 OA
HETATM   23  H   UNK N   1      32.163  15.590   6.285  0.00  0.00     0.220 HD
ENDBRANCH   8  22
ENDBRANCH   7   8
ENDBRANCH   6   7
ENDBRANCH   1   6
BRANCH   2  24
HETATM   24  O   UNK N   1      37.484  15.776  10.681  0.00  0.00    -0.390 OA
HETATM   25  H   UNK N   1      37.620  16.499  11.313  0.00  0.00     0.210 HD
ENDBRANCH   2  24
BRANCH   3  26
HETATM   26  O   UNK N   1      37.626  13.406  11.534  0.00  0.00    -0.388 OA
HETATM   27  H   UNK N   1      38.166  13.570  12.322  0.00  0.00     0.210 HD
ENDBRANCH   3  26
BRANCH   4  28
HETATM   28  N   UNK N   1      35.127  12.891  12.540  0.00  0.00    -0.297 N 
HETATM   29  C   UNK N   1      34.612  11.665  12.824  0.00  0.00     0.188 A 
HETATM   30  N   UNK N   1      34.819  11.334  14.133  0.00  0.00    -0.346 N 
HETATM   31  C   UNK N   1      35.476  12.395  14.646  0.00  0.00     0.122 A 
ATOM     32  HN  UNK N   1      34.541  10.478  14.613  1.00  0.00     0.167 HD
HETATM   33  C   UNK N   1      35.972  12.615  15.923  0.00  0.00     0.131 A 
HETATM   34  C   UNK N   1      35.648  13.324  13.691  0.00  0.00     0.142 A 
HETATM   35  N   UNK N   1      36.610  13.800  16.167  0.00  0.00    -0.337 N 
HETATM   36  C   UNK N   1      36.760  14.740  15.177  0.00  0.00     0.183 A 
ATOM     37  HN  UNK N   1      36.980  13.989  17.099  1.00  0.00     0.168 HD
HETATM   38  N   UNK N   1      36.284  14.500  13.918  0.00  0.00    -0.336 N 
ATOM     39  HN  UNK N   1      36.404  15.184  13.172  1.00  0.00     0.168 HD
BRANCH  33  40
HETATM   40  N   UNK N   1      35.845  11.648  16.939  0.00  0.00    -0.383 N 
HETATM   41  H   UNK N   1      36.583  11.450  17.561  0.00  0.00     0.157 HD
HETATM   42  H   UNK N   1      34.997  11.156  17.030  0.00  0.00     0.157 HD
ENDBRANCH  33  40
ENDBRANCH   4  28
TORSDOF 15
ENDMDL
MODEL 3
REMARK VINA RESULT:      -6.7      2.251      3.218
REMARK  15 active torsions:
REMARK  status: ('A' for Active; 'I' for Inactive)
REMARK    1  A    between atoms: C_5  and  C_1 
REMARK    2  A    between atoms: O_29  and  C_1 
REMARK    3  A    between atoms: P_32  and  C_4 
REMARK    4  A    between atoms: P_33  and  C_4 
REMARK    5  A    between atoms: C_7  and  O_20 
REMARK    6  A    between atoms: C_8  and  O_21 
REMARK    7  A    between atoms: N_12  and  C_9 
REMARK    8  A    between atoms: C_11  and  N_19 
REMARK    9  A    between atoms: P_32  and  O_22 
REMARK   10  A    between atoms: P_33  and  O_24 
REMARK   11  A    between atoms: P_34  and  O_26 
REMARK   12  A    between atoms: P_34  and  O_27 
REMARK   13  A    between atoms: P_32  and  O_29 
REMARK   14  A    between atoms: P_33  and  O_31 
REMARK   15  A    between atoms: P_34  and  O_31 
ROOT
HETATM    1  C   UNK N   1      33.322  15.653   5.722  0.00  0.00     0.179 C 
HETATM    2  C   UNK N   1      32.534  14.367   5.882  0.00  0.00     0.182 C 
HETATM    3  C   UNK N   1      31.332  14.641   4.987  0.00  0.00     0.198 C 
HETATM    4  C   UNK N   1      31.464  16.149   4.704  0.00  0.00     0.262 C 
HETATM    5  O   UNK N   1      32.347  16.678   5.673  0.00  0.00    -0.353 OA
ENDROOT
BRANCH   1   6
HETATM    6  C   UNK N   1      34.372  15.847   6.806  0.00  0.00     0.213 C 
BRANCH   6   7
HETATM    7  O   UNK N   1      34.557  17.194   7.128  0.00  0.00    -0.316 OA
BRANCH   7   8
HETATM    8  P   UNK N   1      34.114  17.203   8.796  0.00  0.00     0.249 P 
HETATM    9  O   UNK N   1      35.333  17.533   9.699  0.00  0.00    -0.653 OA
BRANCH   8  10
HETATM   10  C   UNK N   1      35.135  15.605   8.800  0.00  0.00     0.250 C 
BRANCH  10  11
HETATM   11  P   UNK N   1      34.940  14.557  10.386  0.00  0.00     0.258 P 
HETATM   12  O   UNK N   1      34.070  13.311  10.077  0.00  0.00    -0.653 OA
BRANCH  11  13
HETATM   13  O   UNK N   1      34.057  15.382  11.639  0.00  0.00    -0.328 OA
HETATM   14  H   UNK N   1      33.726  16.101  12.200  0.00  0.00     0.220 HD
ENDBRANCH  11  13
BRANCH  11  15
HETATM   15  O   UNK N   1      36.416  13.900  11.065  0.00  0.00    -0.218 OA
BRANCH  15  16
HETATM   16  P   UNK N   1      36.135  13.547  12.756  0.00  0.00     0.398 P 
HETATM   17  O   UNK N   1      36.312  14.870  13.549  0.00  0.00    -0.631 OA
BRANCH  16  18
HETATM   18  O   UNK N   1      37.324  12.443  13.371  0.00  0.00    -0.307 OA
HETATM   19  H   UNK N   1      37.420  11.900  14.169  0.00  0.00     0.222 HD
ENDBRANCH  16  18
BRANCH  16  20
HETATM   20  O   UNK N   1      34.537  12.947  13.090  0.00  0.00    -0.307 OA
HETATM   21  H   UNK N   1      33.969  12.284  12.668  0.00  0.00     0.222 HD
ENDBRANCH  16  20
ENDBRANCH  15  16
ENDBRANCH  11  15
ENDBRANCH  10  11
ENDBRANCH   8  10
BRANCH   8  22
HETATM   22  O   UNK N   1      33.062  15.881   9.193  0.00  0.00    -0.329 OA
HETATM   23  H   UNK N   1      33.054  14.914   9.258  0.00  0.00     0.220 HD
ENDBRANCH   8  22
ENDBRANCH   7   8
ENDBRANCH   6   7
ENDBRANCH   1   6
BRANCH   2  24
HETATM   24  O   UNK N   1      32.116  14.255   7.215  0.00  0.00    -0.390 OA
HETATM   25  H   UNK N   1      31.743  13.763   7.963  0.00  0.00     0.210 HD
ENDBRANCH   2  24
BRANCH   3  26
HETATM   26  O   UNK N   1      30.140  14.320   5.648  0.00  0.00    -0.388 OA
HETATM   27  H   UNK N   1      29.225  14.025   5.775  0.00  0.00     0.210 HD
ENDBRANCH   3  26
BRANCH   4  28
HETATM   28  N   UNK N   1      30.184  16.852   4.596  0.00  0.00    -0.297 N 
HETATM   29  C   UNK N   1      29.404  17.056   3.502  0.00  0.00     0.188 A 
HETATM   30  N   UNK N   1      28.236  17.682   3.838  0.00  0.00    -0.346 N 
HETATM   31  C   UNK N   1      28.324  17.859   5.173  0.00  0.00     0.122 A 
ATOM     32  HN  UNK N   1      27.472  17.954   3.220  1.00  0.00     0.167 HD
HETATM   33  C   UNK N   1      27.423  18.416   6.069  0.00  0.00     0.131 A 
HETATM   34  C   UNK N   1      29.494  17.369   5.616  0.00  0.00     0.142 A 
HETATM   35  N   UNK N   1      27.778  18.463   7.388  0.00  0.00    -0.337 N 
HETATM   36  C   UNK N   1      28.986  17.968   7.815  0.00  0.00     0.183 A 
ATOM     37  HN  UNK N   1      27.135  18.872   8.067  1.00  0.00     0.168 HD
HETATM   38  N   UNK N   1      29.855  17.403   6.923  0.00  0.00    -0.336 N 
ATOM     39  HN  UNK N   1      30.747  17.019   7.232  1.00  0.00     0.168 HD
BRANCH  33  40
HETATM   40  N   UNK N   1      26.172  18.905   5.646  0.00  0.00    -0.383 N 
HETATM   41  H   UNK N   1      26.061  19.823   5.309  0.00  0.00     0.157 HD
HETATM   42  H   UNK N   1      25.386  18.313   5.689  0.00  0.00     0.157 HD
ENDBRANCH  33  40
ENDBRANCH   4  28
TORSDOF 15
ENDMDL
MODEL 4
REMARK VINA RESULT:      -6.7      1.375      2.373
REMARK  15 active torsions:
REMARK  status: ('A' for Active; 'I' for Inactive)
REMARK    1  A    between atoms: C_5  and  C_1 
REMARK    2  A    between atoms: O_29  and  C_1 
REMARK    3  A    between atoms: P_32  and  C_4 
REMARK    4  A    between atoms: P_33  and  C_4 
REMARK    5  A    between atoms: C_7  and  O_20 
REMARK    6  A    between atoms: C_8  and  O_21 
REMARK    7  A    between atoms: N_12  and  C_9 
REMARK    8  A    between atoms: C_11  and  N_19 
REMARK    9  A    between atoms: P_32  and  O_22 
REMARK   10  A    between atoms: P_33  and  O_24 
REMARK   11  A    between atoms: P_34  and  O_26 
REMARK   12  A    between atoms: P_34  and  O_27 
REMARK   13  A    between atoms: P_32  and  O_29 
REMARK   14  A    between atoms: P_33  and  O_31 
REMARK   15  A    between atoms: P_34  and  O_31 
ROOT
HETATM    1  C   UNK N   1      30.009  17.035   7.510  0.00  0.00     0.179 C 
HETATM    2  C   UNK N   1      29.249  17.545   8.720  0.00  0.00     0.182 C 
HETATM    3  C   UNK N   1      27.889  17.859   8.106  0.00  0.00     0.198 C 
HETATM    4  C   UNK N   1      28.177  17.775   6.596  0.00  0.00     0.262 C 
HETATM    5  O   UNK N   1      29.580  17.852   6.436  0.00  0.00    -0.353 OA
ENDROOT
BRANCH   1   6
HETATM    6  C   UNK N   1      31.516  17.023   7.715  0.00  0.00     0.213 C 
BRANCH   6   7
HETATM    7  O   UNK N   1      32.199  17.625   6.657  0.00  0.00    -0.316 OA
BRANCH   7   8
HETATM    8  P   UNK N   1      33.760  16.904   6.811  0.00  0.00     0.249 P 
HETATM    9  O   UNK N   1      33.654  15.428   7.276  0.00  0.00    -0.653 OA
BRANCH   8  10
HETATM   10  C   UNK N   1      33.340  17.028   8.657  0.00  0.00     0.250 C 
BRANCH  10  11
HETATM   11  P   UNK N   1      34.617  16.194   9.807  0.00  0.00     0.258 P 
HETATM   12  O   UNK N   1      35.482  17.283  10.494  0.00  0.00    -0.653 OA
BRANCH  11  13
HETATM   13  O   UNK N   1      35.777  15.226   8.942  0.00  0.00    -0.328 OA
HETATM   14  H   UNK N   1      36.563  14.685   8.764  0.00  0.00     0.220 HD
ENDBRANCH  11  13
BRANCH  11  15
HETATM   15  O   UNK N   1      33.965  15.254  11.134  0.00  0.00    -0.218 OA
BRANCH  15  16
HETATM   16  P   UNK N   1      35.194  14.129  11.669  0.00  0.00     0.398 P 
HETATM   17  O   UNK N   1      34.806  13.649  13.094  0.00  0.00    -0.631 OA
BRANCH  16  18
HETATM   18  O   UNK N   1      36.736  14.909  11.817  0.00  0.00    -0.307 OA
HETATM   19  H   UNK N   1      37.109  15.612  12.372  0.00  0.00     0.222 HD
ENDBRANCH  16  18
BRANCH  16  20
HETATM   20  O   UNK N   1      35.336  12.717  10.663  0.00  0.00    -0.307 OA
HETATM   21  H   UNK N   1      36.074  12.303  10.190  0.00  0.00     0.222 HD
ENDBRANCH  16  20
ENDBRANCH  15  16
ENDBRANCH  11  15
ENDBRANCH  10  11
ENDBRANCH   8  10
BRANCH   8  22
HETATM   22  O   UNK N   1      34.897  17.980   7.562  0.00  0.00    -0.329 OA
HETATM   23  H   UNK N   1      34.935  18.759   8.139  0.00  0.00     0.220 HD
ENDBRANCH   8  22
ENDBRANCH   7   8
ENDBRANCH   6   7
ENDBRANCH   1   6
BRANCH   2  24
HETATM   24  O   UNK N   1      29.851  18.730   9.167  0.00  0.00    -0.390 OA
HETATM   25  H   UNK N   1      30.059  19.386   9.850  0.00  0.00     0.210 HD
ENDBRANCH   2  24
BRANCH   3  26
HETATM   26  O   UNK N   1      27.450  19.129   8.501  0.00  0.00    -0.388 OA
HETATM   27  H   UNK N   1      27.479  20.079   8.693  0.00  0.00     0.210 HD
ENDBRANCH   3  26
BRANCH   4  28
HETATM   28  N   UNK N   1      27.418  18.731   5.788  0.00  0.00    -0.297 N 
HETATM   29  C   UNK N   1      27.795  19.947   5.313  0.00  0.00     0.188 A 
HETATM   30  N   UNK N   1      26.825  20.490   4.518  0.00  0.00    -0.346 N 
HETATM   31  C   UNK N   1      25.838  19.570   4.521  0.00  0.00     0.122 A 
ATOM     32  HN  UNK N   1      26.843  21.387   4.033  1.00  0.00     0.167 HD
HETATM   33  C   UNK N   1      24.615  19.560   3.867  0.00  0.00     0.131 A 
HETATM   34  C   UNK N   1      26.196  18.527   5.288  0.00  0.00     0.142 A 
HETATM   35  N   UNK N   1      23.799  18.478   4.049  0.00  0.00    -0.337 N 
HETATM   36  C   UNK N   1      24.182  17.430   4.851  0.00  0.00     0.183 A 
ATOM     37  HN  UNK N   1      22.891  18.448   3.584  1.00  0.00     0.168 HD
HETATM   38  N   UNK N   1      25.400  17.444   5.472  0.00  0.00    -0.336 N 
ATOM     39  HN  UNK N   1      25.700  16.665   6.056  1.00  0.00     0.168 HD
BRANCH  33  40
HETATM   40  N   UNK N   1      24.222  20.618   3.023  0.00  0.00    -0.383 N 
HETATM   41  H   UNK N   1      24.868  21.284   2.693  0.00  0.00     0.157 HD
HETATM   42  H   UNK N   1      23.277  20.694   2.758  0.00  0.00     0.157 HD
ENDBRANCH  33  40
ENDBRANCH   4  28
TORSDOF 15
ENDMDL
MODEL 5
REMARK VINA RESULT:      -6.7      2.263      3.346
REMARK  15 active torsions:
REMARK  status: ('A' for Active; 'I' for Inactive)
REMARK    1  A    between atoms: C_5  and  C_1 
REMARK    2  A    between atoms: O_29  and  C_1 
REMARK    3  A    between atoms: P_32  and  C_4 
REMARK    4  A    between atoms: P_33  and  C_4 
REMARK    5  A    between atoms: C_7  and  O_20 
REMARK    6  A    between atoms: C_8  and  O_21 
REMARK    7  A    between atoms: N_12  and  C_9 
REMARK    8  A    between atoms: C_11  and  N_19 
REMARK    9  A    between atoms: P_32  and  O_22 
REMARK   10  A    between atoms: P_33  and  O_24 
REMARK   11  A    between atoms: P_34  and  O_26 
REMARK   12  A    between atoms: P_34  and  O_27 
REMARK   13  A    between atoms: P_32  and  O_29 
REMARK   14  A    between atoms: P_33  and  O_31 
REMARK   15  A    between atoms: P_34  and  O_31 
ROOT
HETATM    1  C   UNK N   1      32.874  17.283   5.460  0.00  0.00     0.179 C 
HETATM    2  C   UNK N   1      32.805  16.557   4.131  0.00  0.00     0.182 C 
HETATM    3  C   UNK N   1      31.392  16.904   3.676  0.00  0.00     0.198 C 
HETATM    4  C   UNK N   1      30.771  17.510   4.948  0.00  0.00     0.262 C 
HETATM    5  O   UNK N   1      31.589  17.124   6.034  0.00  0.00    -0.353 OA
ENDROOT
BRANCH   1   6
HETATM    6  C   UNK N   1      34.013  16.798   6.345  0.00  0.00     0.213 C 
BRANCH   6   7
HETATM    7  O   UNK N   1      34.616  17.841   7.050  0.00  0.00    -0.316 OA
BRANCH   7   8
HETATM    8  P   UNK N   1      34.021  17.554   8.645  0.00  0.00     0.249 P 
HETATM    9  O   UNK N   1      35.185  17.341   9.649  0.00  0.00    -0.653 OA
BRANCH   8  10
HETATM   10  C   UNK N   1      34.640  15.801   8.273  0.00  0.00     0.250 C 
BRANCH  10  11
HETATM   11  P   UNK N   1      34.147  14.503   9.585  0.00  0.00     0.258 P 
HETATM   12  O   UNK N   1      33.078  13.548   8.991  0.00  0.00    -0.653 OA
BRANCH  11  13
HETATM   13  O   UNK N   1      33.355  15.204  10.968  0.00  0.00    -0.328 OA
HETATM   14  H   UNK N   1      32.742  15.309  11.713  0.00  0.00     0.220 HD
ENDBRANCH  11  13
BRANCH  11  15
HETATM   15  O   UNK N   1      35.423  13.437  10.137  0.00  0.00    -0.218 OA
BRANCH  15  16
HETATM   16  P   UNK N   1      35.822  13.862  11.786  0.00  0.00     0.398 P 
HETATM   17  O   UNK N   1      37.072  13.038  12.196  0.00  0.00    -0.631 OA
BRANCH  16  18
HETATM   18  O   UNK N   1      34.553  13.403  12.876  0.00  0.00    -0.307 OA
HETATM   19  H   UNK N   1      33.807  12.783  12.852  0.00  0.00     0.222 HD
ENDBRANCH  16  18
BRANCH  16  20
HETATM   20  O   UNK N   1      36.211  15.544  12.001  0.00  0.00    -0.307 OA
HETATM   21  H   UNK N   1      36.094  16.334  11.451  0.00  0.00     0.222 HD
ENDBRANCH  16  20
ENDBRANCH  15  16
ENDBRANCH  11  15
ENDBRANCH  10  11
ENDBRANCH   8  10
BRANCH   8  22
HETATM   22  O   UNK N   1      32.658  16.481   8.643  0.00  0.00    -0.329 OA
HETATM   23  H   UNK N   1      32.143  15.911   8.050  0.00  0.00     0.220 HD
ENDBRANCH   8  22
ENDBRANCH   7   8
ENDBRANCH   6   7
ENDBRANCH   1   6
BRANCH   2  24
HETATM   24  O   UNK N   1      32.901  15.178   4.361  0.00  0.00    -0.390 OA
HETATM   25  H   UNK N   1      33.387  14.379   4.618  0.00  0.00     0.210 HD
ENDBRANCH   2  24
BRANCH   3  26
HETATM   26  O   UNK N   1      30.717  15.757   3.240  0.00  0.00    -0.388 OA
HETATM   27  H   UNK N   1      30.066  15.039   3.227  0.00  0.00     0.210 HD
ENDBRANCH   3  26
BRANCH   4  28
HETATM   28  N   UNK N   1      29.348  17.212   5.120  0.00  0.00    -0.297 N 
HETATM   29  C   UNK N   1      28.759  16.152   5.735  0.00  0.00     0.188 A 
HETATM   30  N   UNK N   1      27.400  16.290   5.764  0.00  0.00    -0.346 N 
HETATM   31  C   UNK N   1      27.171  17.468   5.146  0.00  0.00     0.122 A 
ATOM     32  HN  UNK N   1      26.714  15.649   6.163  1.00  0.00     0.167 HD
HETATM   33  C   UNK N   1      25.983  18.141   4.904  0.00  0.00     0.131 A 
HETATM   34  C   UNK N   1      28.338  18.007   4.757  0.00  0.00     0.142 A 
HETATM   35  N   UNK N   1      26.047  19.340   4.248  0.00  0.00    -0.337 N 
HETATM   36  C   UNK N   1      27.253  19.863   3.849  0.00  0.00     0.183 A 
ATOM     37  HN  UNK N   1      25.187  19.854   4.054  1.00  0.00     0.168 HD
HETATM   38  N   UNK N   1      28.417  19.198   4.113  0.00  0.00    -0.336 N 
ATOM     39  HN  UNK N   1      29.318  19.585   3.834  1.00  0.00     0.168 HD
BRANCH  33  40
HETATM   40  N   UNK N   1      24.744  17.625   5.331  0.00  0.00    -0.383 N 
HETATM   41  H   UNK N   1      24.163  17.107   4.728  0.00  0.00     0.157 HD
HETATM   42  H   UNK N   1      24.450  17.787   6.257  0.00  0.00     0.157 HD
ENDBRANCH  33  40
ENDBRANCH   4  28
TORSDOF 15
ENDMDL
MODEL 6
REMARK VINA RESULT:      -6.7      1.706      2.787
REMARK  15 active torsions:
REMARK  status: ('A' for Active; 'I' for Inactive)
REMARK    1  A    between atoms: C_5  and  C_1 
REMARK    2  A    between atoms: O_29  and  C_1 
REMARK    3  A    between atoms: P_32  and  C_4 
REMARK    4  A    between atoms: P_33  and  C_4 
REMARK    5  A    between atoms: C_7  and  O_20 
REMARK    6  A    between atoms: C_8  and  O_21 
REMARK    7  A    between atoms: N_12  and  C_9 
REMARK    8  A    between atoms: C_11  and  N_19 
REMARK    9  A    between atoms: P_32  and  O_22 
REMARK   10  A    between atoms: P_33  and  O_24 
REMARK   11  A    between atoms: P_34  and  O_26 
REMARK   12  A    between atoms: P_34  and  O_27 
REMARK   13  A    between atoms: P_32  and  O_29 
REMARK   14  A    between atoms: P_33  and  O_31 
REMARK   15  A    between atoms: P_34  and  O_31 
ROOT
HETATM    1  C   UNK N   1      30.887  17.153   6.979  0.00  0.00     0.179 C 
HETATM    2  C   UNK N   1      31.077  16.160   5.848  0.00  0.00     0.182 C 
HETATM    3  C   UNK N   1      30.144  16.735   4.788  0.00  0.00     0.198 C 
HETATM    4  C   UNK N   1      29.339  17.779   5.583  0.00  0.00     0.262 C 
HETATM    5  O   UNK N   1      29.509  17.479   6.953  0.00  0.00    -0.353 OA
ENDROOT
BRANCH   1   6
HETATM    6  C   UNK N   1      31.375  16.628   8.320  0.00  0.00     0.213 C 
BRANCH   6   7
HETATM    7  O   UNK N   1      32.586  15.940   8.211  0.00  0.00    -0.316 OA
BRANCH   7   8
HETATM    8  P   UNK N   1      33.720  17.230   8.379  0.00  0.00     0.249 P 
HETATM    9  O   UNK N   1      34.679  17.298   7.162  0.00  0.00    -0.653 OA
BRANCH   8  10
HETATM   10  C   UNK N   1      34.918  15.785   8.650  0.00  0.00     0.250 C 
BRANCH  10  11
HETATM   11  P   UNK N   1      34.749  14.938  10.354  0.00  0.00     0.258 P 
HETATM   12  O   UNK N   1      35.015  13.417  10.204  0.00  0.00    -0.653 OA
BRANCH  11  13
HETATM   13  O   UNK N   1      33.132  15.017  10.992  0.00  0.00    -0.328 OA
HETATM   14  H   UNK N   1      32.185  15.219  11.057  0.00  0.00     0.220 HD
ENDBRANCH  11  13
BRANCH  11  15
HETATM   15  O   UNK N   1      35.878  15.457  11.591  0.00  0.00    -0.218 OA
BRANCH  15  16
HETATM   16  P   UNK N   1      36.040  14.169  12.764  0.00  0.00     0.398 P 
HETATM   17  O   UNK N   1      36.505  14.806  14.101  0.00  0.00    -0.631 OA
BRANCH  16  18
HETATM   18  O   UNK N   1      37.279  13.048  12.297  0.00  0.00    -0.307 OA
HETATM   19  H   UNK N   1      37.333  12.090  12.158  0.00  0.00     0.222 HD
ENDBRANCH  16  18
BRANCH  16  20
HETATM   20  O   UNK N   1      34.556  13.317  13.079  0.00  0.00    -0.307 OA
HETATM   21  H   UNK N   1      34.208  12.841  13.848  0.00  0.00     0.222 HD
ENDBRANCH  16  20
ENDBRANCH  15  16
ENDBRANCH  11  15
ENDBRANCH  10  11
ENDBRANCH   8  10
BRANCH   8  22
HETATM   22  O   UNK N   1      34.347  17.332   9.995  0.00  0.00    -0.329 OA
HETATM   23  H   UNK N   1      34.980  17.834  10.531  0.00  0.00     0.220 HD
ENDBRANCH   8  22
ENDBRANCH   7   8
ENDBRANCH   6   7
ENDBRANCH   1   6
BRANCH   2  24
HETATM   24  O   UNK N   1      30.607  14.906   6.262  0.00  0.00    -0.390 OA
HETATM   25  H   UNK N   1      30.377  13.977   6.105  0.00  0.00     0.210 HD
ENDBRANCH   2  24
BRANCH   3  26
HETATM   26  O   UNK N   1      29.335  15.729   4.244  0.00  0.00    -0.388 OA
HETATM   27  H   UNK N   1      28.863  15.207   3.578  0.00  0.00     0.210 HD
ENDBRANCH   3  26
BRANCH   4  28
HETATM   28  N   UNK N   1      27.945  17.910   5.156  0.00  0.00    -0.297 N 
HETATM   29  C   UNK N   1      27.408  18.725   4.209  0.00  0.00     0.188 A 
HETATM   30  N   UNK N   1      26.074  18.479   4.046  0.00  0.00    -0.346 N 
HETATM   31  C   UNK N   1      25.806  17.489   4.922  0.00  0.00     0.122 A 
ATOM     32  HN  UNK N   1      25.427  18.939   3.405  1.00  0.00     0.167 HD
HETATM   33  C   UNK N   1      24.624  16.812   5.183  0.00  0.00     0.131 A 
HETATM   34  C   UNK N   1      26.926  17.161   5.588  0.00  0.00     0.142 A 
HETATM   35  N   UNK N   1      24.642  15.834   6.138  0.00  0.00    -0.337 N 
HETATM   36  C   UNK N   1      25.798  15.527   6.815  0.00  0.00     0.183 A 
ATOM     37  HN  UNK N   1      23.785  15.324   6.352  1.00  0.00     0.168 HD
HETATM   38  N   UNK N   1      26.960  16.189   6.532  0.00  0.00    -0.336 N 
ATOM     39  HN  UNK N   1      27.826  15.959   7.018  1.00  0.00     0.168 HD
BRANCH  33  40
HETATM   40  N   UNK N   1      23.439  17.101   4.478  0.00  0.00    -0.383 N 
HETATM   41  H   UNK N   1      23.060  16.473   3.821  0.00  0.00     0.157 HD
HETATM   42  H   UNK N   1      22.978  17.955   4.645  0.00  0.00     0.157 HD
ENDBRANCH  33  40
ENDBRANCH   4  28
TORSDOF 15
ENDMDL
MODEL 7
REMARK VINA RESULT:      -6.7      7.778     11.437
REMARK  15 active torsions:
REMARK  status: ('A' for Active; 'I' for Inactive)
REMARK    1  A    between atoms: C_5  and  C_1 
REMARK    2  A    between atoms: O_29  and  C_1 
REMARK    3  A    between atoms: P_32  and  C_4 
REMARK    4  A    between atoms: P_33  and  C_4 
REMARK    5  A    between atoms: C_7  and  O_20 
REMARK    6  A    between atoms: C_8  and  O_21 
REMARK    7  A    between atoms: N_12  and  C_9 
REMARK    8  A    between atoms: C_11  and  N_19 
REMARK    9  A    between atoms: P_32  and  O_22 
REMARK   10  A    between atoms: P_33  and  O_24 
REMARK   11  A    between atoms: P_34  and  O_26 
REMARK   12  A    between atoms: P_34  and  O_27 
REMARK   13  A    between atoms: P_32  and  O_29 
REMARK   14  A    between atoms: P_33  and  O_31 
REMARK   15  A    between atoms: P_34  and  O_31 
ROOT
HETATM    1  C   UNK N   1      35.162  13.110  12.458  0.00  0.00     0.179 C 
HETATM    2  C   UNK N   1      36.659  13.183  12.692  0.00  0.00     0.182 C 
HETATM    3  C   UNK N   1      36.851  12.085  13.732  0.00  0.00     0.198 C 
HETATM    4  C   UNK N   1      35.404  11.772  14.158  0.00  0.00     0.262 C 
HETATM    5  O   UNK N   1      34.603  12.856  13.734  0.00  0.00    -0.353 OA
ENDROOT
BRANCH   1   6
HETATM    6  C   UNK N   1      34.605  14.349  11.773  0.00  0.00     0.213 C 
BRANCH   6   7
HETATM    7  O   UNK N   1      35.006  14.440  10.439  0.00  0.00    -0.316 OA
BRANCH   7   8
HETATM    8  P   UNK N   1      33.585  15.090   9.706  0.00  0.00     0.249 P 
HETATM    9  O   UNK N   1      33.095  14.195   8.536  0.00  0.00    -0.653 OA
BRANCH   8  10
HETATM   10  C   UNK N   1      34.802  15.458   8.298  0.00  0.00     0.250 C 
BRANCH  10  11
HETATM   11  P   UNK N   1      34.017  16.338   6.796  0.00  0.00     0.258 P 
HETATM   12  O   UNK N   1      34.544  17.794   6.716  0.00  0.00    -0.653 OA
BRANCH  11  13
HETATM   13  O   UNK N   1      32.293  16.528   6.946  0.00  0.00    -0.328 OA
HETATM   14  H   UNK N   1      31.416  16.945   6.940  0.00  0.00     0.220 HD
ENDBRANCH  11  13
BRANCH  11  15
HETATM   15  O   UNK N   1      34.381  15.656   5.223  0.00  0.00    -0.218 OA
BRANCH  15  16
HETATM   16  P   UNK N   1      33.134  16.157   4.102  0.00  0.00     0.398 P 
HETATM   17  O   UNK N   1      31.888  15.266   4.355  0.00  0.00    -0.631 OA
BRANCH  16  18
HETATM   18  O   UNK N   1      33.615  15.872   2.460  0.00  0.00    -0.307 OA
HETATM   19  H   UNK N   1      33.218  15.448   1.684  0.00  0.00     0.222 HD
ENDBRANCH  16  18
BRANCH  16  20
HETATM   20  O   UNK N   1      32.641  17.814   4.298  0.00  0.00    -0.307 OA
HETATM   21  H   UNK N   1      32.525  18.391   5.068  0.00  0.00     0.222 HD
ENDBRANCH  16  20
ENDBRANCH  15  16
ENDBRANCH  11  15
ENDBRANCH  10  11
ENDBRANCH   8  10
BRANCH   8  22
HETATM   22  O   UNK N   1      33.690  16.811   9.507  0.00  0.00    -0.329 OA
HETATM   23  H   UNK N   1      34.331  17.538   9.529  0.00  0.00     0.220 HD
ENDBRANCH   8  22
ENDBRANCH   7   8
ENDBRANCH   6   7
ENDBRANCH   1   6
BRANCH   2  24
HETATM   24  O   UNK N   1      36.970  14.428  13.254  0.00  0.00    -0.390 OA
HETATM   25  H   UNK N   1      37.587  15.070  13.639  0.00  0.00     0.210 HD
ENDBRANCH   2  24
BRANCH   3  26
HETATM   26  O   UNK N   1      37.637  12.545  14.796  0.00  0.00    -0.388 OA
HETATM   27  H   UNK N   1      37.862  12.932  15.656  0.00  0.00     0.210 HD
ENDBRANCH   3  26
BRANCH   4  28
HETATM   28  N   UNK N   1      35.259  11.421  15.571  0.00  0.00    -0.297 N 
HETATM   29  C   UNK N   1      35.149  10.194  16.147  0.00  0.00     0.188 A 
HETATM   30  N   UNK N   1      35.124  10.289  17.510  0.00  0.00    -0.346 N 
HETATM   31  C   UNK N   1      35.219  11.612  17.755  0.00  0.00     0.122 A 
ATOM     32  HN  UNK N   1      35.050   9.530  18.188  1.00  0.00     0.167 HD
HETATM   33  C   UNK N   1      35.270  12.304  18.956  0.00  0.00     0.131 A 
HETATM   34  C   UNK N   1      35.290  12.282  16.592  0.00  0.00     0.142 A 
HETATM   35  N   UNK N   1      35.373  13.667  18.907  0.00  0.00    -0.337 N 
HETATM   36  C   UNK N   1      35.430  14.329  17.705  0.00  0.00     0.183 A 
ATOM     37  HN  UNK N   1      35.408  14.200  19.776  1.00  0.00     0.168 HD
HETATM   38  N   UNK N   1      35.399  13.632  16.529  0.00  0.00    -0.336 N 
ATOM     39  HN  UNK N   1      35.456  14.113  15.632  1.00  0.00     0.168 HD
BRANCH  33  40
HETATM   40  N   UNK N   1      35.238  11.633  20.194  0.00  0.00    -0.383 N 
HETATM   41  H   UNK N   1      35.028  10.673  20.257  0.00  0.00     0.157 HD
HETATM   42  H   UNK N   1      35.428  12.137  21.018  0.00  0.00     0.157 HD
ENDBRANCH  33  40
ENDBRANCH   4  28
TORSDOF 15
ENDMDL
MODEL 8
REMARK VINA RESULT:      -6.7      2.340      4.991
REMARK  15 active torsions:
REMARK  status: ('A' for Active; 'I' for Inactive)
REMARK    1  A    between atoms: C_5  and  C_1 
REMARK    2  A    between atoms: O_29  and  C_1 
REMARK    3  A    between atoms: P_32  and  C_4 
REMARK    4  A    between atoms: P_33  and  C_4 
REMARK    5  A    between atoms: C_7  and  O_20 
REMARK    6  A    between atoms: C_8  and  O_21 
REMARK    7  A    between atoms: N_12  and  C_9 
REMARK    8  A    between atoms: C_11  and  N_19 
REMARK    9  A    between atoms: P_32  and  O_22 
REMARK   10  A    between atoms: P_33  and  O_24 
REMARK   11  A    between atoms: P_34  and  O_26 
REMARK   12  A    between atoms: P_34  and  O_27 
REMARK   13  A    between atoms: P_32  and  O_29 
REMARK   14  A    between atoms: P_33  and  O_31 
REMARK   15  A    between atoms: P_34  and  O_31 
ROOT
HETATM    1  C   UNK N   1      30.594  17.271   8.446  0.00  0.00     0.179 C 
HETATM    2  C   UNK N   1      29.673  17.699   9.573  0.00  0.00     0.182 C 
HETATM    3  C   UNK N   1      28.316  17.269   9.028  0.00  0.00     0.198 C 
HETATM    4  C   UNK N   1      28.633  16.950   7.555  0.00  0.00     0.262 C 
HETATM    5  O   UNK N   1      29.876  17.554   7.258  0.00  0.00    -0.353 OA
ENDROOT
BRANCH   1   6
HETATM    6  C   UNK N   1      31.964  17.927   8.514  0.00  0.00     0.213 C 
BRANCH   6   7
HETATM    7  O   UNK N   1      32.862  17.374   7.600  0.00  0.00    -0.316 OA
BRANCH   7   8
HETATM    8  P   UNK N   1      33.207  15.856   8.346  0.00  0.00     0.249 P 
HETATM    9  O   UNK N   1      34.687  15.777   8.804  0.00  0.00    -0.653 OA
BRANCH   8  10
HETATM   10  C   UNK N   1      34.178  15.589   6.738  0.00  0.00     0.250 C 
BRANCH  10  11
HETATM   11  P   UNK N   1      33.276  16.200   5.169  0.00  0.00     0.258 P 
HETATM   12  O   UNK N   1      33.943  15.579   3.915  0.00  0.00    -0.653 OA
BRANCH  11  13
HETATM   13  O   UNK N   1      33.437  17.916   4.920  0.00  0.00    -0.328 OA
HETATM   14  H   UNK N   1      33.518  18.768   4.462  0.00  0.00     0.220 HD
ENDBRANCH  11  13
BRANCH  11  15
HETATM   15  O   UNK N   1      31.585  15.759   5.028  0.00  0.00    -0.218 OA
BRANCH  15  16
HETATM   16  P   UNK N   1      30.862  16.744   3.775  0.00  0.00     0.398 P 
HETATM   17  O   UNK N   1      29.804  15.874   3.044  0.00  0.00    -0.631 OA
BRANCH  16  18
HETATM   18  O   UNK N   1      32.034  17.198   2.580  0.00  0.00    -0.307 OA
HETATM   19  H   UNK N   1      32.537  18.001   2.369  0.00  0.00     0.222 HD
ENDBRANCH  16  18
BRANCH  16  20
HETATM   20  O   UNK N   1      30.050  18.159   4.379  0.00  0.00    -0.307 OA
HETATM   21  H   UNK N   1      29.343  18.300   5.027  0.00  0.00     0.222 HD
ENDBRANCH  16  20
ENDBRANCH  15  16
ENDBRANCH  11  15
ENDBRANCH  10  11
ENDBRANCH   8  10
BRANCH   8  22
HETATM   22  O   UNK N   1      32.486  14.534   7.482  0.00  0.00    -0.329 OA
HETATM   23  H   UNK N   1      32.505  14.094   6.618  0.00  0.00     0.220 HD
ENDBRANCH   8  22
ENDBRANCH   7   8
ENDBRANCH   6   7
ENDBRANCH   1   6
BRANCH   2  24
HETATM   24  O   UNK N   1      29.716  19.095   9.688  0.00  0.00    -0.390 OA
HETATM   25  H   UNK N   1      29.316  19.977   9.635  0.00  0.00     0.210 HD
ENDBRANCH   2  24
BRANCH   3  26
HETATM   26  O   UNK N   1      27.379  18.301   9.166  0.00  0.00    -0.388 OA
HETATM   27  H   UNK N   1      26.799  18.946   9.597  0.00  0.00     0.210 HD
ENDBRANCH   3  26
BRANCH   4  28
HETATM   28  N   UNK N   1      27.555  17.284   6.624  0.00  0.00    -0.297 N 
HETATM   29  C   UNK N   1      26.552  16.498   6.151  0.00  0.00     0.188 A 
HETATM   30  N   UNK N   1      25.690  17.215   5.369  0.00  0.00    -0.346 N 
HETATM   31  C   UNK N   1      26.195  18.466   5.375  0.00  0.00     0.122 A 
ATOM     32  HN  UNK N   1      24.854  16.880   4.891  1.00  0.00     0.167 HD
HETATM   33  C   UNK N   1      25.729  19.628   4.777  0.00  0.00     0.131 A 
HETATM   34  C   UNK N   1      27.313  18.497   6.119  0.00  0.00     0.142 A 
HETATM   35  N   UNK N   1      26.452  20.775   4.955  0.00  0.00    -0.337 N 
HETATM   36  C   UNK N   1      27.600  20.777   5.709  0.00  0.00     0.183 A 
ATOM     37  HN  UNK N   1      26.134  21.642   4.522  1.00  0.00     0.168 HD
HETATM   38  N   UNK N   1      28.035  19.629   6.310  0.00  0.00    -0.336 N 
ATOM     39  HN  UNK N   1      28.878  19.624   6.884  1.00  0.00     0.168 HD
BRANCH  33  40
HETATM   40  N   UNK N   1      24.540  19.641   4.022  0.00  0.00    -0.383 N 
HETATM   41  H   UNK N   1      24.007  20.462   3.910  0.00  0.00     0.157 HD
HETATM   42  H   UNK N   1      24.233  18.809   3.595  0.00  0.00     0.157 HD
ENDBRANCH  33  40
ENDBRANCH   4  28
TORSDOF 15
ENDMDL
MODEL 9
REMARK VINA RESULT:      -6.6      7.685     10.967
REMARK  15 active torsions:
REMARK  status: ('A' for Active; 'I' for Inactive)
REMARK    1  A    between atoms: C_5  and  C_1 
REMARK    2  A    between atoms: O_29  and  C_1 
REMARK    3  A    between atoms: P_32  and  C_4 
REMARK    4  A    between atoms: P_33  and  C_4 
REMARK    5  A    between atoms: C_7  and  O_20 
REMARK    6  A    between atoms: C_8  and  O_21 
REMARK    7  A    between atoms: N_12  and  C_9 
REMARK    8  A    between atoms: C_11  and  N_19 
REMARK    9  A    between atoms: P_32  and  O_22 
REMARK   10  A    between atoms: P_33  and  O_24 
REMARK   11  A    between atoms: P_34  and  O_26 
REMARK   12  A    between atoms: P_34  and  O_27 
REMARK   13  A    between atoms: P_32  and  O_29 
REMARK   14  A    between atoms: P_33  and  O_31 
REMARK   15  A    between atoms: P_34  and  O_31 
ROOT
HETATM    1  C   UNK N   1      25.312  17.268   4.546  0.00  0.00     0.179 C 
HETATM    2  C   UNK N   1      25.591  18.756   4.458  0.00  0.00     0.182 C 
HETATM    3  C   UNK N   1      27.115  18.772   4.414  0.00  0.00     0.198 C 
HETATM    4  C   UNK N   1      27.474  17.324   4.796  0.00  0.00     0.262 C 
HETATM    5  O   UNK N   1      26.326  16.754   5.391  0.00  0.00    -0.353 OA
ENDROOT
BRANCH   1   6
HETATM    6  C   UNK N   1      23.899  16.953   5.010  0.00  0.00     0.213 C 
BRANCH   6   7
HETATM    7  O   UNK N   1      22.943  17.248   4.036  0.00  0.00    -0.316 OA
BRANCH   7   8
HETATM    8  P   UNK N   1      21.699  17.966   4.992  0.00  0.00     0.249 P 
HETATM    9  O   UNK N   1      22.277  18.596   6.287  0.00  0.00    -0.653 OA
BRANCH   8  10
HETATM   10  C   UNK N   1      22.067  16.478   6.108  0.00  0.00     0.250 C 
BRANCH  10  11
HETATM   11  P   UNK N   1      20.692  16.092   7.377  0.00  0.00     0.258 P 
HETATM   12  O   UNK N   1      21.318  15.433   8.633  0.00  0.00    -0.653 OA
BRANCH  11  13
HETATM   13  O   UNK N   1      19.556  14.903   6.804  0.00  0.00    -0.328 OA
HETATM   14  H   UNK N   1      19.208  14.064   6.462  0.00  0.00     0.220 HD
ENDBRANCH  11  13
BRANCH  11  15
HETATM   15  O   UNK N   1      19.809  17.470   8.003  0.00  0.00    -0.218 OA
BRANCH  15  16
HETATM   16  P   UNK N   1      18.321  16.892   8.720  0.00  0.00     0.398 P 
HETATM   17  O   UNK N   1      17.301  16.667   7.571  0.00  0.00    -0.631 OA
BRANCH  16  18
HETATM   18  O   UNK N   1      17.624  18.087   9.767  0.00  0.00    -0.307 OA
HETATM   19  H   UNK N   1      16.785  18.191  10.241  0.00  0.00     0.222 HD
ENDBRANCH  16  18
BRANCH  16  20
HETATM   20  O   UNK N   1      18.493  15.385   9.570  0.00  0.00    -0.307 OA
HETATM   21  H   UNK N   1      18.104  14.504   9.456  0.00  0.00     0.222 HD
ENDBRANCH  16  20
ENDBRANCH  15  16
ENDBRANCH  11  15
ENDBRANCH  10  11
ENDBRANCH   8  10
BRANCH   8  22
HETATM   22  O   UNK N   1      20.281  16.968   5.061  0.00  0.00    -0.329 OA
HETATM   23  H   UNK N   1      19.419  16.905   5.503  0.00  0.00     0.220 HD
ENDBRANCH   8  22
ENDBRANCH   7   8
ENDBRANCH   6   7
ENDBRANCH   1   6
BRANCH   2  24
HETATM   24  O   UNK N   1      25.146  19.372   5.636  0.00  0.00    -0.390 OA
HETATM   25  H   UNK N   1      25.293  19.832   6.477  0.00  0.00     0.210 HD
ENDBRANCH   2  24
BRANCH   3  26
HETATM   26  O   UNK N   1      27.626  19.710   5.320  0.00  0.00    -0.388 OA
HETATM   27  H   UNK N   1      27.727  20.549   5.795  0.00  0.00     0.210 HD
ENDBRANCH   3  26
BRANCH   4  28
HETATM   28  N   UNK N   1      28.698  17.200   5.589  0.00  0.00    -0.297 N 
HETATM   29  C   UNK N   1      29.980  17.022   5.173  0.00  0.00     0.188 A 
HETATM   30  N   UNK N   1      30.849  17.048   6.226  0.00  0.00    -0.346 N 
HETATM   31  C   UNK N   1      30.062  17.245   7.304  0.00  0.00     0.122 A 
ATOM     32  HN  UNK N   1      31.864  16.943   6.203  1.00  0.00     0.167 HD
HETATM   33  C   UNK N   1      30.390  17.384   8.645  0.00  0.00     0.131 A 
HETATM   34  C   UNK N   1      28.778  17.325   6.917  0.00  0.00     0.142 A 
HETATM   35  N   UNK N   1      29.372  17.581   9.537  0.00  0.00    -0.337 N 
HETATM   36  C   UNK N   1      28.066  17.646   9.116  0.00  0.00     0.183 A 
ATOM     37  HN  UNK N   1      29.586  17.683  10.530  1.00  0.00     0.168 HD
HETATM   38  N   UNK N   1      27.760  17.528   7.789  0.00  0.00    -0.336 N 
ATOM     39  HN  UNK N   1      26.796  17.589   7.466  1.00  0.00     0.168 HD
BRANCH  33  40
HETATM   40  N   UNK N   1      31.728  17.344   9.084  0.00  0.00    -0.383 N 
HETATM   41  H   UNK N   1      32.024  16.722   9.787  0.00  0.00     0.157 HD
HETATM   42  H   UNK N   1      32.384  17.956   8.678  0.00  0.00     0.157 HD
ENDBRANCH  33  40
ENDBRANCH   4  28
TORSDOF 15
ENDMDL
