MODEL 1
REMARK VINA RESULT:      -7.0      0.000      0.000
REMARK  12 active torsions:
REMARK  status: ('A' for Active; 'I' for Inactive)
REMARK    1  A    between atoms: C_5  and  N_4 
REMARK    2  A    between atoms: C_7  and  C_8 
REMARK    3  A    between atoms: C_8  and  O_9 
REMARK    4  A    between atoms: P_10  and  O_9 
REMARK    5  A    between atoms: P_10  and  O_11 
REMARK    6  A    between atoms: P_10  and  O_13 
REMARK    7  A    between atoms: P_14  and  O_13 
REMARK    8  A    between atoms: P_14  and  O_15 
REMARK    9  A    between atoms: P_14  and  O_17 
REMARK   10  A    between atoms: O_17  and  P_18 
REMARK   11  A    between atoms: P_18  and  O_19 
REMARK   12  A    between atoms: P_18  and  O_20 
ROOT
HETATM    1  O   UNK N   1      34.437  14.638  11.745  0.00  0.00    -0.294 OA
ENDROOT
BRANCH   1   2
HETATM    2  C   UNK N   1      35.494  14.450  12.620  0.00  0.00     0.216 C 
BRANCH   2   3
HETATM    3  C   UNK N   1      35.465  13.076  13.283  0.00  0.00     0.171 C 
HETATM    4  O   UNK N   1      34.913  13.283  14.558  0.00  0.00    -0.352 OA
HETATM    5  C   UNK N   1      36.016  13.359  15.434  0.00  0.00     0.257 C 
HETATM    6  C   UNK N   1      37.113  12.602  14.793  0.00  0.00     0.025 C 
HETATM    7  C   UNK N   1      36.811  12.474  13.529  0.00  0.00     0.007 C 
BRANCH   5   8
HETATM    8  N   UNK N   1      35.587  12.954  16.764  0.00  0.00    -0.278 N 
HETATM    9  C   UNK N   1      35.382  11.621  16.915  0.00  0.00     0.111 A 
HETATM   10  C   UNK N   1      35.134  11.071  18.159  0.00  0.00     0.022 A 
HETATM   11  C   UNK N   1      34.944   9.598  18.279  0.00  0.00     0.056 C 
HETATM   12  C   UNK N   1      35.104  11.915  19.270  0.00  0.00     0.256 A 
HETATM   13  N   UNK N   1      35.299  13.262  19.106  0.00  0.00    -0.275 N 
HETATM   14  O   UNK N   1      34.919  11.462  20.386  0.00  0.00    -0.267 OA
HETATM   15  C   UNK N   1      35.549  13.788  17.866  0.00  0.00     0.331 A 
HETATM   16  H   UNK N   1      35.259  13.859  19.888  0.00  0.00     0.173 HD
HETATM   17  O   UNK N   1      35.765  14.983  17.755  0.00  0.00    -0.246 OA
ENDBRANCH   5   8
ENDBRANCH   2   3
ENDBRANCH   1   2
BRANCH   1  18
HETATM   18  P   UNK N   1      35.121  15.500  10.388  0.00  0.00     0.401 P 
HETATM   19  O   UNK N   1      36.666  15.479  10.534  0.00  0.00    -0.631 OA
BRANCH  18  20
HETATM   20  O   UNK N   1      34.631  17.168  10.351  0.00  0.00    -0.307 OA
HETATM   21  H   UNK N   1      34.177  17.524   9.571  0.00  0.00     0.222 HD
ENDBRANCH  18  20
BRANCH  18  22
HETATM   22  O   UNK N   1      34.761  14.721   8.872  0.00  0.00    -0.195 OA
BRANCH  22  23
HETATM   23  P   UNK N   1      33.026  14.547   8.792  0.00  0.00     0.410 P 
HETATM   24  O   UNK N   1      32.699  13.028   8.729  0.00  0.00    -0.631 OA
BRANCH  23  25
HETATM   25  O   UNK N   1      32.227  15.188  10.196  0.00  0.00    -0.307 OA
HETATM   26  H   UNK N   1      31.934  15.798  10.891  0.00  0.00     0.222 HD
ENDBRANCH  23  25
BRANCH  23  27
HETATM   27  O   UNK N   1      32.384  15.217   7.327  0.00  0.00    -0.195 OA
BRANCH  27  28
HETATM   28  P   UNK N   1      32.792  16.906   7.362  0.00  0.00     0.399 P 
HETATM   29  O   UNK N   1      32.103  17.540   6.127  0.00  0.00    -0.631 OA
BRANCH  28  30
HETATM   30  O   UNK N   1      32.145  17.712   8.757  0.00  0.00    -0.307 OA
HETATM   31  H   UNK N   1      31.780  18.450   9.270  0.00  0.00     0.222 HD
ENDBRANCH  28  30
BRANCH  28  32
HETATM   32  O   UNK N   1      34.495  17.185   7.169  0.00  0.00    -0.307 OA
HETATM   33  H   UNK N   1      35.275  16.617   7.264  0.00  0.00     0.222 HD
ENDBRANCH  28  32
ENDBRANCH  27  28
ENDBRANCH  23  27
ENDBRANCH  22  23
ENDBRANCH  18  22
ENDBRANCH   1  18
TORSDOF 12
ENDMDL
MODEL 2
REMARK VINA RESULT:      -7.0      2.300      3.530
REMARK  12 active torsions:
REMARK  status: ('A' for Active; 'I' for Inactive)
REMARK    1  A    between atoms: C_5  and  N_4 
REMARK    2  A    between atoms: C_7  and  C_8 
REMARK    3  A    between atoms: C_8  and  O_9 
REMARK    4  A    between atoms: P_10  and  O_9 
REMARK    5  A    between atoms: P_10  and  O_11 
REMARK    6  A    between atoms: P_10  and  O_13 
REMARK    7  A    between atoms: P_14  and  O_13 
REMARK    8  A    between atoms: P_14  and  O_15 
REMARK    9  A    between atoms: P_14  and  O_17 
REMARK   10  A    between atoms: O_17  and  P_18 
REMARK   11  A    between atoms: P_18  and  O_19 
REMARK   12  A    between atoms: P_18  and  O_20 
ROOT
HETATM    1  O   UNK N   1      35.476  16.556   8.873  0.00  0.00    -0.294 OA
ENDROOT
BRANCH   1   2
HETATM    2  C   UNK N   1      34.994  16.370  10.158  0.00  0.00     0.216 C 
BRANCH   2   3
HETATM    3  C   UNK N   1      34.721  14.901  10.471  0.00  0.00     0.171 C 
HETATM    4  O   UNK N   1      34.552  14.837  11.864  0.00  0.00    -0.352 OA
HETATM    5  C   UNK N   1      35.798  14.411  12.372  0.00  0.00     0.257 C 
HETATM    6  C   UNK N   1      36.459  13.659  11.283  0.00  0.00     0.025 C 
HETATM    7  C   UNK N   1      35.858  13.979  10.168  0.00  0.00     0.007 C 
BRANCH   5   8
HETATM    8  N   UNK N   1      35.580  13.734  13.641  0.00  0.00    -0.278 N 
HETATM    9  C   UNK N   1      34.755  12.657  13.578  0.00  0.00     0.111 A 
HETATM   10  C   UNK N   1      34.587  11.821  14.665  0.00  0.00     0.022 A 
HETATM   11  C   UNK N   1      33.693  10.634  14.539  0.00  0.00     0.056 C 
HETATM   12  C   UNK N   1      35.289  12.097  15.839  0.00  0.00     0.256 A 
HETATM   13  N   UNK N   1      36.109  13.195  15.897  0.00  0.00    -0.275 N 
HETATM   14  O   UNK N   1      35.190  11.365  16.807  0.00  0.00    -0.267 OA
HETATM   15  C   UNK N   1      36.268  14.010  14.808  0.00  0.00     0.331 A 
HETATM   16  H   UNK N   1      36.590  13.400  16.732  0.00  0.00     0.173 HD
HETATM   17  O   UNK N   1      37.039  14.953  14.873  0.00  0.00    -0.246 OA
ENDBRANCH   5   8
ENDBRANCH   2   3
ENDBRANCH   1   2
BRANCH   1  18
HETATM   18  P   UNK N   1      34.495  17.837   8.203  0.00  0.00     0.401 P 
HETATM   19  O   UNK N   1      35.128  19.193   8.615  0.00  0.00    -0.631 OA
BRANCH  18  20
HETATM   20  O   UNK N   1      32.871  17.819   8.824  0.00  0.00    -0.307 OA
HETATM   21  H   UNK N   1      32.286  18.578   8.678  0.00  0.00     0.222 HD
ENDBRANCH  18  20
BRANCH  18  22
HETATM   22  O   UNK N   1      34.486  17.808   6.462  0.00  0.00    -0.195 OA
BRANCH  22  23
HETATM   23  P   UNK N   1      34.140  16.166   5.984  0.00  0.00     0.410 P 
HETATM   24  O   UNK N   1      35.495  15.436   5.763  0.00  0.00    -0.631 OA
BRANCH  23  25
HETATM   25  O   UNK N   1      33.273  15.285   7.206  0.00  0.00    -0.307 OA
HETATM   26  H   UNK N   1      32.562  14.831   7.684  0.00  0.00     0.222 HD
ENDBRANCH  23  25
BRANCH  23  27
HETATM   27  O   UNK N   1      33.329  16.103   4.452  0.00  0.00    -0.195 OA
BRANCH  27  28
HETATM   28  P   UNK N   1      31.652  16.406   4.794  0.00  0.00     0.399 P 
HETATM   29  O   UNK N   1      31.015  15.021   5.074  0.00  0.00    -0.631 OA
BRANCH  28  30
HETATM   30  O   UNK N   1      31.433  17.351   6.233  0.00  0.00    -0.307 OA
HETATM   31  H   UNK N   1      31.283  18.152   6.758  0.00  0.00     0.222 HD
ENDBRANCH  28  30
BRANCH  28  32
HETATM   32  O   UNK N   1      30.803  17.069   3.433  0.00  0.00    -0.307 OA
HETATM   33  H   UNK N   1      30.979  17.074   2.479  0.00  0.00     0.222 HD
ENDBRANCH  28  32
ENDBRANCH  27  28
ENDBRANCH  23  27
ENDBRANCH  22  23
ENDBRANCH  18  22
ENDBRANCH   1  18
TORSDOF 12
ENDMDL
MODEL 3
REMARK VINA RESULT:      -6.9      7.261     10.702
REMARK  12 active torsions:
REMARK  status: ('A' for Active; 'I' for Inactive)
REMARK    1  A    between atoms: C_5  and  N_4 
REMARK    2  A    between atoms: C_7  and  C_8 
REMARK    3  A    between atoms: C_8  and  O_9 
REMARK    4  A    between atoms: P_10  and  O_9 
REMARK    5  A    between atoms: P_10  and  O_11 
REMARK    6  A    between atoms: P_10  and  O_13 
REMARK    7  A    between atoms: P_14  and  O_13 
REMARK    8  A    between atoms: P_14  and  O_15 
REMARK    9  A    between atoms: P_14  and  O_17 
REMARK   10  A    between atoms: O_17  and  P_18 
REMARK   11  A    between atoms: P_18  and  O_19 
REMARK   12  A    between atoms: P_18  and  O_20 
ROOT
HETATM    1  O   UNK N   1      33.056  15.796   8.430  0.00  0.00    -0.294 OA
ENDROOT
BRANCH   1   2
HETATM    2  C   UNK N   1      31.999  15.273   7.703  0.00  0.00     0.216 C 
BRANCH   2   3
HETATM    3  C   UNK N   1      31.588  16.175   6.542  0.00  0.00     0.171 C 
HETATM    4  O   UNK N   1      30.892  17.247   7.124  0.00  0.00    -0.352 OA
HETATM    5  C   UNK N   1      29.525  16.927   6.976  0.00  0.00     0.257 C 
HETATM    6  C   UNK N   1      29.429  16.025   5.808  0.00  0.00     0.025 C 
HETATM    7  C   UNK N   1      30.626  15.553   5.582  0.00  0.00     0.007 C 
BRANCH   5   8
HETATM    8  N   UNK N   1      28.754  18.160   6.958  0.00  0.00    -0.278 N 
HETATM    9  C   UNK N   1      28.463  18.631   5.718  0.00  0.00     0.111 A 
HETATM   10  C   UNK N   1      27.601  19.698   5.542  0.00  0.00     0.022 A 
HETATM   11  C   UNK N   1      27.288  20.160   4.160  0.00  0.00     0.056 C 
HETATM   12  C   UNK N   1      27.023  20.286   6.668  0.00  0.00     0.256 A 
HETATM   13  N   UNK N   1      27.334  19.811   7.917  0.00  0.00    -0.275 N 
HETATM   14  O   UNK N   1      26.235  21.207   6.550  0.00  0.00    -0.267 OA
HETATM   15  C   UNK N   1      28.186  18.751   8.072  0.00  0.00     0.331 A 
HETATM   16  H   UNK N   1      26.941  20.239   8.712  0.00  0.00     0.173 HD
HETATM   17  O   UNK N   1      28.410  18.320   9.191  0.00  0.00    -0.246 OA
ENDBRANCH   5   8
ENDBRANCH   2   3
ENDBRANCH   1   2
BRANCH   1  18
HETATM   18  P   UNK N   1      34.278  14.548   8.412  0.00  0.00     0.401 P 
HETATM   19  O   UNK N   1      34.749  14.357   6.946  0.00  0.00    -0.631 OA
BRANCH  18  20
HETATM   20  O   UNK N   1      33.664  13.015   8.958  0.00  0.00    -0.307 OA
HETATM   21  H   UNK N   1      32.918  12.984   9.576  0.00  0.00     0.222 HD
ENDBRANCH  18  20
BRANCH  18  22
HETATM   22  O   UNK N   1      35.689  15.004   9.325  0.00  0.00    -0.195 OA
BRANCH  22  23
HETATM   23  P   UNK N   1      35.125  15.598  10.866  0.00  0.00     0.410 P 
HETATM   24  O   UNK N   1      35.074  17.150  10.792  0.00  0.00    -0.631 OA
BRANCH  23  25
HETATM   25  O   UNK N   1      33.521  15.046  11.245  0.00  0.00    -0.307 OA
HETATM   26  H   UNK N   1      32.555  14.967  11.264  0.00  0.00     0.222 HD
ENDBRANCH  23  25
BRANCH  23  27
HETATM   27  O   UNK N   1      36.246  15.235  12.140  0.00  0.00    -0.195 OA
BRANCH  27  28
HETATM   28  P   UNK N   1      35.982  13.564  12.538  0.00  0.00     0.399 P 
HETATM   29  O   UNK N   1      34.826  13.547  13.572  0.00  0.00    -0.631 OA
BRANCH  28  30
HETATM   30  O   UNK N   1      35.436  12.639  11.173  0.00  0.00    -0.307 OA
HETATM   31  H   UNK N   1      35.475  11.952  10.491  0.00  0.00     0.222 HD
ENDBRANCH  28  30
BRANCH  28  32
HETATM   32  O   UNK N   1      37.350  12.840  13.322  0.00  0.00    -0.307 OA
HETATM   33  H   UNK N   1      37.505  12.519  14.224  0.00  0.00     0.222 HD
ENDBRANCH  28  32
ENDBRANCH  27  28
ENDBRANCH  23  27
ENDBRANCH  22  23
ENDBRANCH  18  22
ENDBRANCH   1  18
TORSDOF 12
ENDMDL
MODEL 4
REMARK VINA RESULT:      -6.8     13.200     15.236
REMARK  12 active torsions:
REMARK  status: ('A' for Active; 'I' for Inactive)
REMARK    1  A    between atoms: C_5  and  N_4 
REMARK    2  A    between atoms: C_7  and  C_8 
REMARK    3  A    between atoms: C_8  and  O_9 
REMARK    4  A    between atoms: P_10  and  O_9 
REMARK    5  A    between atoms: P_10  and  O_11 
REMARK    6  A    between atoms: P_10  and  O_13 
REMARK    7  A    between atoms: P_14  and  O_13 
REMARK    8  A    between atoms: P_14  and  O_15 
REMARK    9  A    between atoms: P_14  and  O_17 
REMARK   10  A    between atoms: O_17  and  P_18 
REMARK   11  A    between atoms: P_18  and  O_19 
REMARK   12  A    between atoms: P_18  and  O_20 
ROOT
HETATM    1  O   UNK N   1      21.391  15.070   4.488  0.00  0.00    -0.294 OA
ENDROOT
BRANCH   1   2
HETATM    2  C   UNK N   1      20.748  15.031   5.715  0.00  0.00     0.216 C 
BRANCH   2   3
HETATM    3  C   UNK N   1      20.788  13.643   6.349  0.00  0.00     0.171 C 
HETATM    4  O   UNK N   1      21.007  13.859   7.719  0.00  0.00    -0.352 OA
HETATM    5  C   UNK N   1      22.392  13.665   7.910  0.00  0.00     0.257 C 
HETATM    6  C   UNK N   1      22.842  12.763   6.828  0.00  0.00     0.025 C 
HETATM    7  C   UNK N   1      21.925  12.784   5.897  0.00  0.00     0.007 C 
BRANCH   5   8
HETATM    8  N   UNK N   1      22.623  13.255   9.287  0.00  0.00    -0.278 N 
HETATM    9  C   UNK N   1      21.506  12.887   9.966  0.00  0.00     0.111 A 
HETATM   10  C   UNK N   1      21.589  12.320  11.224  0.00  0.00     0.022 A 
HETATM   11  C   UNK N   1      20.337  11.905  11.919  0.00  0.00     0.056 C 
HETATM   12  C   UNK N   1      22.849  12.122  11.789  0.00  0.00     0.256 A 
HETATM   13  N   UNK N   1      23.971  12.509  11.100  0.00  0.00    -0.275 N 
HETATM   14  O   UNK N   1      22.963  11.596  12.881  0.00  0.00    -0.267 OA
HETATM   15  C   UNK N   1      23.870  13.065   9.853  0.00  0.00     0.331 A 
HETATM   16  H   UNK N   1      24.859  12.386  11.508  0.00  0.00     0.173 HD
HETATM   17  O   UNK N   1      24.885  13.358   9.244  0.00  0.00    -0.246 OA
ENDBRANCH   5   8
ENDBRANCH   2   3
ENDBRANCH   1   2
BRANCH   1  18
HETATM   18  P   UNK N   1      20.405  16.117   3.496  0.00  0.00     0.401 P 
HETATM   19  O   UNK N   1      19.529  16.986   4.437  0.00  0.00    -0.631 OA
BRANCH  18  20
HETATM   20  O   UNK N   1      19.326  15.226   2.464  0.00  0.00    -0.307 OA
HETATM   21  H   UNK N   1      19.181  15.514   1.549  0.00  0.00     0.222 HD
ENDBRANCH  18  20
BRANCH  18  22
HETATM   22  O   UNK N   1      21.370  17.227   2.563  0.00  0.00    -0.195 OA
BRANCH  22  23
HETATM   23  P   UNK N   1      20.328  17.892   1.331  0.00  0.00     0.410 P 
HETATM   24  O   UNK N   1      20.273  16.880   0.152  0.00  0.00    -0.631 OA
BRANCH  23  25
HETATM   25  O   UNK N   1      18.698  18.121   1.890  0.00  0.00    -0.307 OA
HETATM   26  H   UNK N   1      17.786  18.441   1.962  0.00  0.00     0.222 HD
ENDBRANCH  23  25
BRANCH  23  27
HETATM   27  O   UNK N   1      20.985  19.349   0.657  0.00  0.00    -0.195 OA
BRANCH  27  28
HETATM   28  P   UNK N   1      21.098  20.471   1.980  0.00  0.00     0.399 P 
HETATM   29  O   UNK N   1      22.605  20.560   2.337  0.00  0.00    -0.631 OA
BRANCH  28  30
HETATM   30  O   UNK N   1      20.601  22.072   1.530  0.00  0.00    -0.307 OA
HETATM   31  H   UNK N   1      20.064  22.746   1.086  0.00  0.00     0.222 HD
ENDBRANCH  28  30
BRANCH  28  32
HETATM   32  O   UNK N   1      20.290  19.904   3.407  0.00  0.00    -0.307 OA
HETATM   33  H   UNK N   1      20.604  19.499   4.231  0.00  0.00     0.222 HD
ENDBRANCH  28  32
ENDBRANCH  27  28
ENDBRANCH  23  27
ENDBRANCH  22  23
ENDBRANCH  18  22
ENDBRANCH   1  18
TORSDOF 12
ENDMDL
MODEL 5
REMARK VINA RESULT:      -6.7      9.050     11.219
REMARK  12 active torsions:
REMARK  status: ('A' for Active; 'I' for Inactive)
REMARK    1  A    between atoms: C_5  and  N_4 
REMARK    2  A    between atoms: C_7  and  C_8 
REMARK    3  A    between atoms: C_8  and  O_9 
REMARK    4  A    between atoms: P_10  and  O_9 
REMARK    5  A    between atoms: P_10  and  O_11 
REMARK    6  A    between atoms: P_10  and  O_13 
REMARK    7  A    between atoms: P_14  and  O_13 
REMARK    8  A    between atoms: P_14  and  O_15 
REMARK    9  A    between atoms: P_14  and  O_17 
REMARK   10  A    between atoms: O_17  and  P_18 
REMARK   11  A    between atoms: P_18  and  O_19 
REMARK   12  A    between atoms: P_18  and  O_20 
ROOT
HETATM    1  O   UNK N   1      33.590  16.086   4.111  0.00  0.00    -0.294 OA
ENDROOT
BRANCH   1   2
HETATM    2  C   UNK N   1      32.267  15.682   4.195  0.00  0.00     0.216 C 
BRANCH   2   3
HETATM    3  C   UNK N   1      31.315  16.658   3.509  0.00  0.00     0.171 C 
HETATM    4  O   UNK N   1      30.877  17.531   4.518  0.00  0.00    -0.352 OA
HETATM    5  C   UNK N   1      29.616  17.037   4.916  0.00  0.00     0.257 C 
HETATM    6  C   UNK N   1      29.073  16.292   3.760  0.00  0.00     0.025 C 
HETATM    7  C   UNK N   1      30.073  16.033   2.960  0.00  0.00     0.007 C 
BRANCH   5   8
HETATM    8  N   UNK N   1      28.831  18.137   5.455  0.00  0.00    -0.278 N 
HETATM    9  C   UNK N   1      28.159  18.865   4.527  0.00  0.00     0.111 A 
HETATM   10  C   UNK N   1      27.246  19.833   4.902  0.00  0.00     0.022 A 
HETATM   11  C   UNK N   1      26.511  20.587   3.847  0.00  0.00     0.056 C 
HETATM   12  C   UNK N   1      27.017  20.048   6.261  0.00  0.00     0.256 A 
HETATM   13  N   UNK N   1      27.710  19.317   7.191  0.00  0.00    -0.275 N 
HETATM   14  O   UNK N   1      26.196  20.870   6.628  0.00  0.00    -0.267 OA
HETATM   15  C   UNK N   1      28.608  18.359   6.802  0.00  0.00     0.331 A 
HETATM   16  H   UNK N   1      27.561  19.482   8.150  0.00  0.00     0.173 HD
HETATM   17  O   UNK N   1      29.177  17.691   7.649  0.00  0.00    -0.246 OA
ENDBRANCH   5   8
ENDBRANCH   2   3
ENDBRANCH   1   2
BRANCH   1  18
HETATM   18  P   UNK N   1      34.166  16.094   5.760  0.00  0.00     0.401 P 
HETATM   19  O   UNK N   1      34.289  17.571   6.220  0.00  0.00    -0.631 OA
BRANCH  18  20
HETATM   20  O   UNK N   1      35.741  15.375   5.913  0.00  0.00    -0.307 OA
HETATM   21  H   UNK N   1      36.523  15.938   6.027  0.00  0.00     0.222 HD
ENDBRANCH  18  20
BRANCH  18  22
HETATM   22  O   UNK N   1      33.037  15.335   6.848  0.00  0.00    -0.195 OA
BRANCH  22  23
HETATM   23  P   UNK N   1      33.973  14.346   7.940  0.00  0.00     0.410 P 
HETATM   24  O   UNK N   1      33.047  13.923   9.116  0.00  0.00    -0.631 OA
BRANCH  23  25
HETATM   25  O   UNK N   1      34.553  12.890   7.190  0.00  0.00    -0.307 OA
HETATM   26  H   UNK N   1      34.624  11.965   6.907  0.00  0.00     0.222 HD
ENDBRANCH  23  25
BRANCH  23  27
HETATM   27  O   UNK N   1      35.262  15.248   8.672  0.00  0.00    -0.195 OA
BRANCH  27  28
HETATM   28  P   UNK N   1      34.507  16.270   9.858  0.00  0.00     0.399 P 
HETATM   29  O   UNK N   1      35.571  17.328  10.251  0.00  0.00    -0.631 OA
BRANCH  28  30
HETATM   30  O   UNK N   1      33.156  17.145   9.210  0.00  0.00    -0.307 OA
HETATM   31  H   UNK N   1      32.230  17.426   9.135  0.00  0.00     0.222 HD
ENDBRANCH  28  30
BRANCH  28  32
HETATM   32  O   UNK N   1      34.105  15.417  11.316  0.00  0.00    -0.307 OA
HETATM   33  H   UNK N   1      34.163  14.484  11.575  0.00  0.00     0.222 HD
ENDBRANCH  28  32
ENDBRANCH  27  28
ENDBRANCH  23  27
ENDBRANCH  22  23
ENDBRANCH  18  22
ENDBRANCH   1  18
TORSDOF 12
ENDMDL
MODEL 6
REMARK VINA RESULT:      -6.5      7.631     11.030
REMARK  12 active torsions:
REMARK  status: ('A' for Active; 'I' for Inactive)
REMARK    1  A    between atoms: C_5  and  N_4 
REMARK    2  A    between atoms: C_7  and  C_8 
REMARK    3  A    between atoms: C_8  and  O_9 
REMARK    4  A    between atoms: P_10  and  O_9 
REMARK    5  A    between atoms: P_10  and  O_11 
REMARK    6  A    between atoms: P_10  and  O_13 
REMARK    7  A    between atoms: P_14  and  O_13 
REMARK    8  A    between atoms: P_14  and  O_15 
REMARK    9  A    between atoms: P_14  and  O_17 
REMARK   10  A    between atoms: O_17  and  P_18 
REMARK   11  A    between atoms: P_18  and  O_19 
REMARK   12  A    between atoms: P_18  and  O_20 
ROOT
HETATM    1  O   UNK N   1      32.764  14.235   7.162  0.00  0.00    -0.294 OA
ENDROOT
BRANCH   1   2
HETATM    2  C   UNK N   1      33.602  15.180   6.595  0.00  0.00     0.216 C 
BRANCH   2   3
HETATM    3  C   UNK N   1      32.982  16.575   6.582  0.00  0.00     0.171 C 
HETATM    4  O   UNK N   1      31.615  16.378   6.330  0.00  0.00    -0.352 OA
HETATM    5  C   UNK N   1      31.453  16.613   4.947  0.00  0.00     0.257 C 
HETATM    6  C   UNK N   1      32.552  17.516   4.544  0.00  0.00     0.025 C 
HETATM    7  C   UNK N   1      33.464  17.460   5.478  0.00  0.00     0.007 C 
BRANCH   5   8
HETATM    8  N   UNK N   1      30.085  17.042   4.701  0.00  0.00    -0.278 N 
HETATM    9  C   UNK N   1      29.548  17.819   5.677  0.00  0.00     0.111 A 
HETATM   10  C   UNK N   1      28.322  18.435   5.507  0.00  0.00     0.022 A 
HETATM   11  C   UNK N   1      27.787  19.302   6.595  0.00  0.00     0.056 C 
HETATM   12  C   UNK N   1      27.641  18.252   4.303  0.00  0.00     0.256 A 
HETATM   13  N   UNK N   1      28.186  17.454   3.329  0.00  0.00    -0.275 N 
HETATM   14  O   UNK N   1      26.574  18.804   4.105  0.00  0.00    -0.267 OA
HETATM   15  C   UNK N   1      29.403  16.856   3.513  0.00  0.00     0.331 A 
HETATM   16  H   UNK N   1      27.695  17.311   2.487  0.00  0.00     0.173 HD
HETATM   17  O   UNK N   1      29.885  16.189   2.612  0.00  0.00    -0.246 OA
ENDBRANCH   5   8
ENDBRANCH   2   3
ENDBRANCH   1   2
BRANCH   1  18
HETATM   18  P   UNK N   1      33.297  14.096   8.821  0.00  0.00     0.401 P 
HETATM   19  O   UNK N   1      33.204  12.603   9.233  0.00  0.00    -0.631 OA
BRANCH  18  20
HETATM   20  O   UNK N   1      32.288  14.995   9.915  0.00  0.00    -0.307 OA
HETATM   21  H   UNK N   1      32.334  14.825  10.869  0.00  0.00     0.222 HD
ENDBRANCH  18  20
BRANCH  18  22
HETATM   22  O   UNK N   1      34.967  14.554   9.009  0.00  0.00    -0.195 OA
BRANCH  22  23
HETATM   23  P   UNK N   1      35.035  15.686  10.336  0.00  0.00     0.410 P 
HETATM   24  O   UNK N   1      36.532  15.933  10.678  0.00  0.00    -0.631 OA
BRANCH  23  25
HETATM   25  O   UNK N   1      34.337  17.226   9.934  0.00  0.00    -0.307 OA
HETATM   26  H   UNK N   1      33.935  18.104  10.017  0.00  0.00     0.222 HD
ENDBRANCH  23  25
BRANCH  23  27
HETATM   27  O   UNK N   1      34.337  15.022  11.778  0.00  0.00    -0.195 OA
BRANCH  27  28
HETATM   28  P   UNK N   1      35.422  13.764  12.290  0.00  0.00     0.399 P 
HETATM   29  O   UNK N   1      34.678  12.984  13.405  0.00  0.00    -0.631 OA
BRANCH  28  30
HETATM   30  O   UNK N   1      35.753  12.623  11.025  0.00  0.00    -0.307 OA
HETATM   31  H   UNK N   1      36.117  11.818  10.624  0.00  0.00     0.222 HD
ENDBRANCH  28  30
BRANCH  28  32
HETATM   32  O   UNK N   1      36.872  14.386  13.014  0.00  0.00    -0.307 OA
HETATM   33  H   UNK N   1      37.397  14.117  13.784  0.00  0.00     0.222 HD
ENDBRANCH  28  32
ENDBRANCH  27  28
ENDBRANCH  23  27
ENDBRANCH  22  23
ENDBRANCH  18  22
ENDBRANCH   1  18
TORSDOF 12
ENDMDL
MODEL 7
REMARK VINA RESULT:      -6.3      9.144     11.414
REMARK  12 active torsions:
REMARK  status: ('A' for Active; 'I' for Inactive)
REMARK    1  A    between atoms: C_5  and  N_4 
REMARK    2  A    between atoms: C_7  and  C_8 
REMARK    3  A    between atoms: C_8  and  O_9 
REMARK    4  A    between atoms: P_10  and  O_9 
REMARK    5  A    between atoms: P_10  and  O_11 
REMARK    6  A    between atoms: P_10  and  O_13 
REMARK    7  A    between atoms: P_14  and  O_13 
REMARK    8  A    between atoms: P_14  and  O_15 
REMARK    9  A    between atoms: P_14  and  O_17 
REMARK   10  A    between atoms: O_17  and  P_18 
REMARK   11  A    between atoms: P_18  and  O_19 
REMARK   12  A    between atoms: P_18  and  O_20 
ROOT
HETATM    1  O   UNK N   1      33.325  15.497   4.127  0.00  0.00    -0.294 OA
ENDROOT
BRANCH   1   2
HETATM    2  C   UNK N   1      31.956  15.289   4.062  0.00  0.00     0.216 C 
BRANCH   2   3
HETATM    3  C   UNK N   1      31.222  16.451   3.397  0.00  0.00     0.171 C 
HETATM    4  O   UNK N   1      30.764  17.260   4.450  0.00  0.00    -0.352 OA
HETATM    5  C   UNK N   1      29.413  16.897   4.638  0.00  0.00     0.257 C 
HETATM    6  C   UNK N   1      28.940  16.360   3.343  0.00  0.00     0.025 C 
HETATM    7  C   UNK N   1      29.996  16.059   2.637  0.00  0.00     0.007 C 
BRANCH   5   8
HETATM    8  N   UNK N   1      28.700  18.026   5.215  0.00  0.00    -0.278 N 
HETATM    9  C   UNK N   1      27.966  18.748   4.331  0.00  0.00     0.111 A 
HETATM   10  C   UNK N   1      27.108  19.745   4.759  0.00  0.00     0.022 A 
HETATM   11  C   UNK N   1      26.300  20.491   3.753  0.00  0.00     0.056 C 
HETATM   12  C   UNK N   1      27.002  19.995   6.128  0.00  0.00     0.256 A 
HETATM   13  N   UNK N   1      27.758  19.269   7.012  0.00  0.00    -0.275 N 
HETATM   14  O   UNK N   1      26.233  20.844   6.544  0.00  0.00    -0.267 OA
HETATM   15  C   UNK N   1      28.598  18.283   6.570  0.00  0.00     0.331 A 
HETATM   16  H   UNK N   1      27.696  19.460   7.976  0.00  0.00     0.173 HD
HETATM   17  O   UNK N   1      29.225  17.622   7.382  0.00  0.00    -0.246 OA
ENDBRANCH   5   8
ENDBRANCH   2   3
ENDBRANCH   1   2
BRANCH   1  18
HETATM   18  P   UNK N   1      33.771  15.058   5.758  0.00  0.00     0.401 P 
HETATM   19  O   UNK N   1      34.643  13.777   5.690  0.00  0.00    -0.631 OA
BRANCH  18  20
HETATM   20  O   UNK N   1      32.387  14.686   6.744  0.00  0.00    -0.307 OA
HETATM   21  H   UNK N   1      32.445  13.993   7.420  0.00  0.00     0.222 HD
ENDBRANCH  18  20
BRANCH  18  22
HETATM   22  O   UNK N   1      34.753  16.280   6.516  0.00  0.00    -0.195 OA
BRANCH  22  23
HETATM   23  P   UNK N   1      33.688  17.244   7.508  0.00  0.00     0.410 P 
HETATM   24  O   UNK N   1      34.453  18.533   7.919  0.00  0.00    -0.631 OA
BRANCH  23  25
HETATM   25  O   UNK N   1      32.256  17.742   6.658  0.00  0.00    -0.307 OA
HETATM   26  H   UNK N   1      31.628  18.273   6.145  0.00  0.00     0.222 HD
ENDBRANCH  23  25
BRANCH  23  27
HETATM   27  O   UNK N   1      33.304  16.442   8.997  0.00  0.00    -0.195 OA
BRANCH  27  28
HETATM   28  P   UNK N   1      34.828  16.128   9.770  0.00  0.00     0.399 P 
HETATM   29  O   UNK N   1      34.494  15.392  11.094  0.00  0.00    -0.631 OA
BRANCH  28  30
HETATM   30  O   UNK N   1      35.827  15.051   8.845  0.00  0.00    -0.307 OA
HETATM   31  H   UNK N   1      36.343  14.751   8.081  0.00  0.00     0.222 HD
ENDBRANCH  28  30
BRANCH  28  32
HETATM   32  O   UNK N   1      35.662  17.583  10.217  0.00  0.00    -0.307 OA
HETATM   33  H   UNK N   1      35.478  18.524  10.071  0.00  0.00     0.222 HD
ENDBRANCH  28  32
ENDBRANCH  27  28
ENDBRANCH  23  27
ENDBRANCH  22  23
ENDBRANCH  18  22
ENDBRANCH   1  18
TORSDOF 12
ENDMDL
MODEL 8
REMARK VINA RESULT:      -6.2     10.026     13.355
REMARK  12 active torsions:
REMARK  status: ('A' for Active; 'I' for Inactive)
REMARK    1  A    between atoms: C_5  and  N_4 
REMARK    2  A    between atoms: C_7  and  C_8 
REMARK    3  A    between atoms: C_8  and  O_9 
REMARK    4  A    between atoms: P_10  and  O_9 
REMARK    5  A    between atoms: P_10  and  O_11 
REMARK    6  A    between atoms: P_10  and  O_13 
REMARK    7  A    between atoms: P_14  and  O_13 
REMARK    8  A    between atoms: P_14  and  O_15 
REMARK    9  A    between atoms: P_14  and  O_17 
REMARK   10  A    between atoms: O_17  and  P_18 
REMARK   11  A    between atoms: P_18  and  O_19 
REMARK   12  A    between atoms: P_18  and  O_20 
ROOT
HETATM    1  O   UNK N   1      25.356  16.492   4.402  0.00  0.00    -0.294 OA
ENDROOT
BRANCH   1   2
HETATM    2  C   UNK N   1      26.408  17.391   4.461  0.00  0.00     0.216 C 
BRANCH   2   3
HETATM    3  C   UNK N   1      27.277  17.189   5.700  0.00  0.00     0.171 C 
HETATM    4  O   UNK N   1      28.507  17.796   5.400  0.00  0.00    -0.352 OA
HETATM    5  C   UNK N   1      29.354  16.742   4.994  0.00  0.00     0.257 C 
HETATM    6  C   UNK N   1      28.831  15.515   5.632  0.00  0.00     0.025 C 
HETATM    7  C   UNK N   1      27.604  15.763   6.005  0.00  0.00     0.007 C 
BRANCH   5   8
HETATM    8  N   UNK N   1      30.733  17.120   5.259  0.00  0.00    -0.278 N 
HETATM    9  C   UNK N   1      31.044  17.259   6.573  0.00  0.00     0.111 A 
HETATM   10  C   UNK N   1      32.350  17.452   6.983  0.00  0.00     0.022 A 
HETATM   11  C   UNK N   1      32.645  17.570   8.440  0.00  0.00     0.056 C 
HETATM   12  C   UNK N   1      33.356  17.495   6.018  0.00  0.00     0.256 A 
HETATM   13  N   UNK N   1      33.031  17.367   4.692  0.00  0.00    -0.275 N 
HETATM   14  O   UNK N   1      34.522  17.632   6.344  0.00  0.00    -0.267 OA
HETATM   15  C   UNK N   1      31.733  17.172   4.304  0.00  0.00     0.331 A 
HETATM   16  H   UNK N   1      33.740  17.416   4.010  0.00  0.00     0.173 HD
HETATM   17  O   UNK N   1      31.478  17.015   3.122  0.00  0.00    -0.246 OA
ENDBRANCH   5   8
ENDBRANCH   2   3
ENDBRANCH   1   2
BRANCH   1  18
HETATM   18  P   UNK N   1      23.916  17.470   4.551  0.00  0.00     0.401 P 
HETATM   19  O   UNK N   1      24.349  18.960   4.595  0.00  0.00    -0.631 OA
BRANCH  18  20
HETATM   20  O   UNK N   1      23.047  17.145   6.022  0.00  0.00    -0.307 OA
HETATM   21  H   UNK N   1      22.427  17.803   6.375  0.00  0.00     0.222 HD
ENDBRANCH  18  20
BRANCH  18  22
HETATM   22  O   UNK N   1      22.869  17.304   3.169  0.00  0.00    -0.195 OA
BRANCH  22  23
HETATM   23  P   UNK N   1      21.379  18.124   3.562  0.00  0.00     0.410 P 
HETATM   24  O   UNK N   1      20.401  17.077   4.167  0.00  0.00    -0.631 OA
BRANCH  23  25
HETATM   25  O   UNK N   1      21.599  19.372   4.752  0.00  0.00    -0.307 OA
HETATM   26  H   UNK N   1      21.708  20.243   5.162  0.00  0.00     0.222 HD
ENDBRANCH  23  25
BRANCH  23  27
HETATM   27  O   UNK N   1      20.587  18.725   2.140  0.00  0.00    -0.195 OA
BRANCH  27  28
HETATM   28  P   UNK N   1      20.981  20.416   2.061  0.00  0.00     0.399 P 
HETATM   29  O   UNK N   1      22.523  20.504   2.201  0.00  0.00    -0.631 OA
BRANCH  28  30
HETATM   30  O   UNK N   1      20.584  21.114   0.522  0.00  0.00    -0.307 OA
HETATM   31  H   UNK N   1      20.740  21.410  -0.388  0.00  0.00     0.222 HD
ENDBRANCH  28  30
BRANCH  28  32
HETATM   32  O   UNK N   1      20.318  21.319   3.387  0.00  0.00    -0.307 OA
HETATM   33  H   UNK N   1      19.462  21.297   3.842  0.00  0.00     0.222 HD
ENDBRANCH  28  32
ENDBRANCH  27  28
ENDBRANCH  23  27
ENDBRANCH  22  23
ENDBRANCH  18  22
ENDBRANCH   1  18
TORSDOF 12
ENDMDL
MODEL 9
REMARK VINA RESULT:      -6.2      9.949     13.001
REMARK  12 active torsions:
REMARK  status: ('A' for Active; 'I' for Inactive)
REMARK    1  A    between atoms: C_5  and  N_4 
REMARK    2  A    between atoms: C_7  and  C_8 
REMARK    3  A    between atoms: C_8  and  O_9 
REMARK    4  A    between atoms: P_10  and  O_9 
REMARK    5  A    between atoms: P_10  and  O_11 
REMARK    6  A    between atoms: P_10  and  O_13 
REMARK    7  A    between atoms: P_14  and  O_13 
REMARK    8  A    between atoms: P_14  and  O_15 
REMARK    9  A    between atoms: P_14  and  O_17 
REMARK   10  A    between atoms: O_17  and  P_18 
REMARK   11  A    between atoms: P_18  and  O_19 
REMARK   12  A    between atoms: P_18  and  O_20 
ROOT
HETATM    1  O   UNK N   1      25.346  16.675   3.659  0.00  0.00    -0.294 OA
ENDROOT
BRANCH   1   2
HETATM    2  C   UNK N   1      26.083  16.524   4.822  0.00  0.00     0.216 C 
BRANCH   2   3
HETATM    3  C   UNK N   1      27.539  16.158   4.545  0.00  0.00     0.171 C 
HETATM    4  O   UNK N   1      28.174  16.161   5.798  0.00  0.00    -0.352 OA
HETATM    5  C   UNK N   1      28.813  17.417   5.888  0.00  0.00     0.257 C 
HETATM    6  C   UNK N   1      29.062  17.861   4.499  0.00  0.00     0.025 C 
HETATM    7  C   UNK N   1      28.286  17.155   3.720  0.00  0.00     0.007 C 
BRANCH   5   8
HETATM    8  N   UNK N   1      29.951  17.300   6.787  0.00  0.00    -0.278 N 
HETATM    9  C   UNK N   1      31.155  17.189   6.170  0.00  0.00     0.111 A 
HETATM   10  C   UNK N   1      32.335  17.236   6.889  0.00  0.00     0.022 A 
HETATM   11  C   UNK N   1      33.634  17.139   6.164  0.00  0.00     0.056 C 
HETATM   12  C   UNK N   1      32.270  17.409   8.272  0.00  0.00     0.256 A 
HETATM   13  N   UNK N   1      31.048  17.507   8.888  0.00  0.00    -0.275 N 
HETATM   14  O   UNK N   1      33.289  17.487   8.935  0.00  0.00    -0.267 OA
HETATM   15  C   UNK N   1      29.891  17.463   8.159  0.00  0.00     0.331 A 
HETATM   16  H   UNK N   1      31.004  17.610   9.866  0.00  0.00     0.173 HD
HETATM   17  O   UNK N   1      28.820  17.599   8.727  0.00  0.00    -0.246 OA
ENDBRANCH   5   8
ENDBRANCH   2   3
ENDBRANCH   1   2
BRANCH   1  18
HETATM   18  P   UNK N   1      23.900  17.525   4.147  0.00  0.00     0.401 P 
HETATM   19  O   UNK N   1      24.065  19.018   3.758  0.00  0.00    -0.631 OA
BRANCH  18  20
HETATM   20  O   UNK N   1      23.649  17.467   5.867  0.00  0.00    -0.307 OA
HETATM   21  H   UNK N   1      22.815  17.123   6.225  0.00  0.00     0.222 HD
ENDBRANCH  18  20
BRANCH  18  22
HETATM   22  O   UNK N   1      22.490  16.950   3.301  0.00  0.00    -0.195 OA
BRANCH  22  23
HETATM   23  P   UNK N   1      21.258  18.173   3.483  0.00  0.00     0.410 P 
HETATM   24  O   UNK N   1      19.915  17.456   3.800  0.00  0.00    -0.631 OA
BRANCH  23  25
HETATM   25  O   UNK N   1      21.586  19.259   4.800  0.00  0.00    -0.307 OA
HETATM   26  H   UNK N   1      21.533  19.709   5.657  0.00  0.00     0.222 HD
ENDBRANCH  23  25
BRANCH  23  27
HETATM   27  O   UNK N   1      20.983  19.029   1.999  0.00  0.00    -0.195 OA
BRANCH  27  28
HETATM   28  P   UNK N   1      21.066  20.716   2.407  0.00  0.00     0.399 P 
HETATM   29  O   UNK N   1      20.111  20.913   3.613  0.00  0.00    -0.631 OA
BRANCH  28  30
HETATM   30  O   UNK N   1      22.647  21.187   2.946  0.00  0.00    -0.307 OA
HETATM   31  H   UNK N   1      23.567  21.481   2.858  0.00  0.00     0.222 HD
ENDBRANCH  28  30
BRANCH  28  32
HETATM   32  O   UNK N   1      20.468  21.739   1.138  0.00  0.00    -0.307 OA
HETATM   33  H   UNK N   1      20.645  21.787   0.186  0.00  0.00     0.222 HD
ENDBRANCH  28  32
ENDBRANCH  27  28
ENDBRANCH  23  27
ENDBRANCH  22  23
ENDBRANCH  18  22
ENDBRANCH   1  18
TORSDOF 12
ENDMDL
