REMARK  7 active torsions:
REMARK  status: ('A' for Active; 'I' for Inactive)
REMARK    1  A    between atoms: P_2  and  O_3 
REMARK    2  A    between atoms: P_2  and  C_5 
REMARK    3  A    between atoms: C_5  and  C_6 
REMARK    4  A    between atoms: C_6  and  C_7 
REMARK    5  A    between atoms: C_7  and  N_8 
REMARK    6  A    between atoms: C_7  and  C_9 
REMARK    7  A    between atoms: C_9  and  O_10 
ROOT
HETATM    1  C   UNK N   1       4.703   2.351  -0.260  0.00  0.00     0.173 C 
ENDROOT
BRANCH   1   2
HETATM    2  C   UNK N   1       3.957   2.650   1.040  0.00  0.00     0.045 C 
BRANCH   2   3
HETATM    3  C   UNK N   1       2.927   1.600   1.462  0.00  0.00     0.096 C 
BRANCH   3   4
HETATM    4  P   UNK N   1       1.718   1.169   0.102  0.00  0.00     0.094 P 
HETATM    5  C   UNK N   1       0.088   0.358   0.476  0.00  0.00     0.109 C 
HETATM    6  O   UNK N   1       1.387   2.483  -0.655  0.00  0.00    -0.674 OA
BRANCH   4   7
HETATM    7  O   UNK N   1       2.528   0.255  -1.130  0.00  0.00    -0.350 OA
HETATM    8  H   UNK N   1       2.312  -0.393  -1.819  0.00  0.00     0.217 HD
ENDBRANCH   4   7
ENDBRANCH   3   4
ENDBRANCH   2   3
ENDBRANCH   1   2
BRANCH   1   9
HETATM    9  N   UNK N   1       5.418   3.549  -0.669  0.00  0.00    -0.418 N 
HETATM   10  H   UNK N   1       6.396   3.535  -0.956  0.00  0.00     0.150 HD
HETATM   11  H   UNK N   1       4.920   4.440  -0.669  0.00  0.00     0.150 HD
ENDBRANCH   1   9
BRANCH   1  12
HETATM   12  C   UNK N   1       5.655   1.192  -0.133  0.00  0.00     0.163 C 
HETATM   13  O   UNK N   1       5.230   0.078   0.135  0.00  0.00    -0.648 OA
BRANCH  12  14
HETATM   14  O   UNK N   1       6.974   1.362  -0.350  0.00  0.00    -0.775 OA
HETATM   15  H   UNK N   1       7.535   0.626  -0.500  0.00  0.00     0.167 HD
ENDBRANCH  12  14
ENDBRANCH   1  12
TORSDOF 7
