REMARK  9 active torsions:
REMARK  status: ('A' for Active; 'I' for Inactive)
REMARK    1  A    between atoms: C_2  and  O_12 
REMARK    2  A    between atoms: C_3  and  O_4 
REMARK    3  A    between atoms: C_5  and  O_6 
REMARK    4  A    between atoms: C_7  and  O_8 
REMARK    5  A    between atoms: C_9  and  C_10 
REMARK    6  A    between atoms: C_10  and  O_11 
REMARK    7  A    between atoms: O_12  and  P_15 
REMARK    8  A    between atoms: P_15  and  O_14 
REMARK    9  A    between atoms: P_15  and  O_16 
ROOT
HETATM    1  O   UNK N   1      -0.420   1.304  -0.571  0.00  0.00    -0.348 OA
HETATM    2  C   UNK N   1       0.697   0.613  -0.061  0.00  0.00     0.303 C 
HETATM    3  C   UNK N   1       0.582  -0.881  -0.408  0.00  0.00     0.205 C 
HETATM    4  C   UNK N   1      -0.711  -1.434   0.176  0.00  0.00     0.183 C 
HETATM    5  C   UNK N   1      -1.890  -0.566  -0.243  0.00  0.00     0.180 C 
HETATM    6  C   UNK N   1      -1.568   0.890   0.135  0.00  0.00     0.179 C 
ENDROOT
BRANCH   2   7
HETATM    7  O   UNK N   1       1.851   1.140  -0.660  0.00  0.00    -0.263 OA
BRANCH   7   8
HETATM    8  P   UNK N   1       3.041   1.284   0.601  0.00  0.00     0.393 P 
HETATM    9  O   UNK N   1       2.956   2.751   0.105  0.00  0.00    -0.631 OA
BRANCH   8  10
HETATM   10  O   UNK N   1       4.703   1.626   0.241  0.00  0.00    -0.307 OA
HETATM   11  H   UNK N   1       5.334   0.917   0.040  0.00  0.00     0.222 HD
ENDBRANCH   8  10
BRANCH   8  12
HETATM   12  O   UNK N   1       3.637   0.296  -0.698  0.00  0.00    -0.307 OA
HETATM   13  H   UNK N   1       3.327  -0.268  -1.424  0.00  0.00     0.222 HD
ENDBRANCH   8  12
ENDBRANCH   7   8
ENDBRANCH   2   7
BRANCH   3  14
HETATM   14  O   UNK N   1       1.662  -1.590   0.122  0.00  0.00    -0.388 OA
HETATM   15  H   UNK N   1       1.610  -2.486   0.490  0.00  0.00     0.210 HD
ENDBRANCH   3  14
BRANCH   6  16
HETATM   16  C   UNK N   1      -2.712   1.823  -0.242  0.00  0.00     0.198 C 
BRANCH  16  17
HETATM   17  O   UNK N   1      -3.827   1.592   0.564  0.00  0.00    -0.398 OA
HETATM   18  H   UNK N   1      -4.354   2.182   1.124  0.00  0.00     0.209 HD
ENDBRANCH  16  17
ENDBRANCH   6  16
BRANCH   4  19
HETATM   19  O   UNK N   1      -0.903  -2.748  -0.252  0.00  0.00    -0.390 OA
HETATM   20  H   UNK N   1      -1.761  -3.088  -0.550  0.00  0.00     0.210 HD
ENDBRANCH   4  19
BRANCH   5  21
HETATM   21  O   UNK N   1      -3.040  -1.014   0.412  0.00  0.00    -0.390 OA
HETATM   22  H   UNK N   1      -3.708  -0.478   0.867  0.00  0.00     0.210 HD
ENDBRANCH   5  21
TORSDOF 9
