MODEL 1
REMARK VINA RESULT:      -5.3      0.000      0.000
REMARK  7 active torsions:
REMARK  status: ('A' for Active; 'I' for Inactive)
REMARK    1  A    between atoms: C_2  and  C_1 
REMARK    2  A    between atoms: C_4  and  C_1 
REMARK    3  A    between atoms: C_6  and  C_2 
REMARK    4  A    between atoms: N_13  and  C_4 
REMARK    5  A    between atoms: C_8  and  C_6 
REMARK    6  A    between atoms: C_6  and  N_14 
REMARK    7  A    between atoms: O_17  and  C_8 
REMARK       I    between atoms: N_12  and  C_9 
REMARK       I    between atoms: N_13  and  C_9 
ROOT
HETATM    1  C   UNK N   1      30.705  17.534   7.940  0.00  0.00     0.023 C 
ENDROOT
BRANCH   1   2
HETATM    2  C   UNK N   1      32.072  17.848   8.570  0.00  0.00     0.038 C 
BRANCH   2   3
HETATM    3  C   UNK N   1      33.251  16.983   8.090  0.00  0.00     0.185 C 
BRANCH   3   4
HETATM    4  C   UNK N   1      34.149  17.860   7.228  0.00  0.00     0.163 C 
HETATM    5  O   UNK N   1      34.233  17.706   6.023  0.00  0.00    -0.648 OA
BRANCH   4   6
HETATM    6  O   UNK N   1      34.900  18.814   7.807  0.00  0.00    -0.775 OA
HETATM    7  H   UNK N   1      34.966  18.862   8.740  0.00  0.00     0.167 HD
ENDBRANCH   4   6
ENDBRANCH   3   4
BRANCH   3   8
HETATM    8  N   UNK N   1      33.875  16.348   9.253  0.00  0.00    -0.337 N 
HETATM    9  C   UNK N   1      33.611  15.051   9.796  0.00  0.00     0.136 A 
HETATM   10  C   UNK N   1      34.766  15.352  10.886  0.00  0.00     0.123 A 
HETATM   11  C   UNK N   1      34.815  16.617  10.119  0.00  0.00     0.222 A 
HETATM   12  O   UNK N   1      35.537  17.593  10.205  0.00  0.00    -0.273 OA
ENDBRANCH   3   8
ENDBRANCH   2   3
ENDBRANCH   1   2
BRANCH   1  13
HETATM   13  C   UNK N   1      30.750  16.459   6.859  0.00  0.00     0.138 C 
BRANCH  13  14
HETATM   14  N   UNK N   1      29.791  16.704   5.808  0.00  0.00    -0.227 N 
HETATM   15  C   UNK N   1      30.115  17.410   4.621  0.00  0.00     0.665 C 
HETATM   16  N   UNK N   1      29.184  17.726   3.799  0.00  0.00    -0.235 N 
HETATM   17  N   UNK N   1      31.448  17.789   4.346  0.00  0.00    -0.235 N 
HETATM   18  H   UNK N   1      29.390  18.057   2.895  0.00  0.00     0.174 HD
ATOM     19  HN  UNK N   1      28.210  17.635   4.087  1.00  0.00     0.174 HD
HETATM   20  H   UNK N   1      32.183  17.552   4.957  0.00  0.00     0.174 HD
HETATM   21  H   UNK N   1      31.647  18.300   3.529  0.00  0.00     0.174 HD
HETATM   22  H   UNK N   1      28.872  16.367   5.920  0.00  0.00     0.177 HD
ENDBRANCH  13  14
ENDBRANCH   1  13
TORSDOF 7
ENDMDL
MODEL 2
REMARK VINA RESULT:      -5.3      2.329      6.169
REMARK  7 active torsions:
REMARK  status: ('A' for Active; 'I' for Inactive)
REMARK    1  A    between atoms: C_2  and  C_1 
REMARK    2  A    between atoms: C_4  and  C_1 
REMARK    3  A    between atoms: C_6  and  C_2 
REMARK    4  A    between atoms: N_13  and  C_4 
REMARK    5  A    between atoms: C_8  and  C_6 
REMARK    6  A    between atoms: C_6  and  N_14 
REMARK    7  A    between atoms: O_17  and  C_8 
REMARK       I    between atoms: N_12  and  C_9 
REMARK       I    between atoms: N_13  and  C_9 
ROOT
HETATM    1  C   UNK N   1      35.303  16.033   9.605  0.00  0.00     0.023 C 
ENDROOT
BRANCH   1   2
HETATM    2  C   UNK N   1      33.875  16.118   9.042  0.00  0.00     0.038 C 
BRANCH   2   3
HETATM    3  C   UNK N   1      33.344  17.535   8.761  0.00  0.00     0.185 C 
BRANCH   3   4
HETATM    4  C   UNK N   1      34.388  18.265   7.926  0.00  0.00     0.163 C 
HETATM    5  O   UNK N   1      35.059  19.171   8.385  0.00  0.00    -0.648 OA
BRANCH   4   6
HETATM    6  O   UNK N   1      34.559  17.930   6.635  0.00  0.00    -0.775 OA
HETATM    7  H   UNK N   1      33.818  17.832   6.069  0.00  0.00     0.167 HD
ENDBRANCH   4   6
ENDBRANCH   3   4
BRANCH   3   8
HETATM    8  N   UNK N   1      32.001  17.430   8.187  0.00  0.00    -0.337 N 
HETATM    9  C   UNK N   1      30.773  17.939   8.717  0.00  0.00     0.136 A 
HETATM   10  C   UNK N   1      30.046  17.363   7.393  0.00  0.00     0.123 A 
HETATM   11  C   UNK N   1      31.440  16.959   7.106  0.00  0.00     0.222 A 
HETATM   12  O   UNK N   1      31.946  16.412   6.142  0.00  0.00    -0.273 OA
ENDBRANCH   3   8
ENDBRANCH   2   3
ENDBRANCH   1   2
BRANCH   1  13
HETATM   13  C   UNK N   1      35.368  15.966  11.128  0.00  0.00     0.138 C 
BRANCH  13  14
HETATM   14  N   UNK N   1      34.716  14.789  11.650  0.00  0.00    -0.227 N 
HETATM   15  C   UNK N   1      35.414  13.765  12.339  0.00  0.00     0.665 C 
HETATM   16  N   UNK N   1      34.807  12.679  12.643  0.00  0.00    -0.235 N 
HETATM   17  N   UNK N   1      36.779  13.920  12.675  0.00  0.00    -0.235 N 
HETATM   18  H   UNK N   1      35.203  12.028  13.265  0.00  0.00     0.174 HD
ATOM     19  HN  UNK N   1      33.895  12.484  12.230  1.00  0.00     0.174 HD
HETATM   20  H   UNK N   1      37.267  14.748  12.460  0.00  0.00     0.174 HD
HETATM   21  H   UNK N   1      37.251  13.187  13.132  0.00  0.00     0.174 HD
HETATM   22  H   UNK N   1      33.744  14.693  11.522  0.00  0.00     0.177 HD
ENDBRANCH  13  14
ENDBRANCH   1  13
TORSDOF 7
ENDMDL
MODEL 3
REMARK VINA RESULT:      -5.3      1.855      2.432
REMARK  7 active torsions:
REMARK  status: ('A' for Active; 'I' for Inactive)
REMARK    1  A    between atoms: C_2  and  C_1 
REMARK    2  A    between atoms: C_4  and  C_1 
REMARK    3  A    between atoms: C_6  and  C_2 
REMARK    4  A    between atoms: N_13  and  C_4 
REMARK    5  A    between atoms: C_8  and  C_6 
REMARK    6  A    between atoms: C_6  and  N_14 
REMARK    7  A    between atoms: O_17  and  C_8 
REMARK       I    between atoms: N_12  and  C_9 
REMARK       I    between atoms: N_13  and  C_9 
ROOT
HETATM    1  C   UNK N   1      31.331  16.103   7.226  0.00  0.00     0.023 C 
ENDROOT
BRANCH   1   2
HETATM    2  C   UNK N   1      32.318  16.471   8.347  0.00  0.00     0.038 C 
BRANCH   2   3
HETATM    3  C   UNK N   1      33.744  15.911   8.202  0.00  0.00     0.185 C 
BRANCH   3   4
HETATM    4  C   UNK N   1      34.432  16.676   7.079  0.00  0.00     0.163 C 
HETATM    5  O   UNK N   1      34.987  16.107   6.158  0.00  0.00    -0.648 OA
BRANCH   4   6
HETATM    6  O   UNK N   1      34.460  18.021   7.114  0.00  0.00    -0.775 OA
HETATM    7  H   UNK N   1      35.184  18.489   6.747  0.00  0.00     0.167 HD
ENDBRANCH   4   6
ENDBRANCH   3   4
BRANCH   3   8
HETATM    8  N   UNK N   1      34.397  15.939   9.512  0.00  0.00    -0.337 N 
HETATM    9  C   UNK N   1      34.467  14.892  10.485  0.00  0.00     0.136 A 
HETATM   10  C   UNK N   1      35.361  15.889  11.389  0.00  0.00     0.123 A 
HETATM   11  C   UNK N   1      35.121  16.764  10.219  0.00  0.00     0.222 A 
HETATM   12  O   UNK N   1      35.514  17.884   9.947  0.00  0.00    -0.273 OA
ENDBRANCH   3   8
ENDBRANCH   2   3
ENDBRANCH   1   2
BRANCH   1  13
HETATM   13  C   UNK N   1      30.340  17.210   6.881  0.00  0.00     0.138 C 
BRANCH  13  14
HETATM   14  N   UNK N   1      29.684  17.738   8.053  0.00  0.00    -0.227 N 
HETATM   15  C   UNK N   1      28.273  17.785   8.188  0.00  0.00     0.665 C 
HETATM   16  N   UNK N   1      27.753  18.403   9.182  0.00  0.00    -0.235 N 
HETATM   17  N   UNK N   1      27.434  17.178   7.226  0.00  0.00    -0.235 N 
HETATM   18  H   UNK N   1      26.797  18.309   9.400  0.00  0.00     0.174 HD
ATOM     19  HN  UNK N   1      28.339  19.006   9.759  1.00  0.00     0.174 HD
HETATM   20  H   UNK N   1      27.808  16.691   6.456  0.00  0.00     0.174 HD
HETATM   21  H   UNK N   1      26.457  17.244   7.326  0.00  0.00     0.174 HD
HETATM   22  H   UNK N   1      30.240  18.080   8.791  0.00  0.00     0.177 HD
ENDBRANCH  13  14
ENDBRANCH   1  13
TORSDOF 7
ENDMDL
MODEL 4
REMARK VINA RESULT:      -5.3     11.465     13.140
REMARK  7 active torsions:
REMARK  status: ('A' for Active; 'I' for Inactive)
REMARK    1  A    between atoms: C_2  and  C_1 
REMARK    2  A    between atoms: C_4  and  C_1 
REMARK    3  A    between atoms: C_6  and  C_2 
REMARK    4  A    between atoms: N_13  and  C_4 
REMARK    5  A    between atoms: C_8  and  C_6 
REMARK    6  A    between atoms: C_6  and  N_14 
REMARK    7  A    between atoms: O_17  and  C_8 
REMARK       I    between atoms: N_12  and  C_9 
REMARK       I    between atoms: N_13  and  C_9 
ROOT
HETATM    1  C   UNK N   1      21.003  14.171   8.131  0.00  0.00     0.023 C 
ENDROOT
BRANCH   1   2
HETATM    2  C   UNK N   1      20.199  15.314   7.490  0.00  0.00     0.038 C 
BRANCH   2   3
HETATM    3  C   UNK N   1      20.588  16.738   7.922  0.00  0.00     0.185 C 
BRANCH   3   4
HETATM    4  C   UNK N   1      20.980  17.513   6.671  0.00  0.00     0.163 C 
HETATM    5  O   UNK N   1      21.507  18.609   6.731  0.00  0.00    -0.648 OA
BRANCH   4   6
HETATM    6  O   UNK N   1      20.712  16.995   5.459  0.00  0.00    -0.775 OA
HETATM    7  H   UNK N   1      20.033  16.358   5.356  0.00  0.00     0.167 HD
ENDBRANCH   4   6
ENDBRANCH   3   4
BRANCH   3   8
HETATM    8  N   UNK N   1      19.502  17.300   8.729  0.00  0.00    -0.337 N 
HETATM    9  C   UNK N   1      18.211  16.737   8.983  0.00  0.00     0.136 A 
HETATM   10  C   UNK N   1      17.915  18.023   9.916  0.00  0.00     0.123 A 
HETATM   11  C   UNK N   1      19.291  18.347   9.480  0.00  0.00     0.222 A 
HETATM   12  O   UNK N   1      20.041  19.263   9.766  0.00  0.00    -0.273 OA
ENDBRANCH   3   8
ENDBRANCH   2   3
ENDBRANCH   1   2
BRANCH   1  13
HETATM   13  C   UNK N   1      21.233  14.336   9.630  0.00  0.00     0.138 C 
BRANCH  13  14
HETATM   14  N   UNK N   1      21.371  13.066  10.303  0.00  0.00    -0.227 N 
HETATM   15  C   UNK N   1      22.627  12.446  10.524  0.00  0.00     0.665 C 
HETATM   16  N   UNK N   1      22.670  11.253  10.989  0.00  0.00    -0.235 N 
HETATM   17  N   UNK N   1      23.830  13.120  10.217  0.00  0.00    -0.235 N 
HETATM   18  H   UNK N   1      23.512  10.861  11.315  0.00  0.00     0.174 HD
ATOM     19  HN  UNK N   1      21.816  10.697  11.020  1.00  0.00     0.174 HD
HETATM   20  H   UNK N   1      23.826  14.040   9.866  0.00  0.00     0.174 HD
HETATM   21  H   UNK N   1      24.690  12.662  10.355  0.00  0.00     0.174 HD
HETATM   22  H   UNK N   1      20.557  12.611  10.622  0.00  0.00     0.177 HD
ENDBRANCH  13  14
ENDBRANCH   1  13
TORSDOF 7
ENDMDL
MODEL 5
REMARK VINA RESULT:      -5.2      3.940      4.978
REMARK  7 active torsions:
REMARK  status: ('A' for Active; 'I' for Inactive)
REMARK    1  A    between atoms: C_2  and  C_1 
REMARK    2  A    between atoms: C_4  and  C_1 
REMARK    3  A    between atoms: C_6  and  C_2 
REMARK    4  A    between atoms: N_13  and  C_4 
REMARK    5  A    between atoms: C_8  and  C_6 
REMARK    6  A    between atoms: C_6  and  N_14 
REMARK    7  A    between atoms: O_17  and  C_8 
REMARK       I    between atoms: N_12  and  C_9 
REMARK       I    between atoms: N_13  and  C_9 
ROOT
HETATM    1  C   UNK N   1      28.541  18.350   5.389  0.00  0.00     0.023 C 
ENDROOT
BRANCH   1   2
HETATM    2  C   UNK N   1      28.477  17.528   6.686  0.00  0.00     0.038 C 
BRANCH   2   3
HETATM    3  C   UNK N   1      29.425  17.972   7.815  0.00  0.00     0.185 C 
BRANCH   3   4
HETATM    4  C   UNK N   1      28.678  17.824   9.134  0.00  0.00     0.163 C 
HETATM    5  O   UNK N   1      29.158  17.229  10.081  0.00  0.00    -0.648 OA
BRANCH   4   6
HETATM    6  O   UNK N   1      27.440  18.334   9.256  0.00  0.00    -0.775 OA
HETATM    7  H   UNK N   1      26.834  18.282   8.544  0.00  0.00     0.167 HD
ENDBRANCH   4   6
ENDBRANCH   3   4
BRANCH   3   8
HETATM    8  N   UNK N   1      30.686  17.238   7.688  0.00  0.00    -0.337 N 
HETATM    9  C   UNK N   1      30.903  15.956   7.091  0.00  0.00     0.136 A 
HETATM   10  C   UNK N   1      32.474  16.148   7.424  0.00  0.00     0.123 A 
HETATM   11  C   UNK N   1      31.948  17.422   7.965  0.00  0.00     0.222 A 
HETATM   12  O   UNK N   1      32.504  18.384   8.462  0.00  0.00    -0.273 OA
ENDBRANCH   3   8
ENDBRANCH   2   3
ENDBRANCH   1   2
BRANCH   1  13
HETATM   13  C   UNK N   1      27.274  19.144   5.091  0.00  0.00     0.138 C 
BRANCH  13  14
HETATM   14  N   UNK N   1      26.542  19.473   6.291  0.00  0.00    -0.227 N 
HETATM   15  C   UNK N   1      26.593  20.756   6.894  0.00  0.00     0.665 C 
HETATM   16  N   UNK N   1      26.045  20.939   8.037  0.00  0.00    -0.235 N 
HETATM   17  N   UNK N   1      27.259  21.828   6.259  0.00  0.00    -0.235 N 
HETATM   18  H   UNK N   1      25.910  21.844   8.401  0.00  0.00     0.174 HD
ATOM     19  HN  UNK N   1      25.744  20.132   8.583  1.00  0.00     0.174 HD
HETATM   20  H   UNK N   1      27.682  21.716   5.376  0.00  0.00     0.174 HD
HETATM   21  H   UNK N   1      27.303  22.703   6.706  0.00  0.00     0.174 HD
HETATM   22  H   UNK N   1      25.984  18.777   6.709  0.00  0.00     0.177 HD
ENDBRANCH  13  14
ENDBRANCH   1  13
TORSDOF 7
ENDMDL
MODEL 6
REMARK VINA RESULT:      -5.2      2.937      6.452
REMARK  7 active torsions:
REMARK  status: ('A' for Active; 'I' for Inactive)
REMARK    1  A    between atoms: C_2  and  C_1 
REMARK    2  A    between atoms: C_4  and  C_1 
REMARK    3  A    between atoms: C_6  and  C_2 
REMARK    4  A    between atoms: N_13  and  C_4 
REMARK    5  A    between atoms: C_8  and  C_6 
REMARK    6  A    between atoms: C_6  and  N_14 
REMARK    7  A    between atoms: O_17  and  C_8 
REMARK       I    between atoms: N_12  and  C_9 
REMARK       I    between atoms: N_13  and  C_9 
ROOT
HETATM    1  C   UNK N   1      35.143  16.171  11.168  0.00  0.00     0.023 C 
ENDROOT
BRANCH   1   2
HETATM    2  C   UNK N   1      35.277  16.485   9.669  0.00  0.00     0.038 C 
BRANCH   2   3
HETATM    3  C   UNK N   1      34.075  17.190   9.017  0.00  0.00     0.185 C 
BRANCH   3   4
HETATM    4  C   UNK N   1      34.616  18.275   8.095  0.00  0.00     0.163 C 
HETATM    5  O   UNK N   1      34.444  18.240   6.890  0.00  0.00    -0.648 OA
BRANCH   4   6
HETATM    6  O   UNK N   1      35.333  19.289   8.612  0.00  0.00    -0.775 OA
HETATM    7  H   UNK N   1      35.295  20.141   8.225  0.00  0.00     0.167 HD
ENDBRANCH   4   6
ENDBRANCH   3   4
BRANCH   3   8
HETATM    8  N   UNK N   1      33.210  16.180   8.404  0.00  0.00    -0.337 N 
HETATM    9  C   UNK N   1      33.572  14.878   7.934  0.00  0.00     0.136 A 
HETATM   10  C   UNK N   1      32.014  14.658   7.563  0.00  0.00     0.123 A 
HETATM   11  C   UNK N   1      31.945  16.027   8.119  0.00  0.00     0.222 A 
HETATM   12  O   UNK N   1      31.006  16.777   8.318  0.00  0.00    -0.273 OA
ENDBRANCH   3   8
ENDBRANCH   2   3
ENDBRANCH   1   2
BRANCH   1  13
HETATM   13  C   UNK N   1      34.930  14.693  11.478  0.00  0.00     0.138 C 
BRANCH  13  14
HETATM   14  N   UNK N   1      35.455  14.327  12.772  0.00  0.00    -0.227 N 
HETATM   15  C   UNK N   1      36.678  13.626  12.936  0.00  0.00     0.665 C 
HETATM   16  N   UNK N   1      37.011  13.198  14.096  0.00  0.00    -0.235 N 
HETATM   17  N   UNK N   1      37.521  13.375  11.829  0.00  0.00    -0.235 N 
HETATM   18  H   UNK N   1      37.920  12.867  14.278  0.00  0.00     0.174 HD
ATOM     19  HN  UNK N   1      36.321  13.200  14.847  1.00  0.00     0.174 HD
HETATM   20  H   UNK N   1      37.292  13.700  10.928  0.00  0.00     0.174 HD
HETATM   21  H   UNK N   1      38.352  12.866  11.961  0.00  0.00     0.174 HD
HETATM   22  H   UNK N   1      34.942  14.575  13.576  0.00  0.00     0.177 HD
ENDBRANCH  13  14
ENDBRANCH   1  13
TORSDOF 7
ENDMDL
MODEL 7
REMARK VINA RESULT:      -5.1      3.011      6.588
REMARK  7 active torsions:
REMARK  status: ('A' for Active; 'I' for Inactive)
REMARK    1  A    between atoms: C_2  and  C_1 
REMARK    2  A    between atoms: C_4  and  C_1 
REMARK    3  A    between atoms: C_6  and  C_2 
REMARK    4  A    between atoms: N_13  and  C_4 
REMARK    5  A    between atoms: C_8  and  C_6 
REMARK    6  A    between atoms: C_6  and  N_14 
REMARK    7  A    between atoms: O_17  and  C_8 
REMARK       I    between atoms: N_12  and  C_9 
REMARK       I    between atoms: N_13  and  C_9 
ROOT
HETATM    1  C   UNK N   1      34.239  13.121   9.652  0.00  0.00     0.023 C 
ENDROOT
BRANCH   1   2
HETATM    2  C   UNK N   1      34.858  14.251   8.813  0.00  0.00     0.038 C 
BRANCH   2   3
HETATM    3  C   UNK N   1      34.395  15.678   9.157  0.00  0.00     0.185 C 
BRANCH   3   4
HETATM    4  C   UNK N   1      35.412  16.278  10.118  0.00  0.00     0.163 C 
HETATM    5  O   UNK N   1      36.524  15.803  10.256  0.00  0.00    -0.648 OA
BRANCH   4   6
HETATM    6  O   UNK N   1      35.072  17.344  10.864  0.00  0.00    -0.775 OA
HETATM    7  H   UNK N   1      35.644  17.652  11.539  0.00  0.00     0.167 HD
ENDBRANCH   4   6
ENDBRANCH   3   4
BRANCH   3   8
HETATM    8  N   UNK N   1      34.158  16.410   7.911  0.00  0.00    -0.337 N 
HETATM    9  C   UNK N   1      33.607  15.913   6.688  0.00  0.00     0.136 A 
HETATM   10  C   UNK N   1      33.741  17.413   6.102  0.00  0.00     0.123 A 
HETATM   11  C   UNK N   1      34.273  17.632   7.465  0.00  0.00     0.222 A 
HETATM   12  O   UNK N   1      34.650  18.637   8.040  0.00  0.00    -0.273 OA
ENDBRANCH   3   8
ENDBRANCH   2   3
ENDBRANCH   1   2
BRANCH   1  13
HETATM   13  C   UNK N   1      35.231  12.405  10.562  0.00  0.00     0.138 C 
BRANCH  13  14
HETATM   14  N   UNK N   1      35.424  13.102  11.811  0.00  0.00    -0.227 N 
HETATM   15  C   UNK N   1      36.706  13.458  12.302  0.00  0.00     0.665 C 
HETATM   16  N   UNK N   1      36.820  13.937  13.485  0.00  0.00    -0.235 N 
HETATM   17  N   UNK N   1      37.862  13.269  11.511  0.00  0.00    -0.235 N 
HETATM   18  H   UNK N   1      37.658  14.352  13.791  0.00  0.00     0.174 HD
ATOM     19  HN  UNK N   1      36.027  13.886  14.124  1.00  0.00     0.174 HD
HETATM   20  H   UNK N   1      37.801  12.910  10.596  0.00  0.00     0.174 HD
HETATM   21  H   UNK N   1      38.744  13.500  11.880  0.00  0.00     0.174 HD
HETATM   22  H   UNK N   1      34.632  13.340  12.346  0.00  0.00     0.177 HD
ENDBRANCH  13  14
ENDBRANCH   1  13
TORSDOF 7
ENDMDL
MODEL 8
REMARK VINA RESULT:      -5.1      2.466      3.865
REMARK  7 active torsions:
REMARK  status: ('A' for Active; 'I' for Inactive)
REMARK    1  A    between atoms: C_2  and  C_1 
REMARK    2  A    between atoms: C_4  and  C_1 
REMARK    3  A    between atoms: C_6  and  C_2 
REMARK    4  A    between atoms: N_13  and  C_4 
REMARK    5  A    between atoms: C_8  and  C_6 
REMARK    6  A    between atoms: C_6  and  N_14 
REMARK    7  A    between atoms: O_17  and  C_8 
REMARK       I    between atoms: N_12  and  C_9 
REMARK       I    between atoms: N_13  and  C_9 
ROOT
HETATM    1  C   UNK N   1      30.686  18.322   9.068  0.00  0.00     0.023 C 
ENDROOT
BRANCH   1   2
HETATM    2  C   UNK N   1      31.756  17.400   8.460  0.00  0.00     0.038 C 
BRANCH   2   3
HETATM    3  C   UNK N   1      32.857  18.095   7.639  0.00  0.00     0.185 C 
BRANCH   3   4
HETATM    4  C   UNK N   1      34.100  18.190   8.514  0.00  0.00     0.163 C 
HETATM    5  O   UNK N   1      34.997  18.977   8.274  0.00  0.00    -0.648 OA
BRANCH   4   6
HETATM    6  O   UNK N   1      34.235  17.363   9.567  0.00  0.00    -0.775 OA
HETATM    7  H   UNK N   1      33.503  16.867   9.876  0.00  0.00     0.167 HD
ENDBRANCH   4   6
ENDBRANCH   3   4
BRANCH   3   8
HETATM    8  N   UNK N   1      33.006  17.394   6.361  0.00  0.00    -0.337 N 
HETATM    9  C   UNK N   1      34.097  16.576   5.927  0.00  0.00     0.136 A 
HETATM   10  C   UNK N   1      33.265  16.316   4.565  0.00  0.00     0.123 A 
HETATM   11  C   UNK N   1      32.310  17.197   5.274  0.00  0.00     0.222 A 
HETATM   12  O   UNK N   1      31.192  17.583   4.985  0.00  0.00    -0.273 OA
ENDBRANCH   3   8
ENDBRANCH   2   3
ENDBRANCH   1   2
BRANCH   1  13
HETATM   13  C   UNK N   1      29.287  17.717   9.096  0.00  0.00     0.138 C 
BRANCH  13  14
HETATM   14  N   UNK N   1      28.267  18.689   8.778  0.00  0.00    -0.227 N 
HETATM   15  C   UNK N   1      27.939  19.050   7.446  0.00  0.00     0.665 C 
HETATM   16  N   UNK N   1      27.136  20.026   7.235  0.00  0.00    -0.235 N 
HETATM   17  N   UNK N   1      28.505  18.361   6.350  0.00  0.00    -0.235 N 
HETATM   18  H   UNK N   1      26.754  20.191   6.343  0.00  0.00     0.174 HD
ATOM     19  HN  UNK N   1      26.888  20.645   8.007  1.00  0.00     0.174 HD
HETATM   20  H   UNK N   1      29.119  17.603   6.484  0.00  0.00     0.174 HD
HETATM   21  H   UNK N   1      28.282  18.644   5.434  0.00  0.00     0.174 HD
HETATM   22  H   UNK N   1      27.779  19.119   9.517  0.00  0.00     0.177 HD
ENDBRANCH  13  14
ENDBRANCH   1  13
TORSDOF 7
ENDMDL
MODEL 9
REMARK VINA RESULT:      -5.0     12.300     14.531
REMARK  7 active torsions:
REMARK  status: ('A' for Active; 'I' for Inactive)
REMARK    1  A    between atoms: C_2  and  C_1 
REMARK    2  A    between atoms: C_4  and  C_1 
REMARK    3  A    between atoms: C_6  and  C_2 
REMARK    4  A    between atoms: N_13  and  C_4 
REMARK    5  A    between atoms: C_8  and  C_6 
REMARK    6  A    between atoms: C_6  and  N_14 
REMARK    7  A    between atoms: O_17  and  C_8 
REMARK       I    between atoms: N_12  and  C_9 
REMARK       I    between atoms: N_13  and  C_9 
ROOT
HETATM    1  C   UNK N   1      26.461  24.211  -3.935  0.00  0.00     0.023 C 
ENDROOT
BRANCH   1   2
HETATM    2  C   UNK N   1      27.810  24.104  -3.205  0.00  0.00     0.038 C 
BRANCH   2   3
HETATM    3  C   UNK N   1      29.062  24.088  -4.100  0.00  0.00     0.185 C 
BRANCH   3   4
HETATM    4  C   UNK N   1      29.747  25.442  -3.965  0.00  0.00     0.163 C 
HETATM    5  O   UNK N   1      29.432  26.393  -4.657  0.00  0.00    -0.648 OA
BRANCH   4   6
HETATM    6  O   UNK N   1      30.750  25.593  -3.083  0.00  0.00    -0.775 OA
HETATM    7  H   UNK N   1      31.545  26.019  -3.338  0.00  0.00     0.167 HD
ENDBRANCH   4   6
ENDBRANCH   3   4
BRANCH   3   8
HETATM    8  N   UNK N   1      29.866  22.910  -3.765  0.00  0.00    -0.337 N 
HETATM    9  C   UNK N   1      30.261  21.838  -4.627  0.00  0.00     0.136 A 
HETATM   10  C   UNK N   1      31.061  21.216  -3.368  0.00  0.00     0.123 A 
HETATM   11  C   UNK N   1      30.508  22.433  -2.733  0.00  0.00     0.222 A 
HETATM   12  O   UNK N   1      30.643  22.901  -1.616  0.00  0.00    -0.273 OA
ENDBRANCH   3   8
ENDBRANCH   2   3
ENDBRANCH   1   2
BRANCH   1  13
HETATM   13  C   UNK N   1      26.061  25.637  -4.297  0.00  0.00     0.138 C 
BRANCH  13  14
HETATM   14  N   UNK N   1      26.565  26.602  -3.348  0.00  0.00    -0.227 N 
HETATM   15  C   UNK N   1      26.247  27.982  -3.413  0.00  0.00     0.665 C 
HETATM   16  N   UNK N   1      26.845  28.807  -2.637  0.00  0.00    -0.235 N 
HETATM   17  N   UNK N   1      25.293  28.462  -4.340  0.00  0.00    -0.235 N 
HETATM   18  H   UNK N   1      26.530  29.733  -2.532  0.00  0.00     0.174 HD
ATOM     19  HN  UNK N   1      27.666  28.497  -2.117  1.00  0.00     0.174 HD
HETATM   20  H   UNK N   1      24.813  27.849  -4.943  0.00  0.00     0.174 HD
HETATM   21  H   UNK N   1      25.106  29.427  -4.385  0.00  0.00     0.174 HD
HETATM   22  H   UNK N   1      27.155  26.287  -2.625  0.00  0.00     0.177 HD
ENDBRANCH  13  14
ENDBRANCH   1  13
TORSDOF 7
ENDMDL
