REMARK  15 active torsions:
REMARK  status: ('A' for Active; 'I' for Inactive)
REMARK    1  A    between atoms: C_4  and  C_1 
REMARK    2  A    between atoms: O_27  and  C_1 
REMARK    3  A    between atoms: C_6  and  O_19 
REMARK    4  A    between atoms: C_7  and  O_20 
REMARK    5  A    between atoms: N_11  and  C_8 
REMARK    6  A    between atoms: C_10  and  N_18 
REMARK    7  A    between atoms: P_31  and  O_21 
REMARK    8  A    between atoms: P_32  and  O_23 
REMARK    9  A    between atoms: P_33  and  O_25 
REMARK   10  A    between atoms: P_33  and  O_26 
REMARK   11  A    between atoms: P_31  and  O_27 
REMARK   12  A    between atoms: P_31  and  O_29 
REMARK   13  A    between atoms: P_32  and  O_29 
REMARK   14  A    between atoms: P_32  and  O_30 
REMARK   15  A    between atoms: P_33  and  O_30 
ROOT
HETATM    1  C   UNK N   1       0.576  -2.084   0.700  0.00  0.00     0.180 C 
HETATM    2  C   UNK N   1       1.882  -2.477   0.033  0.00  0.00     0.182 C 
HETATM    3  C   UNK N   1       2.539  -1.146  -0.011  0.00  0.00     0.198 C 
HETATM    4  C   UNK N   1       1.356  -0.309  -0.497  0.00  0.00     0.262 C 
HETATM    5  O   UNK N   1       0.209  -0.815   0.175  0.00  0.00    -0.353 OA
ENDROOT
BRANCH   1   6
HETATM    6  C   UNK N   1      -0.452  -3.171   0.407  0.00  0.00     0.215 C 
BRANCH   6   7
HETATM    7  O   UNK N   1      -1.745  -2.759   0.714  0.00  0.00    -0.294 OA
BRANCH   7   8
HETATM    8  P   UNK N   1      -2.658  -3.108  -0.730  0.00  0.00     0.401 P 
HETATM    9  O   UNK N   1      -2.738  -4.654  -0.851  0.00  0.00    -0.631 OA
BRANCH   8  10
HETATM   10  O   UNK N   1      -1.852  -2.537  -2.159  0.00  0.00    -0.307 OA
HETATM   11  H   UNK N   1      -1.351  -2.767  -2.957  0.00  0.00     0.222 HD
ENDBRANCH   8  10
BRANCH   8  12
HETATM   12  O   UNK N   1      -4.308  -2.546  -0.684  0.00  0.00    -0.195 OA
BRANCH  12  13
HETATM   13  P   UNK N   1      -4.447  -1.403   0.629  0.00  0.00     0.409 P 
HETATM   14  O   UNK N   1      -3.508  -0.202   0.336  0.00  0.00    -0.631 OA
BRANCH  13  15
HETATM   15  O   UNK N   1      -3.960  -2.107   2.139  0.00  0.00    -0.307 OA
HETATM   16  H   UNK N   1      -4.164  -2.539   2.983  0.00  0.00     0.222 HD
ENDBRANCH  13  15
BRANCH  13  17
HETATM   17  O   UNK N   1      -6.068  -0.766   0.800  0.00  0.00    -0.213 OA
BRANCH  17  18
HETATM   18  P   UNK N   1      -7.006  -1.366  -0.540  0.00  0.00     0.332 P 
HETATM   19  S   UNK N   1      -7.753   0.206  -0.231  0.00  0.00    -0.007 SA
BRANCH  18  20
HETATM   20  O   UNK N   1      -8.684  -1.762  -0.342  0.00  0.00    -0.324 OA
HETATM   21  H   UNK N   1      -9.344  -1.060  -0.232  0.00  0.00     0.220 HD
ENDBRANCH  18  20
BRANCH  18  22
HETATM   22  O   UNK N   1      -7.262  -2.412   0.824  0.00  0.00    -0.324 OA
HETATM   23  H   UNK N   1      -7.839  -2.581   1.586  0.00  0.00     0.220 HD
ENDBRANCH  18  22
ENDBRANCH  17  18
ENDBRANCH  13  17
ENDBRANCH  12  13
ENDBRANCH   8  12
ENDBRANCH   7   8
ENDBRANCH   6   7
ENDBRANCH   1   6
BRANCH   2  24
HETATM   24  O   UNK N   1       2.602  -3.424   0.765  0.00  0.00    -0.390 OA
HETATM   25  H   UNK N   1       2.283  -4.186   1.273  0.00  0.00     0.210 HD
ENDBRANCH   2  24
BRANCH   3  26
HETATM   26  O   UNK N   1       3.630  -1.122  -0.883  0.00  0.00    -0.388 OA
HETATM   27  H   UNK N   1       4.023  -1.770  -1.489  0.00  0.00     0.210 HD
ENDBRANCH   3  26
BRANCH   4  28
HETATM   28  N   UNK N   1       1.525   1.136  -0.258  0.00  0.00    -0.297 N 
HETATM   29  C   UNK N   1       0.538   2.065  -0.366  0.00  0.00     0.188 A 
HETATM   30  N   UNK N   1       0.999   3.321  -0.104  0.00  0.00    -0.346 N 
HETATM   31  C   UNK N   1       2.308   3.151   0.153  0.00  0.00     0.122 A 
ATOM     32  HN  UNK N   1       0.470   4.194  -0.102  1.00  0.00     0.167 HD
HETATM   33  C   UNK N   1       3.286   4.088   0.453  0.00  0.00     0.131 A 
HETATM   34  C   UNK N   1       2.625   1.845   0.063  0.00  0.00     0.142 A 
HETATM   35  N   UNK N   1       4.564   3.644   0.640  0.00  0.00    -0.337 N 
HETATM   36  C   UNK N   1       4.869   2.310   0.537  0.00  0.00     0.183 A 
ATOM     37  HN  UNK N   1       5.302   4.313   0.860  1.00  0.00     0.168 HD
HETATM   38  N   UNK N   1       3.892   1.397   0.246  0.00  0.00    -0.336 N 
ATOM     39  HN  UNK N   1       4.112   0.404   0.169  1.00  0.00     0.168 HD
BRANCH  33  40
HETATM   40  N   UNK N   1       2.982   5.460   0.552  0.00  0.00    -0.383 N 
HETATM   41  H   UNK N   1       3.706   6.124   0.621  0.00  0.00     0.157 HD
HETATM   42  H   UNK N   1       2.043   5.757   0.552  0.00  0.00     0.157 HD
ENDBRANCH  33  40
ENDBRANCH   4  28
TORSDOF 15
