MODEL 1
REMARK VINA RESULT:      -5.2      0.000      0.000
REMARK  1 active torsions:
REMARK  status: ('A' for Active; 'I' for Inactive)
REMARK       I    between atoms: C_10  and  N_11 
REMARK    1  A    between atoms: C_14  and  O_15 
ROOT
HETATM    1  C   UNK N   1      24.467  20.078   3.638  0.00  0.00     0.158 C 
HETATM    2  N   UNK N   1      23.249  19.306   3.791  0.00  0.00    -0.331 N 
HETATM    3  C   UNK N   1      23.016  18.286   4.656  0.00  0.00     0.184 A 
HETATM    4  N   UNK N   1      21.749  17.798   4.513  0.00  0.00    -0.346 N 
ATOM      5  HN  UNK N   1      21.309  17.037   5.029  1.00  0.00     0.167 HD
HETATM    6  C   UNK N   1      21.212  18.553   3.532  0.00  0.00     0.130 A 
HETATM    7  C   UNK N   1      22.118  19.452   3.106  0.00  0.00     0.155 A 
HETATM    8  N   UNK N   1      21.859  20.347   2.125  0.00  0.00    -0.174 N 
ATOM      9  HN  UNK N   1      22.567  21.017   1.824  1.00  0.00     0.186 HD
HETATM   10  C   UNK N   1      20.620  20.324   1.549  0.00  0.00     0.679 A 
HETATM   11  N   UNK N   1      20.313  21.240   0.525  0.00  0.00    -0.234 N 
HETATM   12  N   UNK N   1      19.676  19.415   1.966  0.00  0.00    -0.168 N 
ATOM     13  HN  UNK N   1      18.755  19.411   1.527  1.00  0.00     0.186 HD
HETATM   14  C   UNK N   1      19.952  18.516   2.960  0.00  0.00     0.186 A 
HETATM   15  H   UNK N   1      19.422  21.229   0.106  0.00  0.00     0.174 HD
HETATM   16  H   UNK N   1      20.989  21.891   0.227  0.00  0.00     0.174 HD
ENDROOT
BRANCH  14  17
HETATM   17  O   UNK N   1      19.026  17.631   3.362  0.00  0.00    -0.344 OA
HETATM   18  H   UNK N   1      18.119  17.782   3.175  0.00  0.00     0.219 HD
ENDBRANCH  14  17
TORSDOF 1
ENDMDL
MODEL 2
REMARK VINA RESULT:      -5.0      2.039      3.137
REMARK  1 active torsions:
REMARK  status: ('A' for Active; 'I' for Inactive)
REMARK       I    between atoms: C_10  and  N_11 
REMARK    1  A    between atoms: C_14  and  O_15 
ROOT
HETATM    1  C   UNK N   1      19.759  15.959   0.528  0.00  0.00     0.158 C 
HETATM    2  N   UNK N   1      20.071  16.606   1.789  0.00  0.00    -0.331 N 
HETATM    3  C   UNK N   1      20.222  16.024   3.005  0.00  0.00     0.184 A 
HETATM    4  N   UNK N   1      20.513  16.951   3.963  0.00  0.00    -0.346 N 
ATOM      5  HN  UNK N   1      20.677  16.795   4.957  1.00  0.00     0.167 HD
HETATM    6  C   UNK N   1      20.536  18.123   3.294  0.00  0.00     0.130 A 
HETATM    7  C   UNK N   1      20.270  17.905   1.993  0.00  0.00     0.155 A 
HETATM    8  N   UNK N   1      20.225  18.900   1.077  0.00  0.00    -0.174 N 
ATOM      9  HN  UNK N   1      20.020  18.703   0.097  1.00  0.00     0.186 HD
HETATM   10  C   UNK N   1      20.462  20.175   1.505  0.00  0.00     0.679 A 
HETATM   11  N   UNK N   1      20.425  21.237   0.581  0.00  0.00    -0.234 N 
HETATM   12  N   UNK N   1      20.737  20.425   2.829  0.00  0.00    -0.168 N 
ATOM     13  HN  UNK N   1      20.912  21.383   3.134  1.00  0.00     0.186 HD
HETATM   14  C   UNK N   1      20.779  19.409   3.745  0.00  0.00     0.186 A 
HETATM   15  H   UNK N   1      20.595  22.158   0.883  0.00  0.00     0.174 HD
HETATM   16  H   UNK N   1      20.228  21.058  -0.367  0.00  0.00     0.174 HD
ENDROOT
BRANCH  14  17
HETATM   17  O   UNK N   1      21.048  19.659   5.037  0.00  0.00    -0.344 OA
HETATM   18  H   UNK N   1      20.916  20.519   5.386  0.00  0.00     0.219 HD
ENDBRANCH  14  17
TORSDOF 1
ENDMDL
MODEL 3
REMARK VINA RESULT:      -4.9      1.947      2.836
REMARK  1 active torsions:
REMARK  status: ('A' for Active; 'I' for Inactive)
REMARK       I    between atoms: C_10  and  N_11 
REMARK    1  A    between atoms: C_14  and  O_15 
ROOT
HETATM    1  C   UNK N   1      22.524  15.949   4.398  0.00  0.00     0.158 C 
HETATM    2  N   UNK N   1      22.707  17.354   4.086  0.00  0.00    -0.331 N 
HETATM    3  C   UNK N   1      23.817  18.111   4.280  0.00  0.00     0.184 A 
HETATM    4  N   UNK N   1      23.617  19.394   3.864  0.00  0.00    -0.346 N 
ATOM      5  HN  UNK N   1      24.277  20.172   3.891  1.00  0.00     0.167 HD
HETATM    6  C   UNK N   1      22.348  19.402   3.407  0.00  0.00     0.130 A 
HETATM    7  C   UNK N   1      21.811  18.176   3.544  0.00  0.00     0.155 A 
HETATM    8  N   UNK N   1      20.544  17.883   3.169  0.00  0.00    -0.174 N 
ATOM      9  HN  UNK N   1      20.166  16.943   3.286  1.00  0.00     0.186 HD
HETATM   10  C   UNK N   1      19.789  18.885   2.629  0.00  0.00     0.679 A 
HETATM   11  N   UNK N   1      18.467  18.619   2.227  0.00  0.00    -0.234 N 
HETATM   12  N   UNK N   1      20.314  20.147   2.478  0.00  0.00    -0.168 N 
ATOM     13  HN  UNK N   1      19.737  20.885   2.073  1.00  0.00     0.186 HD
HETATM   14  C   UNK N   1      21.597  20.429   2.862  0.00  0.00     0.186 A 
HETATM   15  H   UNK N   1      17.917  19.336   1.837  0.00  0.00     0.174 HD
HETATM   16  H   UNK N   1      18.091  17.715   2.335  0.00  0.00     0.174 HD
ENDROOT
BRANCH  14  17
HETATM   17  O   UNK N   1      22.103  21.664   2.711  0.00  0.00    -0.344 OA
HETATM   18  H   UNK N   1      21.706  22.265   2.111  0.00  0.00     0.219 HD
ENDBRANCH  14  17
TORSDOF 1
ENDMDL
MODEL 4
REMARK VINA RESULT:      -4.9     12.884     14.238
REMARK  1 active torsions:
REMARK  status: ('A' for Active; 'I' for Inactive)
REMARK       I    between atoms: C_10  and  N_11 
REMARK    1  A    between atoms: C_14  and  O_15 
ROOT
HETATM    1  C   UNK N   1      32.385  14.299   6.103  0.00  0.00     0.158 C 
HETATM    2  N   UNK N   1      33.002  15.584   6.372  0.00  0.00    -0.331 N 
HETATM    3  C   UNK N   1      33.214  16.602   5.500  0.00  0.00     0.184 A 
HETATM    4  N   UNK N   1      33.821  17.658   6.114  0.00  0.00    -0.346 N 
ATOM      5  HN  UNK N   1      34.096  18.549   5.701  1.00  0.00     0.167 HD
HETATM    6  C   UNK N   1      33.975  17.255   7.392  0.00  0.00     0.130 A 
HETATM    7  C   UNK N   1      33.482  16.012   7.537  0.00  0.00     0.155 A 
HETATM    8  N   UNK N   1      33.499  15.348   8.715  0.00  0.00    -0.174 N 
ATOM      9  HN  UNK N   1      33.117  14.405   8.793  1.00  0.00     0.186 HD
HETATM   10  C   UNK N   1      34.045  15.978   9.797  0.00  0.00     0.679 A 
HETATM   11  N   UNK N   1      34.081  15.320  11.040  0.00  0.00    -0.234 N 
HETATM   12  N   UNK N   1      34.556  17.249   9.677  0.00  0.00    -0.168 N 
ATOM     13  HN  UNK N   1      34.961  17.708  10.494  1.00  0.00     0.186 HD
HETATM   14  C   UNK N   1      34.532  17.909   8.478  0.00  0.00     0.186 A 
HETATM   15  H   UNK N   1      34.473  15.768  11.825  0.00  0.00     0.174 HD
HETATM   16  H   UNK N   1      33.714  14.409  11.127  0.00  0.00     0.174 HD
ENDROOT
BRANCH  14  17
HETATM   17  O   UNK N   1      35.033  19.150   8.367  0.00  0.00    -0.344 OA
HETATM   18  H   UNK N   1      34.495  19.893   8.558  0.00  0.00     0.219 HD
ENDBRANCH  14  17
TORSDOF 1
ENDMDL
MODEL 5
REMARK VINA RESULT:      -4.9     16.384     18.005
REMARK  1 active torsions:
REMARK  status: ('A' for Active; 'I' for Inactive)
REMARK       I    between atoms: C_10  and  N_11 
REMARK    1  A    between atoms: C_14  and  O_15 
ROOT
HETATM    1  C   UNK N   1      34.872  12.102  14.934  0.00  0.00     0.158 C 
HETATM    2  N   UNK N   1      35.507  13.183  14.203  0.00  0.00    -0.331 N 
HETATM    3  C   UNK N   1      36.363  14.119  14.684  0.00  0.00     0.184 A 
HETATM    4  N   UNK N   1      36.756  14.979  13.701  0.00  0.00    -0.346 N 
ATOM      5  HN  UNK N   1      37.392  15.773  13.779  1.00  0.00     0.167 HD
HETATM    6  C   UNK N   1      36.113  14.539  12.599  0.00  0.00     0.130 A 
HETATM    7  C   UNK N   1      35.368  13.464  12.910  0.00  0.00     0.155 A 
HETATM    8  N   UNK N   1      34.611  12.807  12.001  0.00  0.00    -0.174 N 
ATOM      9  HN  UNK N   1      34.056  11.994  12.268  1.00  0.00     0.186 HD
HETATM   10  C   UNK N   1      34.613  13.268  10.715  0.00  0.00     0.679 A 
HETATM   11  N   UNK N   1      33.837  12.611   9.741  0.00  0.00    -0.234 N 
HETATM   12  N   UNK N   1      35.366  14.366  10.370  0.00  0.00    -0.168 N 
ATOM     13  HN  UNK N   1      35.357  14.698   9.405  1.00  0.00     0.186 HD
HETATM   14  C   UNK N   1      36.127  15.019  11.301  0.00  0.00     0.186 A 
HETATM   15  H   UNK N   1      33.834  12.938   8.812  0.00  0.00     0.174 HD
HETATM   16  H   UNK N   1      33.298  11.825   9.988  0.00  0.00     0.174 HD
ENDROOT
BRANCH  14  17
HETATM   17  O   UNK N   1      36.861  16.091  10.957  0.00  0.00    -0.344 OA
HETATM   18  H   UNK N   1      37.793  16.071  11.051  0.00  0.00     0.219 HD
ENDBRANCH  14  17
TORSDOF 1
ENDMDL
MODEL 6
REMARK VINA RESULT:      -4.8     20.769     22.356
REMARK  1 active torsions:
REMARK  status: ('A' for Active; 'I' for Inactive)
REMARK       I    between atoms: C_10  and  N_11 
REMARK    1  A    between atoms: C_14  and  O_15 
ROOT
HETATM    1  C   UNK N   1      41.791  20.593   0.070  0.00  0.00     0.158 C 
HETATM    2  N   UNK N   1      41.971  21.658   1.038  0.00  0.00    -0.331 N 
HETATM    3  C   UNK N   1      41.218  22.777   1.191  0.00  0.00     0.184 A 
HETATM    4  N   UNK N   1      41.690  23.553   2.209  0.00  0.00    -0.346 N 
ATOM      5  HN  UNK N   1      41.320  24.444   2.541  1.00  0.00     0.167 HD
HETATM    6  C   UNK N   1      42.758  22.874   2.676  0.00  0.00     0.130 A 
HETATM    7  C   UNK N   1      42.918  21.742   1.969  0.00  0.00     0.155 A 
HETATM    8  N   UNK N   1      43.913  20.857   2.214  0.00  0.00    -0.174 N 
ATOM      9  HN  UNK N   1      44.008  20.006   1.659  1.00  0.00     0.186 HD
HETATM   10  C   UNK N   1      44.785  21.140   3.227  0.00  0.00     0.679 A 
HETATM   11  N   UNK N   1      45.833  20.245   3.512  0.00  0.00    -0.234 N 
HETATM   12  N   UNK N   1      44.644  22.292   3.965  0.00  0.00    -0.168 N 
ATOM     13  HN  UNK N   1      45.303  22.489   4.718  1.00  0.00     0.186 HD
HETATM   14  C   UNK N   1      43.633  23.177   3.706  0.00  0.00     0.186 A 
HETATM   15  H   UNK N   1      46.465  20.442   4.240  0.00  0.00     0.174 HD
HETATM   16  H   UNK N   1      45.934  19.420   2.983  0.00  0.00     0.174 HD
ENDROOT
BRANCH  14  17
HETATM   17  O   UNK N   1      43.500  24.300   4.431  0.00  0.00    -0.344 OA
HETATM   18  H   UNK N   1      44.105  25.007   4.316  0.00  0.00     0.219 HD
ENDBRANCH  14  17
TORSDOF 1
ENDMDL
MODEL 7
REMARK VINA RESULT:      -4.8     18.137     19.521
REMARK  1 active torsions:
REMARK  status: ('A' for Active; 'I' for Inactive)
REMARK       I    between atoms: C_10  and  N_11 
REMARK    1  A    between atoms: C_14  and  O_15 
ROOT
HETATM    1  C   UNK N   1      33.603  10.761  14.420  0.00  0.00     0.158 C 
HETATM    2  N   UNK N   1      34.590  11.639  15.018  0.00  0.00    -0.331 N 
HETATM    3  C   UNK N   1      35.081  11.597  16.283  0.00  0.00     0.184 A 
HETATM    4  N   UNK N   1      35.998  12.585  16.489  0.00  0.00    -0.346 N 
ATOM      5  HN  UNK N   1      36.523  12.786  17.341  1.00  0.00     0.167 HD
HETATM    6  C   UNK N   1      36.055  13.237  15.309  0.00  0.00     0.130 A 
HETATM    7  C   UNK N   1      35.209  12.663  14.435  0.00  0.00     0.155 A 
HETATM    8  N   UNK N   1      35.053  13.105  13.166  0.00  0.00    -0.174 N 
ATOM      9  HN  UNK N   1      34.402  12.648  12.526  1.00  0.00     0.186 HD
HETATM   10  C   UNK N   1      35.793  14.182  12.768  0.00  0.00     0.679 A 
HETATM   11  N   UNK N   1      35.658  14.671  11.455  0.00  0.00    -0.234 N 
HETATM   12  N   UNK N   1      36.666  14.787  13.642  0.00  0.00    -0.168 N 
ATOM     13  HN  UNK N   1      37.212  15.591  13.330  1.00  0.00     0.186 HD
HETATM   14  C   UNK N   1      36.813  14.329  14.923  0.00  0.00     0.186 A 
HETATM   15  H   UNK N   1      36.188  15.447  11.162  0.00  0.00     0.174 HD
HETATM   16  H   UNK N   1      35.033  14.238  10.830  0.00  0.00     0.174 HD
ENDROOT
BRANCH  14  17
HETATM   17  O   UNK N   1      37.668  14.924  15.771  0.00  0.00    -0.344 OA
HETATM   18  H   UNK N   1      38.062  14.431  16.464  0.00  0.00     0.219 HD
ENDBRANCH  14  17
TORSDOF 1
ENDMDL
MODEL 8
REMARK VINA RESULT:      -4.7      7.529      9.761
REMARK  1 active torsions:
REMARK  status: ('A' for Active; 'I' for Inactive)
REMARK       I    between atoms: C_10  and  N_11 
REMARK    1  A    between atoms: C_14  and  O_15 
ROOT
HETATM    1  C   UNK N   1      29.949  16.963   4.174  0.00  0.00     0.158 C 
HETATM    2  N   UNK N   1      29.082  17.268   5.296  0.00  0.00    -0.331 N 
HETATM    3  C   UNK N   1      27.741  17.476   5.276  0.00  0.00     0.184 A 
HETATM    4  N   UNK N   1      27.265  17.739   6.528  0.00  0.00    -0.346 N 
ATOM      5  HN  UNK N   1      26.302  17.931   6.804  1.00  0.00     0.167 HD
HETATM    6  C   UNK N   1      28.358  17.686   7.317  0.00  0.00     0.130 A 
HETATM    7  C   UNK N   1      29.441  17.404   6.570  0.00  0.00     0.155 A 
HETATM    8  N   UNK N   1      30.683  17.287   7.093  0.00  0.00    -0.174 N 
ATOM      9  HN  UNK N   1      31.485  17.072   6.500  1.00  0.00     0.186 HD
HETATM   10  C   UNK N   1      30.830  17.467   8.440  0.00  0.00     0.679 A 
HETATM   11  N   UNK N   1      32.107  17.354   9.021  0.00  0.00    -0.234 N 
HETATM   12  N   UNK N   1      29.739  17.757   9.226  0.00  0.00    -0.168 N 
ATOM     13  HN  UNK N   1      29.865  17.888  10.230  1.00  0.00     0.186 HD
HETATM   14  C   UNK N   1      28.489  17.871   8.682  0.00  0.00     0.186 A 
HETATM   15  H   UNK N   1      32.220  17.483   9.990  0.00  0.00     0.174 HD
HETATM   16  H   UNK N   1      32.888  17.147   8.457  0.00  0.00     0.174 HD
ENDROOT
BRANCH  14  17
HETATM   17  O   UNK N   1      27.427  18.154   9.456  0.00  0.00    -0.344 OA
HETATM   18  H   UNK N   1      27.545  18.333  10.368  0.00  0.00     0.219 HD
ENDBRANCH  14  17
TORSDOF 1
ENDMDL
MODEL 9
REMARK VINA RESULT:      -4.6      8.376     10.205
REMARK  1 active torsions:
REMARK  status: ('A' for Active; 'I' for Inactive)
REMARK       I    between atoms: C_10  and  N_11 
REMARK    1  A    between atoms: C_14  and  O_15 
ROOT
HETATM    1  C   UNK N   1      31.369  15.774   5.579  0.00  0.00     0.158 C 
HETATM    2  N   UNK N   1      31.232  16.391   6.885  0.00  0.00    -0.331 N 
HETATM    3  C   UNK N   1      32.072  16.284   7.945  0.00  0.00     0.184 A 
HETATM    4  N   UNK N   1      31.616  17.007   9.009  0.00  0.00    -0.346 N 
ATOM      5  HN  UNK N   1      32.044  17.106   9.930  1.00  0.00     0.167 HD
HETATM    6  C   UNK N   1      30.467  17.560   8.567  0.00  0.00     0.130 A 
HETATM    7  C   UNK N   1      30.246  17.185   7.294  0.00  0.00     0.155 A 
HETATM    8  N   UNK N   1      29.165  17.589   6.588  0.00  0.00    -0.174 N 
ATOM      9  HN  UNK N   1      29.025  17.287   5.623  1.00  0.00     0.186 HD
HETATM   10  C   UNK N   1      28.268  18.412   7.206  0.00  0.00     0.679 A 
HETATM   11  N   UNK N   1      27.131  18.853   6.503  0.00  0.00    -0.234 N 
HETATM   12  N   UNK N   1      28.470  18.810   8.507  0.00  0.00    -0.168 N 
ATOM     13  HN  UNK N   1      27.791  19.426   8.955  1.00  0.00     0.186 HD
HETATM   14  C   UNK N   1      29.568  18.394   9.209  0.00  0.00     0.186 A 
HETATM   15  H   UNK N   1      26.479  19.447   6.942  0.00  0.00     0.174 HD
HETATM   16  H   UNK N   1      26.986  18.568   5.571  0.00  0.00     0.174 HD
ENDROOT
BRANCH  14  17
HETATM   17  O   UNK N   1      29.760  18.787  10.479  0.00  0.00    -0.344 OA
HETATM   18  H   UNK N   1      29.303  19.533  10.814  0.00  0.00     0.219 HD
ENDBRANCH  14  17
TORSDOF 1
ENDMDL
