MODEL 1
REMARK VINA RESULT:      -3.1      0.000      0.000
REMARK  1 active torsions:
REMARK  status: ('A' for Active; 'I' for Inactive)
REMARK    1  A    between atoms: P_2  and  O_3 
ROOT
HETATM    1  C   UNK N   1      20.268  18.758   2.161  0.00  0.00     0.105 C 
HETATM    2  P   UNK N   1      20.972  20.388   1.617  0.00  0.00     0.085 P 
HETATM    3  O   UNK N   1      21.089  20.744   0.111  0.00  0.00    -0.676 OA
HETATM    4  H   UNK N   1      20.912  20.171   2.978  0.00  0.00     0.120 HD
ENDROOT
BRANCH   2   5
HETATM    5  O   UNK N   1      21.563  21.669   2.627  0.00  0.00    -0.352 OA
HETATM    6  H   UNK N   1      22.517  21.812   2.719  0.00  0.00     0.217 HD
ENDBRANCH   2   5
TORSDOF 1
ENDMDL
MODEL 2
REMARK VINA RESULT:      -3.1      0.287      1.917
REMARK  1 active torsions:
REMARK  status: ('A' for Active; 'I' for Inactive)
REMARK    1  A    between atoms: P_2  and  O_3 
ROOT
HETATM    1  C   UNK N   1      20.229  18.766   2.385  0.00  0.00     0.105 C 
HETATM    2  P   UNK N   1      20.942  20.321   1.660  0.00  0.00     0.085 P 
HETATM    3  O   UNK N   1      21.755  21.311   2.536  0.00  0.00    -0.676 OA
HETATM    4  H   UNK N   1      20.236  19.509   0.796  0.00  0.00     0.120 HD
ENDROOT
BRANCH   2   5
HETATM    5  O   UNK N   1      20.821  20.867   0.019  0.00  0.00    -0.352 OA
HETATM    6  H   UNK N   1      20.049  21.380  -0.266  0.00  0.00     0.217 HD
ENDBRANCH   2   5
TORSDOF 1
ENDMDL
MODEL 3
REMARK VINA RESULT:      -3.0     15.279     15.316
REMARK  1 active torsions:
REMARK  status: ('A' for Active; 'I' for Inactive)
REMARK    1  A    between atoms: P_2  and  O_3 
ROOT
HETATM    1  C   UNK N   1      33.485  17.674   6.810  0.00  0.00     0.105 C 
HETATM    2  P   UNK N   1      34.374  18.060   8.395  0.00  0.00     0.085 P 
HETATM    3  O   UNK N   1      35.336  19.273   8.496  0.00  0.00    -0.676 OA
HETATM    4  H   UNK N   1      33.541  16.959   8.412  0.00  0.00     0.120 HD
ENDROOT
BRANCH   2   5
HETATM    5  O   UNK N   1      34.275  17.193   9.894  0.00  0.00    -0.352 OA
HETATM    6  H   UNK N   1      34.324  17.672  10.736  0.00  0.00     0.217 HD
ENDBRANCH   2   5
TORSDOF 1
ENDMDL
MODEL 4
REMARK VINA RESULT:      -2.8     11.452     11.527
REMARK  1 active torsions:
REMARK  status: ('A' for Active; 'I' for Inactive)
REMARK    1  A    between atoms: P_2  and  O_3 
ROOT
HETATM    1  C   UNK N   1      30.465  21.745  -4.433  0.00  0.00     0.105 C 
HETATM    2  P   UNK N   1      31.263  22.014  -2.778  0.00  0.00     0.085 P 
HETATM    3  O   UNK N   1      30.685  23.043  -1.770  0.00  0.00    -0.676 OA
HETATM    4  H   UNK N   1      31.856  21.076  -3.599  0.00  0.00     0.120 HD
ENDROOT
BRANCH   2   5
HETATM    5  O   UNK N   1      32.670  21.219  -2.147  0.00  0.00    -0.352 OA
HETATM    6  H   UNK N   1      32.642  20.809  -1.269  0.00  0.00     0.217 HD
ENDBRANCH   2   5
TORSDOF 1
ENDMDL
MODEL 5
REMARK VINA RESULT:      -2.8     14.657     15.035
REMARK  1 active torsions:
REMARK  status: ('A' for Active; 'I' for Inactive)
REMARK    1  A    between atoms: P_2  and  O_3 
ROOT
HETATM    1  C   UNK N   1      33.513  16.747   9.082  0.00  0.00     0.105 C 
HETATM    2  P   UNK N   1      34.279  17.968   7.909  0.00  0.00     0.085 P 
HETATM    3  O   UNK N   1      35.088  19.182   8.437  0.00  0.00    -0.676 OA
HETATM    4  H   UNK N   1      33.580  16.924   7.337  0.00  0.00     0.120 HD
ENDROOT
BRANCH   2   5
HETATM    5  O   UNK N   1      34.215  17.944   6.176  0.00  0.00    -0.352 OA
HETATM    6  H   UNK N   1      33.723  17.245   5.719  0.00  0.00     0.217 HD
ENDBRANCH   2   5
TORSDOF 1
ENDMDL
MODEL 6
REMARK VINA RESULT:      -2.7     13.234     13.644
REMARK  1 active torsions:
REMARK  status: ('A' for Active; 'I' for Inactive)
REMARK    1  A    between atoms: P_2  and  O_3 
ROOT
HETATM    1  C   UNK N   1      21.887  12.169  10.695  0.00  0.00     0.105 C 
HETATM    2  P   UNK N   1      23.275  12.015  11.919  0.00  0.00     0.085 P 
HETATM    3  O   UNK N   1      23.001  11.607  13.391  0.00  0.00    -0.676 OA
HETATM    4  H   UNK N   1      23.627  12.383  10.636  0.00  0.00     0.120 HD
ENDROOT
BRANCH   2   5
HETATM    5  O   UNK N   1      24.965  12.282  11.631  0.00  0.00    -0.352 OA
HETATM    6  H   UNK N   1      25.333  13.176  11.697  0.00  0.00     0.217 HD
ENDBRANCH   2   5
TORSDOF 1
ENDMDL
MODEL 7
REMARK VINA RESULT:      -2.7      2.022      2.528
REMARK  1 active torsions:
REMARK  status: ('A' for Active; 'I' for Inactive)
REMARK    1  A    between atoms: P_2  and  O_3 
ROOT
HETATM    1  C   UNK N   1      22.478  20.502   2.680  0.00  0.00     0.105 C 
HETATM    2  P   UNK N   1      20.910  20.226   1.722  0.00  0.00     0.085 P 
HETATM    3  O   UNK N   1      19.651  19.629   2.406  0.00  0.00    -0.676 OA
HETATM    4  H   UNK N   1      21.971  20.761   1.020  0.00  0.00     0.120 HD
ENDROOT
BRANCH   2   5
HETATM    5  O   UNK N   1      20.628  20.565   0.045  0.00  0.00    -0.352 OA
HETATM    6  H   UNK N   1      20.812  19.888  -0.624  0.00  0.00     0.217 HD
ENDBRANCH   2   5
TORSDOF 1
ENDMDL
MODEL 8
REMARK VINA RESULT:      -2.5     12.246     12.490
REMARK  1 active torsions:
REMARK  status: ('A' for Active; 'I' for Inactive)
REMARK    1  A    between atoms: P_2  and  O_3 
ROOT
HETATM    1  C   UNK N   1      21.995  12.277  10.926  0.00  0.00     0.105 C 
HETATM    2  P   UNK N   1      23.803  12.181  10.509  0.00  0.00     0.085 P 
HETATM    3  O   UNK N   1      24.274  11.790   9.083  0.00  0.00    -0.676 OA
HETATM    4  H   UNK N   1      23.491  12.538  11.805  0.00  0.00     0.120 HD
ENDROOT
BRANCH   2   5
HETATM    5  O   UNK N   1      25.143  12.490  11.566  0.00  0.00    -0.352 OA
HETATM    6  H   UNK N   1      25.577  13.357  11.558  0.00  0.00     0.217 HD
ENDBRANCH   2   5
TORSDOF 1
ENDMDL
MODEL 9
REMARK VINA RESULT:      -2.4     32.771     32.828
REMARK  1 active torsions:
REMARK  status: ('A' for Active; 'I' for Inactive)
REMARK    1  A    between atoms: P_2  and  O_3 
ROOT
HETATM    1  C   UNK N   1      53.541  22.216  12.258  0.00  0.00     0.105 C 
HETATM    2  P   UNK N   1      51.843  22.969  12.258  0.00  0.00     0.085 P 
HETATM    3  O   UNK N   1      50.678  22.311  13.044  0.00  0.00    -0.676 OA
HETATM    4  H   UNK N   1      52.808  23.632  11.527  0.00  0.00     0.120 HD
ENDROOT
BRANCH   2   5
HETATM    5  O   UNK N   1      51.333  24.412  11.443  0.00  0.00    -0.352 OA
HETATM    6  H   UNK N   1      50.394  24.551  11.245  0.00  0.00     0.217 HD
ENDBRANCH   2   5
TORSDOF 1
ENDMDL
