REMARK  7 active torsions:
REMARK  status: ('A' for Active; 'I' for Inactive)
REMARK    1  A    between atoms: C_8  and  C_5 
REMARK    2  A    between atoms: O_14  and  C_5 
REMARK    3  A    between atoms: N_13  and  C_6 
REMARK    4  A    between atoms: O_20  and  C_7 
REMARK    5  A    between atoms: C_9  and  O_15 
REMARK    6  A    between atoms: C_10  and  O_16 
REMARK    7  A    between atoms: C_12  and  O_20 
ROOT
HETATM    1  C   UNK N   1       0.594   7.391   0.178  0.00  0.00     0.179 C 
HETATM    2  C   UNK N   1      -0.828   6.911  -0.205  0.00  0.00     0.180 C 
HETATM    3  C   UNK N   1      -1.008   5.477   0.286  0.00  0.00     0.183 C 
HETATM    4  C   UNK N   1       0.110   4.608  -0.279  0.00  0.00     0.205 C 
HETATM    5  C   UNK N   1       1.487   5.216   0.100  0.00  0.00     0.298 C 
HETATM    6  O   UNK N   1      -0.003   4.518  -1.671  0.00  0.00    -0.388 OA
HETATM    7  O   UNK N   1       1.581   6.544  -0.399  0.00  0.00    -0.348 OA
HETATM    8  H   UNK N   1      -0.096   4.554  -2.636  0.00  0.00     0.210 HD
ENDROOT
BRANCH   3   9
HETATM    9  O   UNK N   1      -2.252   4.974  -0.105  0.00  0.00    -0.390 OA
HETATM   10  H   UNK N   1      -2.986   5.547  -0.376  0.00  0.00     0.210 HD
ENDBRANCH   3   9
BRANCH   5  11
HETATM   11  O   UNK N   1       2.574   4.489  -0.394  0.00  0.00    -0.318 OA
BRANCH  11  12
HETATM   12  C   UNK N   1       2.706   3.138  -0.321  0.00  0.00     0.072 A 
HETATM   13  C   UNK N   1       3.813   2.566   0.320  0.00  0.00     0.039 A 
HETATM   14  C   UNK N   1       3.903   1.171   0.448  0.00  0.00     0.039 A 
HETATM   15  C   UNK N   1       2.892   0.342  -0.077  0.00  0.00     0.103 A 
HETATM   16  C   UNK N   1       1.826   0.922  -0.767  0.00  0.00     0.039 A 
HETATM   17  C   UNK N   1       1.744   2.299  -0.894  0.00  0.00     0.039 A 
BRANCH  15  18
HETATM   18  N   UNK N   1       2.924  -1.068   0.112  0.00  0.00    -0.116 N 
HETATM   19  O   UNK N   1       3.819  -1.575   0.715  0.00  0.00    -0.532 OA
HETATM   20  O   UNK N   1       2.017  -1.745  -0.275  0.00  0.00    -0.532 OA
ENDBRANCH  15  18
ENDBRANCH  11  12
ENDBRANCH   5  11
BRANCH   2  21
HETATM   21  O   UNK N   1      -1.807   7.720   0.377  0.00  0.00    -0.390 OA
HETATM   22  H   UNK N   1      -1.660   8.590   0.782  0.00  0.00     0.210 HD
ENDBRANCH   2  21
BRANCH   1  23
HETATM   23  C   UNK N   1       0.845   8.804  -0.343  0.00  0.00     0.198 C 
BRANCH  23  24
HETATM   24  O   UNK N   1       0.015   9.732   0.290  0.00  0.00    -0.398 OA
HETATM   25  H   UNK N   1       0.285  10.553   0.730  0.00  0.00     0.209 HD
ENDBRANCH  23  24
ENDBRANCH   1  23
TORSDOF 7
