REMARK  9 active torsions:
REMARK  status: ('A' for Active; 'I' for Inactive)
REMARK    1  A    between atoms: C_2  and  C_1 
REMARK    2  A    between atoms: O_14  and  C_1 
REMARK    3  A    between atoms: C_3  and  O_7 
REMARK    4  A    between atoms: C_4  and  O_8 
REMARK    5  A    between atoms: C_5  and  O_9 
REMARK    6  A    between atoms: C_6  and  O_10 
REMARK    7  A    between atoms: P_16  and  O_11 
REMARK    8  A    between atoms: P_16  and  O_12 
REMARK    9  A    between atoms: P_16  and  O_14 
ROOT
HETATM    1  C   UNK N   1       1.657   0.788  -0.693  0.00  0.00     0.180 C 
HETATM    2  C   UNK N   1       0.548   1.707  -0.130  0.00  0.00     0.180 C 
HETATM    3  C   UNK N   1      -0.397   0.898   0.775  0.00  0.00     0.183 C 
HETATM    4  C   UNK N   1      -0.908  -0.342   0.024  0.00  0.00     0.204 C 
HETATM    5  C   UNK N   1       0.309  -1.137  -0.474  0.00  0.00     0.288 C 
HETATM    6  O   UNK N   1       1.108  -0.352  -1.349  0.00  0.00    -0.349 OA
ENDROOT
BRANCH   1   7
HETATM    7  C   UNK N   1       2.719   0.370   0.339  0.00  0.00     0.215 C 
BRANCH   7   8
HETATM    8  O   UNK N   1       3.508   1.461   0.740  0.00  0.00    -0.294 OA
BRANCH   8   9
HETATM    9  P   UNK N   1       4.861   1.480  -0.364  0.00  0.00     0.390 P 
HETATM   10  O   UNK N   1       4.446   2.976  -0.321  0.00  0.00    -0.632 OA
BRANCH   9  11
HETATM   11  O   UNK N   1       6.350   2.278   0.034  0.00  0.00    -0.307 OA
HETATM   12  H   UNK N   1       7.152   1.780   0.256  0.00  0.00     0.222 HD
ENDBRANCH   9  11
BRANCH   9  13
HETATM   13  O   UNK N   1       5.426   0.995   1.206  0.00  0.00    -0.307 OA
HETATM   14  H   UNK N   1       5.349   0.586   2.082  0.00  0.00     0.222 HD
ENDBRANCH   9  13
ENDBRANCH   8   9
ENDBRANCH   7   8
ENDBRANCH   1   7
BRANCH   2  15
HETATM   15  O   UNK N   1      -0.172   2.253  -1.198  0.00  0.00    -0.390 OA
HETATM   16  H   UNK N   1      -0.094   2.874  -1.938  0.00  0.00     0.210 HD
ENDBRANCH   2  15
BRANCH   3  17
HETATM   17  O   UNK N   1      -1.469   1.689   1.198  0.00  0.00    -0.390 OA
HETATM   18  H   UNK N   1      -1.366   2.607   1.492  0.00  0.00     0.210 HD
ENDBRANCH   3  17
BRANCH   5  19
HETATM   19  O   UNK N   1      -0.132  -2.268  -1.165  0.00  0.00    -0.369 OA
HETATM   20  H   UNK N   1      -0.965  -2.396  -1.645  0.00  0.00     0.212 HD
ENDBRANCH   5  19
BRANCH   4  21
HETATM   21  O   UNK N   1      -1.708   0.029  -1.063  0.00  0.00    -0.388 OA
HETATM   22  H   UNK N   1      -1.762   0.638  -1.816  0.00  0.00     0.210 HD
ENDBRANCH   4  21
TORSDOF 9
