MODEL 1
REMARK VINA RESULT:      -7.7      0.000      0.000
REMARK  2 active torsions:
REMARK  status: ('A' for Active; 'I' for Inactive)
REMARK    1  A    between atoms: O_1  and  S_2 
REMARK    2  A    between atoms: S_2  and  C_5 
ROOT
HETATM    1  C   UNK N   1      43.223  21.466   3.056  0.00  0.00     0.073 A 
HETATM    2  C   UNK N   1      43.424  20.065   3.064  0.00  0.00     0.027 A 
HETATM    3  C   UNK N   1      42.705  19.240   2.169  0.00  0.00     0.032 A 
HETATM    4  C   UNK N   1      41.812  19.857   1.288  0.00  0.00     0.046 A 
HETATM    5  N   UNK N   1      41.066  19.249   0.252  0.00  0.00    -0.322 N 
HETATM    6  C   UNK N   1      40.410  20.241  -0.394  0.00  0.00     0.259 A 
HETATM    7  O   UNK N   1      39.691  20.047  -1.363  0.00  0.00    -0.267 OA
HETATM    8  C   UNK N   1      40.688  21.549   0.228  0.00  0.00     0.075 A 
HETATM    9  C   UNK N   1      41.612  21.217   1.306  0.00  0.00     0.010 A 
HETATM   10  C   UNK N   1      42.309  22.033   2.173  0.00  0.00     0.040 A 
HETATM   11  C   UNK N   1      40.235  22.771  -0.134  0.00  0.00     0.101 A 
HETATM   12  N   UNK N   1      39.415  23.004  -1.269  0.00  0.00    -0.351 N 
HETATM   13  C   UNK N   1      39.229  24.406  -1.350  0.00  0.00     0.047 A 
HETATM   14  C   UNK N   1      38.529  25.103  -2.330  0.00  0.00     0.030 A 
HETATM   15  C   UNK N   1      38.474  26.507  -2.231  0.00  0.00     0.002 A 
HETATM   16  C   UNK N   1      39.109  27.178  -1.162  0.00  0.00     0.001 A 
HETATM   17  C   UNK N   1      39.811  26.452  -0.187  0.00  0.00     0.018 A 
HETATM   18  C   UNK N   1      39.854  25.067  -0.314  0.00  0.00     0.043 A 
HETATM   19  C   UNK N   1      40.506  24.077   0.507  0.00  0.00     0.212 A 
HETATM   20  O   UNK N   1      41.125  24.310   1.531  0.00  0.00    -0.285 OA
HETATM   21  H   UNK N   1      41.032  18.288   0.040  0.00  0.00     0.169 HD
HETATM   22  H   UNK N   1      39.047  22.324  -1.880  0.00  0.00     0.166 HD
ENDROOT
BRANCH   1  23
HETATM   23  S   UNK N   1      44.216  22.582   4.031  0.00  0.00     0.129 S 
HETATM   24  O   UNK N   1      43.690  22.562   5.476  0.00  0.00    -0.598 OA
HETATM   25  O   UNK N   1      43.997  24.060   3.676  0.00  0.00    -0.598 OA
BRANCH  23  26
HETATM   26  O   UNK N   1      45.908  22.353   4.200  0.00  0.00    -0.292 OA
HETATM   27  H   UNK N   1      46.619  21.714   4.032  0.00  0.00     0.232 HD
ENDBRANCH  23  26
ENDBRANCH   1  23
TORSDOF 2
ENDMDL
MODEL 2
REMARK VINA RESULT:      -7.7     13.831     15.556
REMARK  2 active torsions:
REMARK  status: ('A' for Active; 'I' for Inactive)
REMARK    1  A    between atoms: O_1  and  S_2 
REMARK    2  A    between atoms: S_2  and  C_5 
ROOT
HETATM    1  C   UNK N   1      29.917  20.922  -6.371  0.00  0.00     0.073 A 
HETATM    2  C   UNK N   1      29.826  19.981  -7.424  0.00  0.00     0.027 A 
HETATM    3  C   UNK N   1      28.746  20.039  -8.334  0.00  0.00     0.032 A 
HETATM    4  C   UNK N   1      27.797  21.051  -8.158  0.00  0.00     0.046 A 
HETATM    5  N   UNK N   1      26.699  21.356  -8.994  0.00  0.00    -0.322 N 
HETATM    6  C   UNK N   1      26.112  22.462  -8.482  0.00  0.00     0.259 A 
HETATM    7  O   UNK N   1      25.141  23.002  -8.992  0.00  0.00    -0.267 OA
HETATM    8  C   UNK N   1      26.802  22.907  -7.257  0.00  0.00     0.075 A 
HETATM    9  C   UNK N   1      27.889  21.944  -7.118  0.00  0.00     0.010 A 
HETATM   10  C   UNK N   1      28.939  21.900  -6.224  0.00  0.00     0.040 A 
HETATM   11  C   UNK N   1      26.528  23.972  -6.470  0.00  0.00     0.101 A 
HETATM   12  N   UNK N   1      25.504  24.916  -6.749  0.00  0.00    -0.351 N 
HETATM   13  C   UNK N   1      25.592  25.912  -5.746  0.00  0.00     0.047 A 
HETATM   14  C   UNK N   1      24.815  27.062  -5.638  0.00  0.00     0.030 A 
HETATM   15  C   UNK N   1      25.074  27.935  -4.563  0.00  0.00     0.002 A 
HETATM   16  C   UNK N   1      26.089  27.641  -3.625  0.00  0.00     0.001 A 
HETATM   17  C   UNK N   1      26.860  26.475  -3.758  0.00  0.00     0.018 A 
HETATM   18  C   UNK N   1      26.586  25.635  -4.833  0.00  0.00     0.043 A 
HETATM   19  C   UNK N   1      27.215  24.401  -5.232  0.00  0.00     0.212 A 
HETATM   20  O   UNK N   1      28.115  23.842  -4.627  0.00  0.00    -0.285 OA
HETATM   21  H   UNK N   1      26.417  20.860  -9.796  0.00  0.00     0.169 HD
HETATM   22  H   UNK N   1      24.859  24.883  -7.493  0.00  0.00     0.166 HD
ENDROOT
BRANCH   1  23
HETATM   23  S   UNK N   1      31.336  21.019  -5.292  0.00  0.00     0.129 S 
HETATM   24  O   UNK N   1      31.277  22.354  -4.533  0.00  0.00    -0.598 OA
HETATM   25  O   UNK N   1      32.663  21.187  -6.046  0.00  0.00    -0.598 OA
BRANCH  23  26
HETATM   26  O   UNK N   1      31.602  19.850  -4.064  0.00  0.00    -0.292 OA
HETATM   27  H   UNK N   1      31.417  19.657  -3.132  0.00  0.00     0.232 HD
ENDBRANCH  23  26
ENDBRANCH   1  23
TORSDOF 2
ENDMDL
MODEL 3
REMARK VINA RESULT:      -7.5     18.484     20.268
REMARK  2 active torsions:
REMARK  status: ('A' for Active; 'I' for Inactive)
REMARK    1  A    between atoms: O_1  and  S_2 
REMARK    2  A    between atoms: S_2  and  C_5 
ROOT
HETATM    1  C   UNK N   1      22.927  20.006   3.130  0.00  0.00     0.073 A 
HETATM    2  C   UNK N   1      24.060  20.676   2.611  0.00  0.00     0.027 A 
HETATM    3  C   UNK N   1      25.360  20.229   2.941  0.00  0.00     0.032 A 
HETATM    4  C   UNK N   1      25.475  19.113   3.776  0.00  0.00     0.046 A 
HETATM    5  N   UNK N   1      26.659  18.440   4.155  0.00  0.00    -0.322 N 
HETATM    6  C   UNK N   1      26.282  17.372   4.895  0.00  0.00     0.259 A 
HETATM    7  O   UNK N   1      27.076  16.565   5.358  0.00  0.00    -0.267 OA
HETATM    8  C   UNK N   1      24.816  17.327   5.050  0.00  0.00     0.075 A 
HETATM    9  C   UNK N   1      24.365  18.486   4.288  0.00  0.00     0.010 A 
HETATM   10  C   UNK N   1      23.090  18.911   3.972  0.00  0.00     0.040 A 
HETATM   11  C   UNK N   1      24.062  16.413   5.701  0.00  0.00     0.101 A 
HETATM   12  N   UNK N   1      24.592  15.256   6.331  0.00  0.00    -0.351 N 
HETATM   13  C   UNK N   1      23.484  14.522   6.821  0.00  0.00     0.047 A 
HETATM   14  C   UNK N   1      23.517  13.292   7.472  0.00  0.00     0.030 A 
HETATM   15  C   UNK N   1      22.291  12.724   7.872  0.00  0.00     0.002 A 
HETATM   16  C   UNK N   1      21.072  13.391   7.619  0.00  0.00     0.001 A 
HETATM   17  C   UNK N   1      21.066  14.629   6.958  0.00  0.00     0.018 A 
HETATM   18  C   UNK N   1      22.291  15.164   6.570  0.00  0.00     0.043 A 
HETATM   19  C   UNK N   1      22.591  16.387   5.866  0.00  0.00     0.212 A 
HETATM   20  O   UNK N   1      21.770  17.218   5.518  0.00  0.00    -0.285 OA
HETATM   21  H   UNK N   1      27.580  18.698   3.924  0.00  0.00     0.169 HD
HETATM   22  H   UNK N   1      25.543  15.013   6.411  0.00  0.00     0.166 HD
ENDROOT
BRANCH   1  23
HETATM   23  S   UNK N   1      21.263  20.403   2.622  0.00  0.00     0.129 S 
HETATM   24  O   UNK N   1      20.402  20.586   3.883  0.00  0.00    -0.598 OA
HETATM   25  O   UNK N   1      20.533  19.228   1.956  0.00  0.00    -0.598 OA
BRANCH  23  26
HETATM   26  O   UNK N   1      20.928  21.799   1.682  0.00  0.00    -0.292 OA
HETATM   27  H   UNK N   1      21.321  22.628   1.367  0.00  0.00     0.232 HD
ENDBRANCH  23  26
ENDBRANCH   1  23
TORSDOF 2
ENDMDL
MODEL 4
REMARK VINA RESULT:      -7.4     14.889     17.630
REMARK  2 active torsions:
REMARK  status: ('A' for Active; 'I' for Inactive)
REMARK    1  A    between atoms: O_1  and  S_2 
REMARK    2  A    between atoms: S_2  and  C_5 
ROOT
HETATM    1  C   UNK N   1      36.270  14.067  10.287  0.00  0.00     0.073 A 
HETATM    2  C   UNK N   1      36.808  13.398   9.163  0.00  0.00     0.027 A 
HETATM    3  C   UNK N   1      37.434  12.140   9.319  0.00  0.00     0.032 A 
HETATM    4  C   UNK N   1      37.488  11.593  10.604  0.00  0.00     0.046 A 
HETATM    5  N   UNK N   1      37.974  10.319  10.977  0.00  0.00    -0.322 N 
HETATM    6  C   UNK N   1      37.748  10.187  12.306  0.00  0.00     0.259 A 
HETATM    7  O   UNK N   1      38.033   9.179  12.936  0.00  0.00    -0.267 OA
HETATM    8  C   UNK N   1      37.123  11.404  12.858  0.00  0.00     0.075 A 
HETATM    9  C   UNK N   1      36.979  12.265  11.690  0.00  0.00     0.010 A 
HETATM   10  C   UNK N   1      36.364  13.492  11.551  0.00  0.00     0.040 A 
HETATM   11  C   UNK N   1      36.734  11.652  14.129  0.00  0.00     0.101 A 
HETATM   12  N   UNK N   1      36.824  10.704  15.181  0.00  0.00    -0.351 N 
HETATM   13  C   UNK N   1      36.245  11.313  16.322  0.00  0.00     0.047 A 
HETATM   14  C   UNK N   1      36.072  10.741  17.579  0.00  0.00     0.030 A 
HETATM   15  C   UNK N   1      35.459  11.520  18.580  0.00  0.00     0.002 A 
HETATM   16  C   UNK N   1      35.041  12.842  18.308  0.00  0.00     0.001 A 
HETATM   17  C   UNK N   1      35.226  13.395  17.031  0.00  0.00     0.018 A 
HETATM   18  C   UNK N   1      35.828  12.600  16.060  0.00  0.00     0.043 A 
HETATM   19  C   UNK N   1      36.123  12.883  14.678  0.00  0.00     0.212 A 
HETATM   20  O   UNK N   1      35.918  13.947  14.118  0.00  0.00    -0.285 OA
HETATM   21  H   UNK N   1      38.394   9.654  10.385  0.00  0.00     0.169 HD
HETATM   22  H   UNK N   1      37.213   9.800  15.129  0.00  0.00     0.166 HD
ENDROOT
BRANCH   1  23
HETATM   23  S   UNK N   1      35.317  15.569  10.144  0.00  0.00     0.129 S 
HETATM   24  O   UNK N   1      35.124  15.879   8.650  0.00  0.00    -0.598 OA
HETATM   25  O   UNK N   1      36.084  16.822  10.590  0.00  0.00    -0.598 OA
BRANCH  23  26
HETATM   26  O   UNK N   1      33.737  15.688  10.803  0.00  0.00    -0.292 OA
HETATM   27  H   UNK N   1      33.218  16.148  11.481  0.00  0.00     0.232 HD
ENDBRANCH  23  26
ENDBRANCH   1  23
TORSDOF 2
ENDMDL
MODEL 5
REMARK VINA RESULT:      -7.3     13.138     13.718
REMARK  2 active torsions:
REMARK  status: ('A' for Active; 'I' for Inactive)
REMARK    1  A    between atoms: O_1  and  S_2 
REMARK    2  A    between atoms: S_2  and  C_5 
ROOT
HETATM    1  C   UNK N   1      32.265  14.834   7.426  0.00  0.00     0.073 A 
HETATM    2  C   UNK N   1      32.930  13.869   6.632  0.00  0.00     0.027 A 
HETATM    3  C   UNK N   1      32.616  13.744   5.259  0.00  0.00     0.032 A 
HETATM    4  C   UNK N   1      31.648  14.603   4.730  0.00  0.00     0.046 A 
HETATM    5  N   UNK N   1      31.248  14.721   3.379  0.00  0.00    -0.322 N 
HETATM    6  C   UNK N   1      30.353  15.735   3.322  0.00  0.00     0.259 A 
HETATM    7  O   UNK N   1      29.832  16.110   2.282  0.00  0.00    -0.267 OA
HETATM    8  C   UNK N   1      30.113  16.303   4.662  0.00  0.00     0.075 A 
HETATM    9  C   UNK N   1      30.997  15.520   5.519  0.00  0.00     0.010 A 
HETATM   10  C   UNK N   1      31.295  15.654   6.860  0.00  0.00     0.040 A 
HETATM   11  C   UNK N   1      29.306  17.329   5.013  0.00  0.00     0.101 A 
HETATM   12  N   UNK N   1      28.559  18.100   4.084  0.00  0.00    -0.351 N 
HETATM   13  C   UNK N   1      27.916  19.117   4.831  0.00  0.00     0.047 A 
HETATM   14  C   UNK N   1      27.110  20.137   4.334  0.00  0.00     0.030 A 
HETATM   15  C   UNK N   1      26.572  21.060   5.253  0.00  0.00     0.002 A 
HETATM   16  C   UNK N   1      26.844  20.943   6.634  0.00  0.00     0.001 A 
HETATM   17  C   UNK N   1      27.662  19.906   7.109  0.00  0.00     0.018 A 
HETATM   18  C   UNK N   1      28.184  19.013   6.178  0.00  0.00     0.043 A 
HETATM   19  C   UNK N   1      29.059  17.881   6.364  0.00  0.00     0.212 A 
HETATM   20  O   UNK N   1      29.468  17.478   7.439  0.00  0.00    -0.285 OA
HETATM   21  H   UNK N   1      31.561  14.172   2.624  0.00  0.00     0.169 HD
HETATM   22  H   UNK N   1      28.500  17.955   3.112  0.00  0.00     0.166 HD
ENDROOT
BRANCH   1  23
HETATM   23  S   UNK N   1      32.729  15.167   9.117  0.00  0.00     0.129 S 
HETATM   24  O   UNK N   1      33.401  16.548   9.172  0.00  0.00    -0.598 OA
HETATM   25  O   UNK N   1      33.878  14.280   9.619  0.00  0.00    -0.598 OA
BRANCH  23  26
HETATM   26  O   UNK N   1      31.556  15.222  10.368  0.00  0.00    -0.292 OA
HETATM   27  H   UNK N   1      31.002  15.834  10.878  0.00  0.00     0.232 HD
ENDBRANCH  23  26
ENDBRANCH   1  23
TORSDOF 2
ENDMDL
MODEL 6
REMARK VINA RESULT:      -7.2     12.054     14.632
REMARK  2 active torsions:
REMARK  status: ('A' for Active; 'I' for Inactive)
REMARK    1  A    between atoms: O_1  and  S_2 
REMARK    2  A    between atoms: S_2  and  C_5 
ROOT
HETATM    1  C   UNK N   1      30.300  20.482  -6.739  0.00  0.00     0.073 A 
HETATM    2  C   UNK N   1      31.267  19.732  -6.028  0.00  0.00     0.027 A 
HETATM    3  C   UNK N   1      31.660  20.131  -4.730  0.00  0.00     0.032 A 
HETATM    4  C   UNK N   1      31.057  21.270  -4.187  0.00  0.00     0.046 A 
HETATM    5  N   UNK N   1      31.222  21.792  -2.884  0.00  0.00    -0.322 N 
HETATM    6  C   UNK N   1      30.380  22.847  -2.775  0.00  0.00     0.259 A 
HETATM    7  O   UNK N   1      30.263  23.506  -1.752  0.00  0.00    -0.267 OA
HETATM    8  C   UNK N   1      29.646  23.068  -4.035  0.00  0.00     0.075 A 
HETATM    9  C   UNK N   1      30.134  21.999  -4.898  0.00  0.00     0.010 A 
HETATM   10  C   UNK N   1      29.741  21.619  -6.165  0.00  0.00     0.040 A 
HETATM   11  C   UNK N   1      28.713  24.005  -4.316  0.00  0.00     0.101 A 
HETATM   12  N   UNK N   1      28.227  24.945  -3.368  0.00  0.00    -0.351 N 
HETATM   13  C   UNK N   1      27.212  25.687  -4.022  0.00  0.00     0.047 A 
HETATM   14  C   UNK N   1      26.422  26.691  -3.470  0.00  0.00     0.030 A 
HETATM   15  C   UNK N   1      25.456  27.300  -4.295  0.00  0.00     0.002 A 
HETATM   16  C   UNK N   1      25.305  26.900  -5.642  0.00  0.00     0.001 A 
HETATM   17  C   UNK N   1      26.114  25.883  -6.174  0.00  0.00     0.018 A 
HETATM   18  C   UNK N   1      27.055  25.296  -5.334  0.00  0.00     0.043 A 
HETATM   19  C   UNK N   1      27.994  24.231  -5.589  0.00  0.00     0.212 A 
HETATM   20  O   UNK N   1      28.150  23.674  -6.663  0.00  0.00    -0.285 OA
HETATM   21  H   UNK N   1      31.831  21.454  -2.189  0.00  0.00     0.169 HD
HETATM   22  H   UNK N   1      28.534  25.058  -2.440  0.00  0.00     0.166 HD
ENDROOT
BRANCH   1  23
HETATM   23  S   UNK N   1      29.630  19.945  -8.304  0.00  0.00     0.129 S 
HETATM   24  O   UNK N   1      28.124  20.249  -8.316  0.00  0.00    -0.598 OA
HETATM   25  O   UNK N   1      29.607  18.418  -8.463  0.00  0.00    -0.598 OA
BRANCH  23  26
HETATM   26  O   UNK N   1      30.200  20.595  -9.786  0.00  0.00    -0.292 OA
HETATM   27  H   UNK N   1      29.932  20.778 -10.701  0.00  0.00     0.232 HD
ENDBRANCH  23  26
ENDBRANCH   1  23
TORSDOF 2
ENDMDL
MODEL 7
REMARK VINA RESULT:      -7.1     11.839     12.643
REMARK  2 active torsions:
REMARK  status: ('A' for Active; 'I' for Inactive)
REMARK    1  A    between atoms: O_1  and  S_2 
REMARK    2  A    between atoms: S_2  and  C_5 
ROOT
HETATM    1  C   UNK N   1      34.760  15.259   8.418  0.00  0.00     0.073 A 
HETATM    2  C   UNK N   1      35.812  14.639   7.702  0.00  0.00     0.027 A 
HETATM    3  C   UNK N   1      35.724  14.492   6.299  0.00  0.00     0.032 A 
HETATM    4  C   UNK N   1      34.581  14.984   5.661  0.00  0.00     0.046 A 
HETATM    5  N   UNK N   1      34.324  15.033   4.272  0.00  0.00    -0.322 N 
HETATM    6  C   UNK N   1      33.139  15.668   4.115  0.00  0.00     0.259 A 
HETATM    7  O   UNK N   1      32.642  15.895   3.021  0.00  0.00    -0.267 OA
HETATM    8  C   UNK N   1      32.560  16.036   5.420  0.00  0.00     0.075 A 
HETATM    9  C   UNK N   1      33.559  15.566   6.373  0.00  0.00     0.010 A 
HETATM   10  C   UNK N   1      33.634  15.717   7.743  0.00  0.00     0.040 A 
HETATM   11  C   UNK N   1      31.405  16.689   5.679  0.00  0.00     0.101 A 
HETATM   12  N   UNK N   1      30.544  17.200   4.672  0.00  0.00    -0.351 N 
HETATM   13  C   UNK N   1      29.498  17.880   5.344  0.00  0.00     0.047 A 
HETATM   14  C   UNK N   1      28.444  18.578   4.762  0.00  0.00     0.030 A 
HETATM   15  C   UNK N   1      27.510  19.197   5.616  0.00  0.00     0.002 A 
HETATM   16  C   UNK N   1      27.645  19.102   7.019  0.00  0.00     0.001 A 
HETATM   17  C   UNK N   1      28.719  18.393   7.581  0.00  0.00     0.018 A 
HETATM   18  C   UNK N   1      29.629  17.798   6.713  0.00  0.00     0.043 A 
HETATM   19  C   UNK N   1      30.823  17.038   6.994  0.00  0.00     0.212 A 
HETATM   20  O   UNK N   1      31.222  16.743   8.108  0.00  0.00    -0.285 OA
HETATM   21  H   UNK N   1      34.897  14.675   3.556  0.00  0.00     0.169 HD
HETATM   22  H   UNK N   1      30.653  17.101   3.698  0.00  0.00     0.166 HD
ENDROOT
BRANCH   1  23
HETATM   23  S   UNK N   1      34.877  15.635  10.159  0.00  0.00     0.129 S 
HETATM   24  O   UNK N   1      34.830  17.162  10.329  0.00  0.00    -0.598 OA
HETATM   25  O   UNK N   1      36.259  15.331  10.756  0.00  0.00    -0.598 OA
BRANCH  23  26
HETATM   26  O   UNK N   1      33.710  15.054  11.275  0.00  0.00    -0.292 OA
HETATM   27  H   UNK N   1      33.414  14.251  11.732  0.00  0.00     0.232 HD
ENDBRANCH  23  26
ENDBRANCH   1  23
TORSDOF 2
ENDMDL
MODEL 8
REMARK VINA RESULT:      -7.1     12.134     14.112
REMARK  2 active torsions:
REMARK  status: ('A' for Active; 'I' for Inactive)
REMARK    1  A    between atoms: O_1  and  S_2 
REMARK    2  A    between atoms: S_2  and  C_5 
ROOT
HETATM    1  C   UNK N   1      29.938  17.429   7.944  0.00  0.00     0.073 A 
HETATM    2  C   UNK N   1      29.127  17.721   6.821  0.00  0.00     0.027 A 
HETATM    3  C   UNK N   1      29.609  17.472   5.515  0.00  0.00     0.032 A 
HETATM    4  C   UNK N   1      30.889  16.927   5.385  0.00  0.00     0.046 A 
HETATM    5  N   UNK N   1      31.530  16.510   4.196  0.00  0.00    -0.322 N 
HETATM    6  C   UNK N   1      32.716  15.968   4.559  0.00  0.00     0.259 A 
HETATM    7  O   UNK N   1      33.505  15.487   3.758  0.00  0.00    -0.267 OA
HETATM    8  C   UNK N   1      32.905  16.040   6.020  0.00  0.00     0.075 A 
HETATM    9  C   UNK N   1      31.672  16.667   6.484  0.00  0.00     0.010 A 
HETATM   10  C   UNK N   1      31.213  16.904   7.764  0.00  0.00     0.040 A 
HETATM   11  C   UNK N   1      33.944  15.596   6.762  0.00  0.00     0.101 A 
HETATM   12  N   UNK N   1      35.059  14.902   6.222  0.00  0.00    -0.351 N 
HETATM   13  C   UNK N   1      35.877  14.539   7.321  0.00  0.00     0.047 A 
HETATM   14  C   UNK N   1      37.058  13.805   7.279  0.00  0.00     0.030 A 
HETATM   15  C   UNK N   1      37.716  13.542   8.497  0.00  0.00     0.002 A 
HETATM   16  C   UNK N   1      37.188  14.018   9.717  0.00  0.00     0.001 A 
HETATM   17  C   UNK N   1      35.993  14.755   9.733  0.00  0.00     0.018 A 
HETATM   18  C   UNK N   1      35.362  14.994   8.516  0.00  0.00     0.043 A 
HETATM   19  C   UNK N   1      34.132  15.689   8.227  0.00  0.00     0.212 A 
HETATM   20  O   UNK N   1      33.430  16.250   9.052  0.00  0.00    -0.285 OA
HETATM   21  H   UNK N   1      31.181  16.596   3.280  0.00  0.00     0.169 HD
HETATM   22  H   UNK N   1      35.230  14.711   5.272  0.00  0.00     0.166 HD
ENDROOT
BRANCH   1  23
HETATM   23  S   UNK N   1      29.335  17.553   9.619  0.00  0.00     0.129 S 
HETATM   24  O   UNK N   1      27.798  17.544   9.583  0.00  0.00    -0.598 OA
HETATM   25  O   UNK N   1      29.589  18.926  10.257  0.00  0.00    -0.598 OA
BRANCH  23  26
HETATM   26  O   UNK N   1      29.733  16.372  10.798  0.00  0.00    -0.292 OA
HETATM   27  H   UNK N   1      29.680  16.183  11.749  0.00  0.00     0.232 HD
ENDBRANCH  23  26
ENDBRANCH   1  23
TORSDOF 2
ENDMDL
MODEL 9
REMARK VINA RESULT:      -7.0     13.037     14.392
REMARK  2 active torsions:
REMARK  status: ('A' for Active; 'I' for Inactive)
REMARK    1  A    between atoms: O_1  and  S_2 
REMARK    2  A    between atoms: S_2  and  C_5 
ROOT
HETATM    1  C   UNK N   1      32.133  17.905   7.828  0.00  0.00     0.073 A 
HETATM    2  C   UNK N   1      31.462  18.611   8.855  0.00  0.00     0.027 A 
HETATM    3  C   UNK N   1      30.053  18.546   8.956  0.00  0.00     0.032 A 
HETATM    4  C   UNK N   1      29.368  17.761   8.024  0.00  0.00     0.046 A 
HETATM    5  N   UNK N   1      27.984  17.475   7.992  0.00  0.00    -0.322 N 
HETATM    6  C   UNK N   1      27.786  16.609   6.971  0.00  0.00     0.259 A 
HETATM    7  O   UNK N   1      26.691  16.143   6.691  0.00  0.00    -0.267 OA
HETATM    8  C   UNK N   1      29.052  16.319   6.272  0.00  0.00     0.075 A 
HETATM    9  C   UNK N   1      30.032  17.098   7.021  0.00  0.00     0.010 A 
HETATM   10  C   UNK N   1      31.406  17.152   6.912  0.00  0.00     0.040 A 
HETATM   11  C   UNK N   1      29.268  15.498   5.220  0.00  0.00     0.101 A 
HETATM   12  N   UNK N   1      28.259  14.699   4.621  0.00  0.00    -0.351 N 
HETATM   13  C   UNK N   1      28.897  13.929   3.618  0.00  0.00     0.047 A 
HETATM   14  C   UNK N   1      28.310  12.970   2.799  0.00  0.00     0.030 A 
HETATM   15  C   UNK N   1      29.131  12.306   1.866  0.00  0.00     0.002 A 
HETATM   16  C   UNK N   1      30.506  12.616   1.769  0.00  0.00     0.001 A 
HETATM   17  C   UNK N   1      31.075  13.587   2.608  0.00  0.00     0.018 A 
HETATM   18  C   UNK N   1      30.241  14.222   3.524  0.00  0.00     0.043 A 
HETATM   19  C   UNK N   1      30.540  15.227   4.514  0.00  0.00     0.212 A 
HETATM   20  O   UNK N   1      31.632  15.743   4.684  0.00  0.00    -0.285 OA
HETATM   21  H   UNK N   1      27.296  17.835   8.598  0.00  0.00     0.169 HD
HETATM   22  H   UNK N   1      27.303  14.683   4.858  0.00  0.00     0.166 HD
ENDROOT
BRANCH   1  23
HETATM   23  S   UNK N   1      33.912  17.801   7.743  0.00  0.00     0.129 S 
HETATM   24  O   UNK N   1      34.320  17.688   6.265  0.00  0.00    -0.598 OA
HETATM   25  O   UNK N   1      34.471  16.479   8.287  0.00  0.00    -0.598 OA
BRANCH  23  26
HETATM   26  O   UNK N   1      34.908  19.056   8.356  0.00  0.00    -0.292 OA
HETATM   27  H   UNK N   1      35.531  19.749   8.083  0.00  0.00     0.232 HD
ENDBRANCH  23  26
ENDBRANCH   1  23
TORSDOF 2
ENDMDL
