MODEL 1
REMARK VINA RESULT:      -4.4      0.000      0.000
REMARK  6 active torsions:
REMARK  status: ('A' for Active; 'I' for Inactive)
REMARK    1  A    between atoms: C_2  and  C_3 
REMARK    2  A    between atoms: C_2  and  C_5 
REMARK    3  A    between atoms: C_5  and  C_6 
REMARK    4  A    between atoms: C_6  and  N_7 
REMARK    5  A    between atoms: C_6  and  C_8 
REMARK    6  A    between atoms: C_8  and  O_9 
ROOT
HETATM    1  C   UNK N   1      33.067  17.799   8.637  0.00  0.00     0.173 C 
ENDROOT
BRANCH   1   2
HETATM    2  C   UNK N   1      31.927  17.403   7.699  0.00  0.00     0.042 C 
BRANCH   2   3
HETATM    3  C   UNK N   1      30.573  17.433   8.404  0.00  0.00     0.013 C 
HETATM    4  C   UNK N   1      29.444  17.234   7.406  0.00  0.00     0.012 C 
BRANCH   3   5
HETATM    5  C   UNK N   1      30.397  18.771   9.100  0.00  0.00     0.226 C 
HETATM    6  F   UNK N   1      29.684  18.610  10.276  0.00  0.00    -0.255 F 
ENDBRANCH   3   5
ENDBRANCH   2   3
ENDBRANCH   1   2
BRANCH   1   7
HETATM    7  N   UNK N   1      33.451  16.669   9.471  0.00  0.00    -0.418 N 
HETATM    8  H   UNK N   1      33.528  15.728   9.086  0.00  0.00     0.150 HD
HETATM    9  H   UNK N   1      33.648  16.822  10.460  0.00  0.00     0.150 HD
ENDBRANCH   1   7
BRANCH   1  10
HETATM   10  C   UNK N   1      34.254  18.301   7.862  0.00  0.00     0.163 C 
HETATM   11  O   UNK N   1      35.028  19.089   8.377  0.00  0.00    -0.648 OA
BRANCH  10  12
HETATM   12  O   UNK N   1      34.492  17.858   6.609  0.00  0.00    -0.775 OA
HETATM   13  H   UNK N   1      33.850  17.416   6.088  0.00  0.00     0.167 HD
ENDBRANCH  10  12
ENDBRANCH   1  10
TORSDOF 6
ENDMDL
MODEL 2
REMARK VINA RESULT:      -4.2     11.561     12.764
REMARK  6 active torsions:
REMARK  status: ('A' for Active; 'I' for Inactive)
REMARK    1  A    between atoms: C_2  and  C_3 
REMARK    2  A    between atoms: C_2  and  C_5 
REMARK    3  A    between atoms: C_5  and  C_6 
REMARK    4  A    between atoms: C_6  and  N_7 
REMARK    5  A    between atoms: C_6  and  C_8 
REMARK    6  A    between atoms: C_8  and  O_9 
ROOT
HETATM    1  C   UNK N   1      20.451  19.223   2.339  0.00  0.00     0.173 C 
ENDROOT
BRANCH   1   2
HETATM    2  C   UNK N   1      21.012  19.550   3.724  0.00  0.00     0.042 C 
BRANCH   2   3
HETATM    3  C   UNK N   1      21.881  18.419   4.267  0.00  0.00     0.013 C 
HETATM    4  C   UNK N   1      21.620  18.207   5.749  0.00  0.00     0.012 C 
BRANCH   3   5
HETATM    5  C   UNK N   1      23.345  18.764   4.060  0.00  0.00     0.226 C 
HETATM    6  F   UNK N   1      23.469  20.047   3.553  0.00  0.00    -0.255 F 
ENDBRANCH   3   5
ENDBRANCH   2   3
ENDBRANCH   1   2
BRANCH   1   7
HETATM    7  N   UNK N   1      19.005  19.066   2.405  0.00  0.00    -0.418 N 
HETATM    8  H   UNK N   1      18.500  18.518   1.709  0.00  0.00     0.150 HD
HETATM    9  H   UNK N   1      18.487  19.512   3.162  0.00  0.00     0.150 HD
ENDBRANCH   1   7
BRANCH   1  10
HETATM   10  C   UNK N   1      20.815  20.290   1.344  0.00  0.00     0.163 C 
HETATM   11  O   UNK N   1      21.282  21.347   1.728  0.00  0.00    -0.648 OA
BRANCH  10  12
HETATM   12  O   UNK N   1      20.661  20.072   0.020  0.00  0.00    -0.775 OA
HETATM   13  H   UNK N   1      19.826  20.021  -0.401  0.00  0.00     0.167 HD
ENDBRANCH  10  12
ENDBRANCH   1  10
TORSDOF 6
ENDMDL
MODEL 3
REMARK VINA RESULT:      -4.1     10.281     11.244
REMARK  6 active torsions:
REMARK  status: ('A' for Active; 'I' for Inactive)
REMARK    1  A    between atoms: C_2  and  C_3 
REMARK    2  A    between atoms: C_2  and  C_5 
REMARK    3  A    between atoms: C_5  and  C_6 
REMARK    4  A    between atoms: C_6  and  N_7 
REMARK    5  A    between atoms: C_6  and  C_8 
REMARK    6  A    between atoms: C_8  and  O_9 
ROOT
HETATM    1  C   UNK N   1      22.642  12.215  11.212  0.00  0.00     0.173 C 
ENDROOT
BRANCH   1   2
HETATM    2  C   UNK N   1      22.964  11.368   9.980  0.00  0.00     0.042 C 
BRANCH   2   3
HETATM    3  C   UNK N   1      22.755  12.146   8.683  0.00  0.00     0.013 C 
HETATM    4  C   UNK N   1      23.027  11.262   7.478  0.00  0.00     0.012 C 
BRANCH   3   5
HETATM    5  C   UNK N   1      23.694  13.338   8.654  0.00  0.00     0.226 C 
HETATM    6  F   UNK N   1      25.009  12.916   8.759  0.00  0.00    -0.255 F 
ENDBRANCH   3   5
ENDBRANCH   2   3
ENDBRANCH   1   2
BRANCH   1   7
HETATM    7  N   UNK N   1      21.391  11.776  11.813  0.00  0.00    -0.418 N 
HETATM    8  H   UNK N   1      20.495  12.150  11.504  0.00  0.00     0.150 HD
HETATM    9  H   UNK N   1      21.412  11.079  12.559  0.00  0.00     0.150 HD
ENDBRANCH   1   7
BRANCH   1  10
HETATM   10  C   UNK N   1      23.756  12.149  12.219  0.00  0.00     0.163 C 
HETATM   11  O   UNK N   1      23.500  12.011  13.403  0.00  0.00    -0.648 OA
BRANCH  10  12
HETATM   12  O   UNK N   1      25.045  12.205  11.820  0.00  0.00    -0.775 OA
HETATM   13  H   UNK N   1      25.310  12.147  10.923  0.00  0.00     0.167 HD
ENDBRANCH  10  12
ENDBRANCH   1  10
TORSDOF 6
ENDMDL
MODEL 4
REMARK VINA RESULT:      -4.0      8.597      9.198
REMARK  6 active torsions:
REMARK  status: ('A' for Active; 'I' for Inactive)
REMARK    1  A    between atoms: C_2  and  C_3 
REMARK    2  A    between atoms: C_2  and  C_5 
REMARK    3  A    between atoms: C_5  and  C_6 
REMARK    4  A    between atoms: C_6  and  N_7 
REMARK    5  A    between atoms: C_6  and  C_8 
REMARK    6  A    between atoms: C_8  and  O_9 
ROOT
HETATM    1  C   UNK N   1      36.282  13.951  14.790  0.00  0.00     0.173 C 
ENDROOT
BRANCH   1   2
HETATM    2  C   UNK N   1      36.649  12.576  15.350  0.00  0.00     0.042 C 
BRANCH   2   3
HETATM    3  C   UNK N   1      35.569  12.035  16.283  0.00  0.00     0.013 C 
HETATM    4  C   UNK N   1      34.677  11.043  15.554  0.00  0.00     0.012 C 
BRANCH   3   5
HETATM    5  C   UNK N   1      34.723  13.186  16.797  0.00  0.00     0.226 C 
HETATM    6  F   UNK N   1      35.195  13.618  18.025  0.00  0.00    -0.255 F 
ENDBRANCH   3   5
ENDBRANCH   2   3
ENDBRANCH   1   2
BRANCH   1   7
HETATM    7  N   UNK N   1      37.343  14.908  15.068  0.00  0.00    -0.418 N 
HETATM    8  H   UNK N   1      38.128  15.029  14.429  0.00  0.00     0.150 HD
HETATM    9  H   UNK N   1      37.299  15.471  15.918  0.00  0.00     0.150 HD
ENDBRANCH   1   7
BRANCH   1  10
HETATM   10  C   UNK N   1      36.020  13.879  13.311  0.00  0.00     0.163 C 
HETATM   11  O   UNK N   1      34.875  13.811  12.899  0.00  0.00    -0.648 OA
BRANCH  10  12
HETATM   12  O   UNK N   1      37.042  13.927  12.430  0.00  0.00    -0.775 OA
HETATM   13  H   UNK N   1      37.781  13.351  12.466  0.00  0.00     0.167 HD
ENDBRANCH  10  12
ENDBRANCH   1  10
TORSDOF 6
ENDMDL
MODEL 5
REMARK VINA RESULT:      -4.0     12.403     13.096
REMARK  6 active torsions:
REMARK  status: ('A' for Active; 'I' for Inactive)
REMARK    1  A    between atoms: C_2  and  C_3 
REMARK    2  A    between atoms: C_2  and  C_5 
REMARK    3  A    between atoms: C_5  and  C_6 
REMARK    4  A    between atoms: C_6  and  N_7 
REMARK    5  A    between atoms: C_6  and  C_8 
REMARK    6  A    between atoms: C_8  and  O_9 
ROOT
HETATM    1  C   UNK N   1      20.669  19.344   1.989  0.00  0.00     0.173 C 
ENDROOT
BRANCH   1   2
HETATM    2  C   UNK N   1      21.533  19.255   3.247  0.00  0.00     0.042 C 
BRANCH   2   3
HETATM    3  C   UNK N   1      21.217  18.008   4.068  0.00  0.00     0.013 C 
HETATM    4  C   UNK N   1      21.444  18.268   5.548  0.00  0.00     0.012 C 
BRANCH   3   5
HETATM    5  C   UNK N   1      22.111  16.867   3.616  0.00  0.00     0.226 C 
HETATM    6  F   UNK N   1      21.508  16.162   2.588  0.00  0.00    -0.255 F 
ENDBRANCH   3   5
ENDBRANCH   2   3
ENDBRANCH   1   2
BRANCH   1   7
HETATM    7  N   UNK N   1      19.260  19.221   2.333  0.00  0.00    -0.418 N 
HETATM    8  H   UNK N   1      18.908  18.409   2.840  0.00  0.00     0.150 HD
HETATM    9  H   UNK N   1      18.613  19.961   2.063  0.00  0.00     0.150 HD
ENDBRANCH   1   7
BRANCH   1  10
HETATM   10  C   UNK N   1      20.915  20.633   1.254  0.00  0.00     0.163 C 
HETATM   11  O   UNK N   1      21.056  20.626   0.044  0.00  0.00    -0.648 OA
BRANCH  10  12
HETATM   12  O   UNK N   1      20.944  21.806   1.922  0.00  0.00    -0.775 OA
HETATM   13  H   UNK N   1      20.780  22.635   1.515  0.00  0.00     0.167 HD
ENDBRANCH  10  12
ENDBRANCH   1  10
TORSDOF 6
ENDMDL
MODEL 6
REMARK VINA RESULT:      -4.0      8.776      9.422
REMARK  6 active torsions:
REMARK  status: ('A' for Active; 'I' for Inactive)
REMARK    1  A    between atoms: C_2  and  C_3 
REMARK    2  A    between atoms: C_2  and  C_5 
REMARK    3  A    between atoms: C_5  and  C_6 
REMARK    4  A    between atoms: C_6  and  N_7 
REMARK    5  A    between atoms: C_6  and  C_8 
REMARK    6  A    between atoms: C_8  and  O_9 
ROOT
HETATM    1  C   UNK N   1      36.098  13.611  14.924  0.00  0.00     0.173 C 
ENDROOT
BRANCH   1   2
HETATM    2  C   UNK N   1      36.210  12.143  15.337  0.00  0.00     0.042 C 
BRANCH   2   3
HETATM    3  C   UNK N   1      34.959  11.660  16.067  0.00  0.00     0.013 C 
HETATM    4  C   UNK N   1      35.294  11.252  17.492  0.00  0.00     0.012 C 
BRANCH   3   5
HETATM    5  C   UNK N   1      34.374  10.470  15.328  0.00  0.00     0.226 C 
HETATM    6  F   UNK N   1      33.139  10.797  14.793  0.00  0.00    -0.255 F 
ENDBRANCH   3   5
ENDBRANCH   2   3
ENDBRANCH   1   2
BRANCH   1   7
HETATM    7  N   UNK N   1      37.274  14.350  15.360  0.00  0.00    -0.418 N 
HETATM    8  H   UNK N   1      37.223  15.344  15.580  0.00  0.00     0.150 HD
HETATM    9  H   UNK N   1      38.166  13.863  15.450  0.00  0.00     0.150 HD
ENDBRANCH   1   7
BRANCH   1  10
HETATM   10  C   UNK N   1      35.924  13.741  13.436  0.00  0.00     0.163 C 
HETATM   11  O   UNK N   1      34.808  13.709  12.948  0.00  0.00    -0.648 OA
BRANCH  10  12
HETATM   12  O   UNK N   1      36.995  13.931  12.635  0.00  0.00    -0.775 OA
HETATM   13  H   UNK N   1      37.867  14.048  12.958  0.00  0.00     0.167 HD
ENDBRANCH  10  12
ENDBRANCH   1  10
TORSDOF 6
ENDMDL
MODEL 7
REMARK VINA RESULT:      -4.0     10.882     11.381
REMARK  6 active torsions:
REMARK  status: ('A' for Active; 'I' for Inactive)
REMARK    1  A    between atoms: C_2  and  C_3 
REMARK    2  A    between atoms: C_2  and  C_5 
REMARK    3  A    between atoms: C_5  and  C_6 
REMARK    4  A    between atoms: C_6  and  N_7 
REMARK    5  A    between atoms: C_6  and  C_8 
REMARK    6  A    between atoms: C_8  and  O_9 
ROOT
HETATM    1  C   UNK N   1      23.887  12.167  10.840  0.00  0.00     0.173 C 
ENDROOT
BRANCH   1   2
HETATM    2  C   UNK N   1      23.068  13.062   9.910  0.00  0.00     0.042 C 
BRANCH   2   3
HETATM    3  C   UNK N   1      22.977  12.486   8.500  0.00  0.00     0.013 C 
HETATM    4  C   UNK N   1      21.544  12.525   7.996  0.00  0.00     0.012 C 
BRANCH   3   5
HETATM    5  C   UNK N   1      23.467  11.050   8.509  0.00  0.00     0.226 C 
HETATM    6  F   UNK N   1      24.131  10.761   7.329  0.00  0.00    -0.255 F 
ENDBRANCH   3   5
ENDBRANCH   2   3
ENDBRANCH   1   2
BRANCH   1   7
HETATM    7  N   UNK N   1      25.199  12.750  11.077  0.00  0.00    -0.418 N 
HETATM    8  H   UNK N   1      25.910  12.770  10.347  0.00  0.00     0.150 HD
HETATM    9  H   UNK N   1      25.412  13.149  11.992  0.00  0.00     0.150 HD
ENDBRANCH   1   7
BRANCH   1  10
HETATM   10  C   UNK N   1      23.172  11.945  12.145  0.00  0.00     0.163 C 
HETATM   11  O   UNK N   1      23.781  12.043  13.197  0.00  0.00    -0.648 OA
BRANCH  10  12
HETATM   12  O   UNK N   1      21.850  11.674  12.164  0.00  0.00    -0.775 OA
HETATM   13  H   UNK N   1      21.208  12.204  11.733  0.00  0.00     0.167 HD
ENDBRANCH  10  12
ENDBRANCH   1  10
TORSDOF 6
ENDMDL
MODEL 8
REMARK VINA RESULT:      -3.9     13.247     13.473
REMARK  6 active torsions:
REMARK  status: ('A' for Active; 'I' for Inactive)
REMARK    1  A    between atoms: C_2  and  C_3 
REMARK    2  A    between atoms: C_2  and  C_5 
REMARK    3  A    between atoms: C_5  and  C_6 
REMARK    4  A    between atoms: C_6  and  N_7 
REMARK    5  A    between atoms: C_6  and  C_8 
REMARK    6  A    between atoms: C_8  and  O_9 
ROOT
HETATM    1  C   UNK N   1      20.568  20.073   2.548  0.00  0.00     0.173 C 
ENDROOT
BRANCH   1   2
HETATM    2  C   UNK N   1      19.608  18.885   2.588  0.00  0.00     0.042 C 
BRANCH   2   3
HETATM    3  C   UNK N   1      20.345  17.563   2.786  0.00  0.00     0.013 C 
HETATM    4  C   UNK N   1      20.202  16.680   1.557  0.00  0.00     0.012 C 
BRANCH   3   5
HETATM    5  C   UNK N   1      19.772  16.841   3.992  0.00  0.00     0.226 C 
HETATM    6  F   UNK N   1      20.380  17.289   5.153  0.00  0.00    -0.255 F 
ENDBRANCH   3   5
ENDBRANCH   2   3
ENDBRANCH   1   2
BRANCH   1   7
HETATM    7  N   UNK N   1      21.889  19.672   3.010  0.00  0.00    -0.418 N 
HETATM    8  H   UNK N   1      22.295  20.064   3.859  0.00  0.00     0.150 HD
HETATM    9  H   UNK N   1      22.419  18.983   2.474  0.00  0.00     0.150 HD
ENDBRANCH   1   7
BRANCH   1  10
HETATM   10  C   UNK N   1      20.655  20.651   1.162  0.00  0.00     0.163 C 
HETATM   11  O   UNK N   1      20.765  21.855   1.010  0.00  0.00    -0.648 OA
BRANCH  10  12
HETATM   12  O   UNK N   1      20.650  19.842   0.081  0.00  0.00    -0.775 OA
HETATM   13  H   UNK N   1      21.397  19.714  -0.471  0.00  0.00     0.167 HD
ENDBRANCH  10  12
ENDBRANCH   1  10
TORSDOF 6
ENDMDL
MODEL 9
REMARK VINA RESULT:      -3.9      3.295      4.433
REMARK  6 active torsions:
REMARK  status: ('A' for Active; 'I' for Inactive)
REMARK    1  A    between atoms: C_2  and  C_3 
REMARK    2  A    between atoms: C_2  and  C_5 
REMARK    3  A    between atoms: C_5  and  C_6 
REMARK    4  A    between atoms: C_6  and  N_7 
REMARK    5  A    between atoms: C_6  and  C_8 
REMARK    6  A    between atoms: C_8  and  O_9 
ROOT
HETATM    1  C   UNK N   1      33.829  16.997   8.666  0.00  0.00     0.173 C 
ENDROOT
BRANCH   1   2
HETATM    2  C   UNK N   1      34.697  16.690   9.886  0.00  0.00     0.042 C 
BRANCH   2   3
HETATM    3  C   UNK N   1      35.608  15.488   9.649  0.00  0.00     0.013 C 
HETATM    4  C   UNK N   1      34.848  14.367   8.960  0.00  0.00     0.012 C 
BRANCH   3   5
HETATM    5  C   UNK N   1      36.139  14.989  10.981  0.00  0.00     0.226 C 
HETATM    6  F   UNK N   1      35.980  15.960  11.956  0.00  0.00    -0.255 F 
ENDBRANCH   3   5
ENDBRANCH   2   3
ENDBRANCH   1   2
BRANCH   1   7
HETATM    7  N   UNK N   1      32.481  17.356   9.082  0.00  0.00    -0.418 N 
HETATM    8  H   UNK N   1      31.907  17.990   8.528  0.00  0.00     0.150 HD
HETATM    9  H   UNK N   1      32.103  16.964   9.945  0.00  0.00     0.150 HD
ENDBRANCH   1   7
BRANCH   1  10
HETATM   10  C   UNK N   1      34.429  18.100   7.838  0.00  0.00     0.163 C 
HETATM   11  O   UNK N   1      34.320  18.078   6.624  0.00  0.00    -0.648 OA
BRANCH  10  12
HETATM   12  O   UNK N   1      35.058  19.137   8.432  0.00  0.00    -0.775 OA
HETATM   13  H   UNK N   1      35.563  19.052   9.217  0.00  0.00     0.167 HD
ENDBRANCH  10  12
ENDBRANCH   1  10
TORSDOF 6
ENDMDL
