MODEL 1
REMARK VINA RESULT:      -5.7      0.000      0.000
REMARK  12 active torsions:
REMARK  status: ('A' for Active; 'I' for Inactive)
REMARK    1  A    between atoms: C_6  and  C_7 
REMARK    2  A    between atoms: C_7  and  O_8 
REMARK    3  A    between atoms: O_8  and  P_9 
REMARK    4  A    between atoms: P_9  and  O_10 
REMARK    5  A    between atoms: P_9  and  O_11 
REMARK    6  A    between atoms: C_13  and  C_14 
REMARK    7  A    between atoms: C_14  and  N_15 
REMARK    8  A    between atoms: N_15  and  O_16 
REMARK    9  A    between atoms: O_16  and  C_17 
REMARK   10  A    between atoms: C_17  and  C_18 
REMARK   11  A    between atoms: C_18  and  O_19 
REMARK   12  A    between atoms: C_21  and  O_22 
ROOT
HETATM    1  C   UNK N   1      34.184  14.929   4.399  0.00  0.00     0.071 C 
HETATM    2  C   UNK N   1      33.172  15.586   5.273  0.00  0.00     0.039 A 
HETATM    3  N   UNK N   1      31.852  15.349   5.056  0.00  0.00    -0.367 N 
ATOM      4  HN  UNK N   1      31.578  14.709   4.311  1.00  0.00     0.165 HD
HETATM    5  C   UNK N   1      30.886  15.942   5.809  0.00  0.00     0.098 A 
HETATM    6  C   UNK N   1      31.232  16.819   6.839  0.00  0.00    -0.008 A 
HETATM    7  C   UNK N   1      32.595  17.076   7.095  0.00  0.00     0.006 A 
HETATM    8  C   UNK N   1      33.572  16.452   6.301  0.00  0.00     0.096 A 
ENDROOT
BRANCH   7   9
HETATM    9  C   UNK N   1      33.028  18.032   8.172  0.00  0.00     0.188 C 
BRANCH   9  10
HETATM   10  N   UNK N   1      33.445  17.321   9.369  0.00  0.00    -0.298 N 
HETATM   11  H   UNK N   1      32.850  16.796  10.011  0.00  0.00     0.187 HD
BRANCH  10  12
HETATM   12  O   UNK N   1      34.785  17.495   9.460  0.00  0.00    -0.274 OA
BRANCH  12  13
HETATM   13  C   UNK N   1      35.202  16.587  10.431  0.00  0.00     0.310 C 
BRANCH  13  14
HETATM   14  C   UNK N   1      34.427  15.323  10.291  0.00  0.00     0.166 C 
HETATM   15  O   UNK N   1      34.625  14.586   9.340  0.00  0.00    -0.648 OA
BRANCH  14  16
HETATM   16  O   UNK N   1      33.510  14.992  11.219  0.00  0.00    -0.775 OA
HETATM   17  H   UNK N   1      32.931  15.627  11.594  0.00  0.00     0.167 HD
ENDBRANCH  14  16
ENDBRANCH  13  14
ENDBRANCH  12  13
ENDBRANCH  10  12
ENDBRANCH   9  10
ENDBRANCH   7   9
BRANCH   6  18
HETATM   18  C   UNK N   1      30.146  17.502   7.611  0.00  0.00     0.221 C 
BRANCH  18  19
HETATM   19  O   UNK N   1      29.126  17.961   6.769  0.00  0.00    -0.292 OA
BRANCH  19  20
HETATM   20  P   UNK N   1      28.083  18.870   7.825  0.00  0.00     0.391 P 
HETATM   21  O   UNK N   1      29.385  18.805   8.668  0.00  0.00    -0.632 OA
BRANCH  20  22
HETATM   22  O   UNK N   1      27.512  18.227   9.333  0.00  0.00    -0.307 OA
HETATM   23  H   UNK N   1      27.969  18.252  10.188  0.00  0.00     0.222 HD
ENDBRANCH  20  22
BRANCH  20  24
HETATM   24  O   UNK N   1      27.466  17.257   7.631  0.00  0.00    -0.307 OA
HETATM   25  H   UNK N   1      26.551  17.034   7.401  0.00  0.00     0.222 HD
ENDBRANCH  20  24
ENDBRANCH  19  20
ENDBRANCH  18  19
ENDBRANCH   6  18
BRANCH   8  26
HETATM   26  O   UNK N   1      34.879  16.695   6.514  0.00  0.00    -0.358 OA
HETATM   27  H   UNK N   1      35.404  16.067   6.972  0.00  0.00     0.217 HD
ENDBRANCH   8  26
TORSDOF 12
ENDMDL
MODEL 2
REMARK VINA RESULT:      -5.5     14.012     16.250
REMARK  12 active torsions:
REMARK  status: ('A' for Active; 'I' for Inactive)
REMARK    1  A    between atoms: C_6  and  C_7 
REMARK    2  A    between atoms: C_7  and  O_8 
REMARK    3  A    between atoms: O_8  and  P_9 
REMARK    4  A    between atoms: P_9  and  O_10 
REMARK    5  A    between atoms: P_9  and  O_11 
REMARK    6  A    between atoms: C_13  and  C_14 
REMARK    7  A    between atoms: C_14  and  N_15 
REMARK    8  A    between atoms: N_15  and  O_16 
REMARK    9  A    between atoms: O_16  and  C_17 
REMARK   10  A    between atoms: C_17  and  C_18 
REMARK   11  A    between atoms: C_18  and  O_19 
REMARK   12  A    between atoms: C_21  and  O_22 
ROOT
HETATM    1  C   UNK N   1      25.314  22.711  -7.774  0.00  0.00     0.071 C 
HETATM    2  C   UNK N   1      26.471  22.967  -6.870  0.00  0.00     0.039 A 
HETATM    3  N   UNK N   1      27.680  22.423  -7.167  0.00  0.00    -0.367 N 
ATOM      4  HN  UNK N   1      27.779  21.865  -8.014  1.00  0.00     0.165 HD
HETATM    5  C   UNK N   1      28.763  22.605  -6.364  0.00  0.00     0.098 A 
HETATM    6  C   UNK N   1      28.658  23.369  -5.199  0.00  0.00    -0.008 A 
HETATM    7  C   UNK N   1      27.418  23.956  -4.869  0.00  0.00     0.006 A 
HETATM    8  C   UNK N   1      26.316  23.749  -5.716  0.00  0.00     0.096 A 
ENDROOT
BRANCH   7   9
HETATM    9  C   UNK N   1      27.237  24.764  -3.615  0.00  0.00     0.188 C 
BRANCH   9  10
HETATM   10  N   UNK N   1      27.066  26.175  -3.920  0.00  0.00    -0.298 N 
HETATM   11  H   UNK N   1      27.681  26.760  -4.486  0.00  0.00     0.187 HD
BRANCH  10  12
HETATM   12  O   UNK N   1      25.923  26.556  -3.300  0.00  0.00    -0.274 OA
BRANCH  12  13
HETATM   13  C   UNK N   1      25.614  27.800  -3.846  0.00  0.00     0.310 C 
BRANCH  13  14
HETATM   14  C   UNK N   1      25.808  27.754  -5.322  0.00  0.00     0.166 C 
HETATM   15  O   UNK N   1      25.042  27.111  -6.020  0.00  0.00    -0.648 OA
BRANCH  14  16
HETATM   16  O   UNK N   1      26.827  28.428  -5.886  0.00  0.00    -0.775 OA
HETATM   17  H   UNK N   1      27.369  28.045  -6.548  0.00  0.00     0.167 HD
ENDBRANCH  14  16
ENDBRANCH  13  14
ENDBRANCH  12  13
ENDBRANCH  10  12
ENDBRANCH   9  10
ENDBRANCH   7   9
BRANCH   6  18
HETATM   18  C   UNK N   1      29.851  23.502  -4.303  0.00  0.00     0.221 C 
BRANCH  18  19
HETATM   19  O   UNK N   1      30.002  22.383  -3.476  0.00  0.00    -0.292 OA
BRANCH  19  20
HETATM   20  P   UNK N   1      31.725  22.173  -3.359  0.00  0.00     0.391 P 
HETATM   21  O   UNK N   1      31.260  20.716  -3.620  0.00  0.00    -0.632 OA
BRANCH  20  22
HETATM   22  O   UNK N   1      32.462  21.312  -2.045  0.00  0.00    -0.307 OA
HETATM   23  H   UNK N   1      32.076  21.140  -1.171  0.00  0.00     0.222 HD
ENDBRANCH  20  22
BRANCH  20  24
HETATM   24  O   UNK N   1      31.089  22.694  -1.828  0.00  0.00    -0.307 OA
HETATM   25  H   UNK N   1      31.622  22.957  -1.063  0.00  0.00     0.222 HD
ENDBRANCH  20  24
ENDBRANCH  19  20
ENDBRANCH  18  19
ENDBRANCH   6  18
BRANCH   8  26
HETATM   26  O   UNK N   1      25.117  24.283  -5.415  0.00  0.00    -0.358 OA
HETATM   27  H   UNK N   1      24.687  24.846  -6.030  0.00  0.00     0.217 HD
ENDBRANCH   8  26
TORSDOF 12
ENDMDL
MODEL 3
REMARK VINA RESULT:      -5.4      8.430     11.402
REMARK  12 active torsions:
REMARK  status: ('A' for Active; 'I' for Inactive)
REMARK    1  A    between atoms: C_6  and  C_7 
REMARK    2  A    between atoms: C_7  and  O_8 
REMARK    3  A    between atoms: O_8  and  P_9 
REMARK    4  A    between atoms: P_9  and  O_10 
REMARK    5  A    between atoms: P_9  and  O_11 
REMARK    6  A    between atoms: C_13  and  C_14 
REMARK    7  A    between atoms: C_14  and  N_15 
REMARK    8  A    between atoms: N_15  and  O_16 
REMARK    9  A    between atoms: O_16  and  C_17 
REMARK   10  A    between atoms: C_17  and  C_18 
REMARK   11  A    between atoms: C_18  and  O_19 
REMARK   12  A    between atoms: C_21  and  O_22 
ROOT
HETATM    1  C   UNK N   1      23.252  11.803  13.162  0.00  0.00     0.071 C 
HETATM    2  C   UNK N   1      23.527  12.110  11.730  0.00  0.00     0.039 A 
HETATM    3  N   UNK N   1      24.799  12.390  11.343  0.00  0.00    -0.367 N 
ATOM      4  HN  UNK N   1      25.546  12.366  12.036  1.00  0.00     0.165 HD
HETATM    5  C   UNK N   1      25.102  12.700  10.053  0.00  0.00     0.098 A 
HETATM    6  C   UNK N   1      24.099  12.736   9.081  0.00  0.00    -0.008 A 
HETATM    7  C   UNK N   1      22.770  12.439   9.451  0.00  0.00     0.006 A 
HETATM    8  C   UNK N   1      22.486  12.124  10.790  0.00  0.00     0.096 A 
ENDROOT
BRANCH   7   9
HETATM    9  C   UNK N   1      21.645  12.490   8.455  0.00  0.00     0.188 C 
BRANCH   9  10
HETATM   10  N   UNK N   1      21.040  13.811   8.413  0.00  0.00    -0.298 N 
HETATM   11  H   UNK N   1      21.375  14.623   7.895  0.00  0.00     0.187 HD
BRANCH  10  12
HETATM   12  O   UNK N   1      19.940  13.744   9.200  0.00  0.00    -0.274 OA
BRANCH  12  13
HETATM   13  C   UNK N   1      19.643  15.068   9.518  0.00  0.00     0.310 C 
BRANCH  13  14
HETATM   14  C   UNK N   1      19.936  15.936   8.344  0.00  0.00     0.166 C 
HETATM   15  O   UNK N   1      20.863  16.728   8.385  0.00  0.00    -0.648 OA
BRANCH  14  16
HETATM   16  O   UNK N   1      19.181  15.841   7.234  0.00  0.00    -0.775 OA
HETATM   17  H   UNK N   1      18.642  15.093   7.063  0.00  0.00     0.167 HD
ENDBRANCH  14  16
ENDBRANCH  13  14
ENDBRANCH  12  13
ENDBRANCH  10  12
ENDBRANCH   9  10
ENDBRANCH   7   9
BRANCH   6  18
HETATM   18  C   UNK N   1      24.453  13.139   7.683  0.00  0.00     0.221 C 
BRANCH  18  19
HETATM   19  O   UNK N   1      24.952  14.446   7.634  0.00  0.00    -0.292 OA
BRANCH  19  20
HETATM   20  P   UNK N   1      24.571  14.983   6.023  0.00  0.00     0.391 P 
HETATM   21  O   UNK N   1      25.777  15.897   6.370  0.00  0.00    -0.632 OA
BRANCH  20  22
HETATM   22  O   UNK N   1      23.935  16.566   5.705  0.00  0.00    -0.307 OA
HETATM   23  H   UNK N   1      24.413  17.323   5.332  0.00  0.00     0.222 HD
ENDBRANCH  20  22
BRANCH  20  24
HETATM   24  O   UNK N   1      23.259  15.363   7.096  0.00  0.00    -0.307 OA
HETATM   25  H   UNK N   1      22.540  14.758   7.334  0.00  0.00     0.222 HD
ENDBRANCH  20  24
ENDBRANCH  19  20
ENDBRANCH  18  19
ENDBRANCH   6  18
BRANCH   8  26
HETATM   26  O   UNK N   1      21.223  11.854  11.172  0.00  0.00    -0.358 OA
HETATM   27  H   UNK N   1      20.667  12.546  11.474  0.00  0.00     0.217 HD
ENDBRANCH   8  26
TORSDOF 12
ENDMDL
MODEL 4
REMARK VINA RESULT:      -5.3      4.637      7.257
REMARK  12 active torsions:
REMARK  status: ('A' for Active; 'I' for Inactive)
REMARK    1  A    between atoms: C_6  and  C_7 
REMARK    2  A    between atoms: C_7  and  O_8 
REMARK    3  A    between atoms: O_8  and  P_9 
REMARK    4  A    between atoms: P_9  and  O_10 
REMARK    5  A    between atoms: P_9  and  O_11 
REMARK    6  A    between atoms: C_13  and  C_14 
REMARK    7  A    between atoms: C_14  and  N_15 
REMARK    8  A    between atoms: N_15  and  O_16 
REMARK    9  A    between atoms: O_16  and  C_17 
REMARK   10  A    between atoms: C_17  and  C_18 
REMARK   11  A    between atoms: C_18  and  O_19 
REMARK   12  A    between atoms: C_21  and  O_22 
ROOT
HETATM    1  C   UNK N   1      36.505  13.483  15.558  0.00  0.00     0.071 C 
HETATM    2  C   UNK N   1      35.974  13.358  14.172  0.00  0.00     0.039 A 
HETATM    3  N   UNK N   1      35.329  12.220  13.806  0.00  0.00    -0.367 N 
ATOM      4  HN  UNK N   1      35.203  11.478  14.494  1.00  0.00     0.165 HD
HETATM    5  C   UNK N   1      34.846  12.045  12.546  0.00  0.00     0.098 A 
HETATM    6  C   UNK N   1      35.001  13.046  11.584  0.00  0.00    -0.008 A 
HETATM    7  C   UNK N   1      35.657  14.244  11.937  0.00  0.00     0.006 A 
HETATM    8  C   UNK N   1      36.148  14.397  13.245  0.00  0.00     0.096 A 
ENDROOT
BRANCH   7   9
HETATM    9  C   UNK N   1      35.879  15.345  10.938  0.00  0.00     0.188 C 
BRANCH   9  10
HETATM   10  N   UNK N   1      35.027  16.489  11.220  0.00  0.00    -0.298 N 
HETATM   11  H   UNK N   1      34.301  16.553  11.933  0.00  0.00     0.187 HD
BRANCH  10  12
HETATM   12  O   UNK N   1      35.395  17.455  10.343  0.00  0.00    -0.274 OA
BRANCH  12  13
HETATM   13  C   UNK N   1      34.738  17.135   9.157  0.00  0.00     0.310 C 
BRANCH  13  14
HETATM   14  C   UNK N   1      34.808  18.294   8.225  0.00  0.00     0.166 C 
HETATM   15  O   UNK N   1      35.364  19.324   8.570  0.00  0.00    -0.648 OA
BRANCH  14  16
HETATM   16  O   UNK N   1      34.261  18.204   6.999  0.00  0.00    -0.775 OA
HETATM   17  H   UNK N   1      34.735  18.439   6.225  0.00  0.00     0.167 HD
ENDBRANCH  14  16
ENDBRANCH  13  14
ENDBRANCH  12  13
ENDBRANCH  10  12
ENDBRANCH   9  10
ENDBRANCH   7   9
BRANCH   6  18
HETATM   18  C   UNK N   1      34.512  12.801  10.190  0.00  0.00     0.221 C 
BRANCH  18  19
HETATM   19  O   UNK N   1      34.389  11.433   9.921  0.00  0.00    -0.292 OA
BRANCH  19  20
HETATM   20  P   UNK N   1      33.715  11.378   8.317  0.00  0.00     0.391 P 
HETATM   21  O   UNK N   1      34.711  12.560   8.186  0.00  0.00    -0.632 OA
BRANCH  20  22
HETATM   22  O   UNK N   1      32.701  12.643   7.699  0.00  0.00    -0.307 OA
HETATM   23  H   UNK N   1      32.971  13.546   7.469  0.00  0.00     0.222 HD
ENDBRANCH  20  22
BRANCH  20  24
HETATM   24  O   UNK N   1      32.482  11.814   9.461  0.00  0.00    -0.307 OA
HETATM   25  H   UNK N   1      32.436  11.502  10.378  0.00  0.00     0.222 HD
ENDBRANCH  20  24
ENDBRANCH  19  20
ENDBRANCH  18  19
ENDBRANCH   6  18
BRANCH   8  26
HETATM   26  O   UNK N   1      36.794  15.524  13.602  0.00  0.00    -0.358 OA
HETATM   27  H   UNK N   1      36.763  16.278  13.046  0.00  0.00     0.217 HD
ENDBRANCH   8  26
TORSDOF 12
ENDMDL
MODEL 5
REMARK VINA RESULT:      -5.2     14.336     16.642
REMARK  12 active torsions:
REMARK  status: ('A' for Active; 'I' for Inactive)
REMARK    1  A    between atoms: C_6  and  C_7 
REMARK    2  A    between atoms: C_7  and  O_8 
REMARK    3  A    between atoms: O_8  and  P_9 
REMARK    4  A    between atoms: P_9  and  O_10 
REMARK    5  A    between atoms: P_9  and  O_11 
REMARK    6  A    between atoms: C_13  and  C_14 
REMARK    7  A    between atoms: C_14  and  N_15 
REMARK    8  A    between atoms: N_15  and  O_16 
REMARK    9  A    between atoms: O_16  and  C_17 
REMARK   10  A    between atoms: C_17  and  C_18 
REMARK   11  A    between atoms: C_18  and  O_19 
REMARK   12  A    between atoms: C_21  and  O_22 
ROOT
HETATM    1  C   UNK N   1      26.881  29.198  -4.880  0.00  0.00     0.071 C 
HETATM    2  C   UNK N   1      27.357  27.814  -4.600  0.00  0.00     0.039 A 
HETATM    3  N   UNK N   1      28.664  27.611  -4.290  0.00  0.00    -0.367 N 
ATOM      4  HN  UNK N   1      29.292  28.412  -4.236  1.00  0.00     0.165 HD
HETATM    5  C   UNK N   1      29.157  26.365  -4.049  0.00  0.00     0.098 A 
HETATM    6  C   UNK N   1      28.319  25.250  -4.112  0.00  0.00    -0.008 A 
HETATM    7  C   UNK N   1      26.954  25.430  -4.421  0.00  0.00     0.006 A 
HETATM    8  C   UNK N   1      26.473  26.728  -4.668  0.00  0.00     0.096 A 
ENDROOT
BRANCH   7   9
HETATM    9  C   UNK N   1      26.010  24.266  -4.531  0.00  0.00     0.188 C 
BRANCH   9  10
HETATM   10  N   UNK N   1      25.475  24.149  -5.878  0.00  0.00    -0.298 N 
HETATM   11  H   UNK N   1      24.506  24.278  -6.167  0.00  0.00     0.187 HD
BRANCH  10  12
HETATM   12  O   UNK N   1      26.527  23.833  -6.672  0.00  0.00    -0.274 OA
BRANCH  12  13
HETATM   13  C   UNK N   1      26.358  22.483  -6.975  0.00  0.00     0.310 C 
BRANCH  13  14
HETATM   14  C   UNK N   1      24.951  22.245  -7.401  0.00  0.00     0.166 C 
HETATM   15  O   UNK N   1      24.227  21.519  -6.741  0.00  0.00    -0.648 OA
BRANCH  14  16
HETATM   16  O   UNK N   1      24.478  22.836  -8.513  0.00  0.00    -0.775 OA
HETATM   17  H   UNK N   1      25.016  22.976  -9.268  0.00  0.00     0.167 HD
ENDBRANCH  14  16
ENDBRANCH  13  14
ENDBRANCH  12  13
ENDBRANCH  10  12
ENDBRANCH   9  10
ENDBRANCH   7   9
BRANCH   6  18
HETATM   18  C   UNK N   1      28.901  23.886  -3.902  0.00  0.00     0.221 C 
BRANCH  18  19
HETATM   19  O   UNK N   1      30.197  23.955  -3.376  0.00  0.00    -0.292 OA
BRANCH  19  20
HETATM   20  P   UNK N   1      30.557  22.314  -2.925  0.00  0.00     0.391 P 
HETATM   21  O   UNK N   1      30.437  22.991  -1.534  0.00  0.00    -0.632 OA
BRANCH  20  22
HETATM   22  O   UNK N   1      32.057  21.873  -2.172  0.00  0.00    -0.307 OA
HETATM   23  H   UNK N   1      32.450  20.987  -2.129  0.00  0.00     0.222 HD
ENDBRANCH  20  22
BRANCH  20  24
HETATM   24  O   UNK N   1      31.911  23.005  -3.765  0.00  0.00    -0.307 OA
HETATM   25  H   UNK N   1      32.673  22.508  -4.100  0.00  0.00     0.222 HD
ENDBRANCH  20  24
ENDBRANCH  19  20
ENDBRANCH  18  19
ENDBRANCH   6  18
BRANCH   8  26
HETATM   26  O   UNK N   1      25.178  26.925  -4.981  0.00  0.00    -0.358 OA
HETATM   27  H   UNK N   1      24.744  27.709  -4.705  0.00  0.00     0.217 HD
ENDBRANCH   8  26
TORSDOF 12
ENDMDL
MODEL 6
REMARK VINA RESULT:      -5.2      7.436      9.875
REMARK  12 active torsions:
REMARK  status: ('A' for Active; 'I' for Inactive)
REMARK    1  A    between atoms: C_6  and  C_7 
REMARK    2  A    between atoms: C_7  and  O_8 
REMARK    3  A    between atoms: O_8  and  P_9 
REMARK    4  A    between atoms: P_9  and  O_10 
REMARK    5  A    between atoms: P_9  and  O_11 
REMARK    6  A    between atoms: C_13  and  C_14 
REMARK    7  A    between atoms: C_14  and  N_15 
REMARK    8  A    between atoms: N_15  and  O_16 
REMARK    9  A    between atoms: O_16  and  C_17 
REMARK   10  A    between atoms: C_17  and  C_18 
REMARK   11  A    between atoms: C_18  and  O_19 
REMARK   12  A    between atoms: C_21  and  O_22 
ROOT
HETATM    1  C   UNK N   1      22.317  14.959   7.206  0.00  0.00     0.071 C 
HETATM    2  C   UNK N   1      22.317  16.122   6.274  0.00  0.00     0.039 A 
HETATM    3  N   UNK N   1      21.133  16.640   5.857  0.00  0.00    -0.367 N 
ATOM      4  HN  UNK N   1      20.264  16.236   6.205  1.00  0.00     0.165 HD
HETATM    5  C   UNK N   1      21.076  17.686   4.988  0.00  0.00     0.098 A 
HETATM    6  C   UNK N   1      22.250  18.262   4.498  0.00  0.00    -0.008 A 
HETATM    7  C   UNK N   1      23.496  17.752   4.922  0.00  0.00     0.006 A 
HETATM    8  C   UNK N   1      23.525  16.670   5.818  0.00  0.00     0.096 A 
ENDROOT
BRANCH   7   9
HETATM    9  C   UNK N   1      24.792  18.312   4.407  0.00  0.00     0.188 C 
BRANCH   9  10
HETATM   10  N   UNK N   1      25.499  19.041   5.448  0.00  0.00    -0.298 N 
HETATM   11  H   UNK N   1      25.182  19.880   5.934  0.00  0.00     0.187 HD
BRANCH  10  12
HETATM   12  O   UNK N   1      26.666  18.381   5.642  0.00  0.00    -0.274 OA
BRANCH  12  13
HETATM   13  C   UNK N   1      27.628  19.379   5.777  0.00  0.00     0.310 C 
BRANCH  13  14
HETATM   14  C   UNK N   1      27.114  20.441   6.685  0.00  0.00     0.166 C 
HETATM   15  O   UNK N   1      27.003  21.588   6.284  0.00  0.00    -0.648 OA
BRANCH  14  16
HETATM   16  O   UNK N   1      26.766  20.134   7.948  0.00  0.00    -0.775 OA
HETATM   17  H   UNK N   1      26.367  20.761   8.520  0.00  0.00     0.167 HD
ENDBRANCH  14  16
ENDBRANCH  13  14
ENDBRANCH  12  13
ENDBRANCH  10  12
ENDBRANCH   9  10
ENDBRANCH   7   9
BRANCH   6  18
HETATM   18  C   UNK N   1      22.156  19.371   3.497  0.00  0.00     0.221 C 
BRANCH  18  19
HETATM   19  O   UNK N   1      20.988  20.122   3.669  0.00  0.00    -0.292 OA
BRANCH  19  20
HETATM   20  P   UNK N   1      20.691  20.808   2.097  0.00  0.00     0.391 P 
HETATM   21  O   UNK N   1      20.665  19.290   1.775  0.00  0.00    -0.632 OA
BRANCH  20  22
HETATM   22  O   UNK N   1      21.845  20.686   0.806  0.00  0.00    -0.307 OA
HETATM   23  H   UNK N   1      22.803  20.565   0.890  0.00  0.00     0.222 HD
ENDBRANCH  20  22
BRANCH  20  24
HETATM   24  O   UNK N   1      22.287  21.234   2.634  0.00  0.00    -0.307 OA
HETATM   25  H   UNK N   1      22.527  22.070   3.062  0.00  0.00     0.222 HD
ENDBRANCH  20  24
ENDBRANCH  19  20
ENDBRANCH  18  19
ENDBRANCH   6  18
BRANCH   8  26
HETATM   26  O   UNK N   1      24.701  16.155   6.224  0.00  0.00    -0.358 OA
HETATM   27  H   UNK N   1      25.504  16.485   5.871  0.00  0.00     0.217 HD
ENDBRANCH   8  26
TORSDOF 12
ENDMDL
MODEL 7
REMARK VINA RESULT:      -5.2     14.675     16.264
REMARK  12 active torsions:
REMARK  status: ('A' for Active; 'I' for Inactive)
REMARK    1  A    between atoms: C_6  and  C_7 
REMARK    2  A    between atoms: C_7  and  O_8 
REMARK    3  A    between atoms: O_8  and  P_9 
REMARK    4  A    between atoms: P_9  and  O_10 
REMARK    5  A    between atoms: P_9  and  O_11 
REMARK    6  A    between atoms: C_13  and  C_14 
REMARK    7  A    between atoms: C_14  and  N_15 
REMARK    8  A    between atoms: N_15  and  O_16 
REMARK    9  A    between atoms: O_16  and  C_17 
REMARK   10  A    between atoms: C_17  and  C_18 
REMARK   11  A    between atoms: C_18  and  O_19 
REMARK   12  A    between atoms: C_21  and  O_22 
ROOT
HETATM    1  C   UNK N   1      26.732  29.323  -3.321  0.00  0.00     0.071 C 
HETATM    2  C   UNK N   1      26.586  28.024  -4.037  0.00  0.00     0.039 A 
HETATM    3  N   UNK N   1      25.378  27.684  -4.558  0.00  0.00    -0.367 N 
ATOM      4  HN  UNK N   1      24.597  28.334  -4.467  1.00  0.00     0.165 HD
HETATM    5  C   UNK N   1      25.184  26.501  -5.200  0.00  0.00     0.098 A 
HETATM    6  C   UNK N   1      26.236  25.593  -5.344  0.00  0.00    -0.008 A 
HETATM    7  C   UNK N   1      27.505  25.923  -4.823  0.00  0.00     0.006 A 
HETATM    8  C   UNK N   1      27.677  27.151  -4.162  0.00  0.00     0.096 A 
ENDROOT
BRANCH   7   9
HETATM    9  C   UNK N   1      28.668  24.976  -4.922  0.00  0.00     0.188 C 
BRANCH   9  10
HETATM   10  N   UNK N   1      29.080  24.511  -3.607  0.00  0.00    -0.298 N 
HETATM   11  H   UNK N   1      28.533  23.949  -2.955  0.00  0.00     0.187 HD
BRANCH  10  12
HETATM   12  O   UNK N   1      30.339  24.975  -3.424  0.00  0.00    -0.274 OA
BRANCH  12  13
HETATM   13  C   UNK N   1      31.154  23.846  -3.494  0.00  0.00     0.310 C 
BRANCH  13  14
HETATM   14  C   UNK N   1      30.578  22.768  -2.642  0.00  0.00     0.166 C 
HETATM   15  O   UNK N   1      30.262  21.700  -3.139  0.00  0.00    -0.648 OA
BRANCH  14  16
HETATM   16  O   UNK N   1      30.412  22.972  -1.323  0.00  0.00    -0.775 OA
HETATM   17  H   UNK N   1      30.080  22.303  -0.755  0.00  0.00     0.167 HD
ENDBRANCH  14  16
ENDBRANCH  13  14
ENDBRANCH  12  13
ENDBRANCH  10  12
ENDBRANCH   9  10
ENDBRANCH   7   9
BRANCH   6  18
HETATM   18  C   UNK N   1      25.977  24.273  -6.002  0.00  0.00     0.221 C 
BRANCH  18  19
HETATM   19  O   UNK N   1      25.240  24.422  -7.182  0.00  0.00    -0.292 OA
BRANCH  19  20
HETATM   20  P   UNK N   1      25.636  23.004  -8.109  0.00  0.00     0.391 P 
HETATM   21  O   UNK N   1      24.580  23.678  -9.025  0.00  0.00    -0.632 OA
BRANCH  20  22
HETATM   22  O   UNK N   1      24.496  21.720  -8.362  0.00  0.00    -0.307 OA
HETATM   23  H   UNK N   1      24.487  20.853  -7.925  0.00  0.00     0.222 HD
ENDBRANCH  20  22
BRANCH  20  24
HETATM   24  O   UNK N   1      24.867  22.541  -6.622  0.00  0.00    -0.307 OA
HETATM   25  H   UNK N   1      25.328  22.355  -5.790  0.00  0.00     0.222 HD
ENDBRANCH  20  24
ENDBRANCH  19  20
ENDBRANCH  18  19
ENDBRANCH   6  18
BRANCH   8  26
HETATM   26  O   UNK N   1      28.873  27.481  -3.640  0.00  0.00    -0.358 OA
HETATM   27  H   UNK N   1      29.426  26.817  -3.278  0.00  0.00     0.217 HD
ENDBRANCH   8  26
TORSDOF 12
ENDMDL
MODEL 8
REMARK VINA RESULT:      -5.2     13.768     15.210
REMARK  12 active torsions:
REMARK  status: ('A' for Active; 'I' for Inactive)
REMARK    1  A    between atoms: C_6  and  C_7 
REMARK    2  A    between atoms: C_7  and  O_8 
REMARK    3  A    between atoms: O_8  and  P_9 
REMARK    4  A    between atoms: P_9  and  O_10 
REMARK    5  A    between atoms: P_9  and  O_11 
REMARK    6  A    between atoms: C_13  and  C_14 
REMARK    7  A    between atoms: C_14  and  N_15 
REMARK    8  A    between atoms: N_15  and  O_16 
REMARK    9  A    between atoms: O_16  and  C_17 
REMARK   10  A    between atoms: C_17  and  C_18 
REMARK   11  A    between atoms: C_18  and  O_19 
REMARK   12  A    between atoms: C_21  and  O_22 
ROOT
HETATM    1  C   UNK N   1      26.761  21.962  -7.611  0.00  0.00     0.071 C 
HETATM    2  C   UNK N   1      26.730  23.102  -6.652  0.00  0.00     0.039 A 
HETATM    3  N   UNK N   1      25.657  23.935  -6.644  0.00  0.00    -0.367 N 
ATOM      4  HN  UNK N   1      24.882  23.753  -7.280  1.00  0.00     0.165 HD
HETATM    5  C   UNK N   1      25.589  25.006  -5.806  0.00  0.00     0.098 A 
HETATM    6  C   UNK N   1      26.634  25.277  -4.920  0.00  0.00    -0.008 A 
HETATM    7  C   UNK N   1      27.757  24.424  -4.898  0.00  0.00     0.006 A 
HETATM    8  C   UNK N   1      27.802  23.327  -5.776  0.00  0.00     0.096 A 
ENDROOT
BRANCH   7   9
HETATM    9  C   UNK N   1      28.925  24.681  -3.987  0.00  0.00     0.188 C 
BRANCH   9  10
HETATM   10  N   UNK N   1      29.050  23.635  -2.986  0.00  0.00    -0.298 N 
HETATM   11  H   UNK N   1      28.379  22.893  -2.785  0.00  0.00     0.187 HD
BRANCH  10  12
HETATM   12  O   UNK N   1      30.240  23.844  -2.372  0.00  0.00    -0.274 OA
BRANCH  12  13
HETATM   13  C   UNK N   1      31.190  23.299  -3.233  0.00  0.00     0.310 C 
BRANCH  13  14
HETATM   14  C   UNK N   1      31.285  21.831  -2.998  0.00  0.00     0.166 C 
HETATM   15  O   UNK N   1      30.504  21.072  -3.548  0.00  0.00    -0.648 OA
BRANCH  14  16
HETATM   16  O   UNK N   1      32.237  21.341  -2.183  0.00  0.00    -0.775 OA
HETATM   17  H   UNK N   1      32.104  20.565  -1.675  0.00  0.00     0.167 HD
ENDBRANCH  14  16
ENDBRANCH  13  14
ENDBRANCH  12  13
ENDBRANCH  10  12
ENDBRANCH   9  10
ENDBRANCH   7   9
BRANCH   6  18
HETATM   18  C   UNK N   1      26.558  26.496  -4.054  0.00  0.00     0.221 C 
BRANCH  18  19
HETATM   19  O   UNK N   1      25.964  27.570  -4.726  0.00  0.00    -0.292 OA
BRANCH  19  20
HETATM   20  P   UNK N   1      26.416  28.961  -3.783  0.00  0.00     0.391 P 
HETATM   21  O   UNK N   1      27.805  28.345  -4.100  0.00  0.00    -0.632 OA
BRANCH  20  22
HETATM   22  O   UNK N   1      27.121  28.815  -2.204  0.00  0.00    -0.307 OA
HETATM   23  H   UNK N   1      27.309  27.994  -1.723  0.00  0.00     0.222 HD
ENDBRANCH  20  22
BRANCH  20  24
HETATM   24  O   UNK N   1      25.525  27.843  -2.796  0.00  0.00    -0.307 OA
HETATM   25  H   UNK N   1      25.836  26.965  -2.528  0.00  0.00     0.222 HD
ENDBRANCH  20  24
ENDBRANCH  19  20
ENDBRANCH  18  19
ENDBRANCH   6  18
BRANCH   8  26
HETATM   26  O   UNK N   1      28.871  22.508  -5.787  0.00  0.00    -0.358 OA
HETATM   27  H   UNK N   1      29.001  21.899  -5.086  0.00  0.00     0.217 HD
ENDBRANCH   8  26
TORSDOF 12
ENDMDL
MODEL 9
REMARK VINA RESULT:      -5.1      2.814      5.162
REMARK  12 active torsions:
REMARK  status: ('A' for Active; 'I' for Inactive)
REMARK    1  A    between atoms: C_6  and  C_7 
REMARK    2  A    between atoms: C_7  and  O_8 
REMARK    3  A    between atoms: O_8  and  P_9 
REMARK    4  A    between atoms: P_9  and  O_10 
REMARK    5  A    between atoms: P_9  and  O_11 
REMARK    6  A    between atoms: C_13  and  C_14 
REMARK    7  A    between atoms: C_14  and  N_15 
REMARK    8  A    between atoms: N_15  and  O_16 
REMARK    9  A    between atoms: O_16  and  C_17 
REMARK   10  A    between atoms: C_17  and  C_18 
REMARK   11  A    between atoms: C_18  and  O_19 
REMARK   12  A    between atoms: C_21  and  O_22 
ROOT
HETATM    1  C   UNK N   1      36.234  14.749  10.105  0.00  0.00     0.071 C 
HETATM    2  C   UNK N   1      35.477  15.313   8.952  0.00  0.00     0.039 A 
HETATM    3  N   UNK N   1      35.678  14.801   7.710  0.00  0.00    -0.367 N 
ATOM      4  HN  UNK N   1      36.330  14.026   7.591  1.00  0.00     0.165 HD
HETATM    5  C   UNK N   1      35.031  15.295   6.619  0.00  0.00     0.098 A 
HETATM    6  C   UNK N   1      34.129  16.353   6.752  0.00  0.00    -0.008 A 
HETATM    7  C   UNK N   1      33.891  16.898   8.031  0.00  0.00     0.006 A 
HETATM    8  C   UNK N   1      34.575  16.371   9.140  0.00  0.00     0.096 A 
ENDROOT
BRANCH   7   9
HETATM    9  C   UNK N   1      32.953  18.056   8.232  0.00  0.00     0.188 C 
BRANCH   9  10
HETATM   10  N   UNK N   1      31.802  17.667   9.030  0.00  0.00    -0.298 N 
HETATM   11  H   UNK N   1      31.813  17.217   9.946  0.00  0.00     0.187 HD
BRANCH  10  12
HETATM   12  O   UNK N   1      30.711  18.023   8.311  0.00  0.00    -0.274 OA
BRANCH  12  13
HETATM   13  C   UNK N   1      29.840  18.595   9.236  0.00  0.00     0.310 C 
BRANCH  13  14
HETATM   14  C   UNK N   1      29.001  17.529   9.850  0.00  0.00     0.166 C 
HETATM   15  O   UNK N   1      27.820  17.436   9.559  0.00  0.00    -0.648 OA
BRANCH  14  16
HETATM   16  O   UNK N   1      29.548  16.664  10.724  0.00  0.00    -0.775 OA
HETATM   17  H   UNK N   1      29.682  16.887  11.625  0.00  0.00     0.167 HD
ENDBRANCH  14  16
ENDBRANCH  13  14
ENDBRANCH  12  13
ENDBRANCH  10  12
ENDBRANCH   9  10
ENDBRANCH   7   9
BRANCH   6  18
HETATM   18  C   UNK N   1      33.478  16.915   5.526  0.00  0.00     0.221 C 
BRANCH  18  19
HETATM   19  O   UNK N   1      33.813  16.182   4.382  0.00  0.00    -0.292 OA
BRANCH  19  20
HETATM   20  P   UNK N   1      32.327  16.101   3.481  0.00  0.00     0.391 P 
HETATM   21  O   UNK N   1      33.369  15.797   2.373  0.00  0.00    -0.632 OA
BRANCH  20  22
HETATM   22  O   UNK N   1      31.921  17.271   2.266  0.00  0.00    -0.307 OA
HETATM   23  H   UNK N   1      31.073  17.362   1.804  0.00  0.00     0.222 HD
ENDBRANCH  20  22
BRANCH  20  24
HETATM   24  O   UNK N   1      32.582  17.721   4.055  0.00  0.00    -0.307 OA
HETATM   25  H   UNK N   1      32.299  18.058   4.919  0.00  0.00     0.222 HD
ENDBRANCH  20  24
ENDBRANCH  19  20
ENDBRANCH  18  19
ENDBRANCH   6  18
BRANCH   8  26
HETATM   26  O   UNK N   1      34.378  16.885  10.368  0.00  0.00    -0.358 OA
HETATM   27  H   UNK N   1      33.534  16.826  10.771  0.00  0.00     0.217 HD
ENDBRANCH   8  26
TORSDOF 12
ENDMDL
