MODEL 1
REMARK VINA RESULT:      -7.1      0.000      0.000
REMARK  13 active torsions:
REMARK  status: ('A' for Active; 'I' for Inactive)
REMARK    1  A    between atoms: C_24  and  C_17 
REMARK    2  A    between atoms: C_28  and  C_17 
REMARK    3  A    between atoms: C_25  and  C_20 
REMARK    4  A    between atoms: N_35  and  C_20 
REMARK    5  A    between atoms: C_26  and  C_21 
REMARK    6  A    between atoms: N_36  and  C_21 
REMARK    7  A    between atoms: C_27  and  C_22 
REMARK    8  A    between atoms: N_37  and  C_22 
REMARK    9  A    between atoms: O_38  and  C_29 
REMARK   10  A    between atoms: O_39  and  C_30 
REMARK   11  A    between atoms: C_31  and  O_40 
REMARK   12  A    between atoms: O_42  and  C_32 
REMARK   13  A    between atoms: O_43  and  C_33 
ROOT
HETATM    1  C   UNK N   1      21.305  17.114   6.821  0.00  0.00     0.176 C 
HETATM    2  C   UNK N   1      21.221  14.616   7.685  0.00  0.00     0.123 C 
HETATM    3  C   UNK N   1      21.195  16.169   8.000  0.00  0.00     0.161 C 
HETATM    4  C   UNK N   1      20.548  14.748   5.204  0.00  0.00     0.340 C 
HETATM    5  N   UNK N   1      22.099  16.478   5.816  0.00  0.00    -0.315 N 
HETATM    6  N   UNK N   1      20.629  14.115   6.415  0.00  0.00    -0.321 N 
HETATM    7  N   UNK N   1      21.318  15.825   4.858  0.00  0.00    -0.240 N 
HETATM    8  O   UNK N   1      19.892  14.197   4.314  0.00  0.00    -0.245 OA
ENDROOT
BRANCH   6   9
HETATM    9  C   UNK N   1      20.694  12.670   6.232  0.00  0.00     0.166 C 
BRANCH   9  10
HETATM   10  C   UNK N   1      22.024  12.101   6.006  0.00  0.00    -0.037 A 
HETATM   11  C   UNK N   1      22.804  12.463   4.911  0.00  0.00     0.012 A 
HETATM   12  C   UNK N   1      23.981  11.773   4.655  0.00  0.00     0.040 A 
HETATM   13  C   UNK N   1      24.381  10.723   5.490  0.00  0.00     0.099 A 
HETATM   14  C   UNK N   1      23.603  10.387   6.630  0.00  0.00     0.101 A 
HETATM   15  C   UNK N   1      22.428  11.087   6.865  0.00  0.00     0.048 A 
BRANCH  13  16
HETATM   16  O   UNK N   1      25.496  10.049   5.182  0.00  0.00    -0.358 OA
HETATM   17  H   UNK N   1      25.489   9.304   4.614  0.00  0.00     0.217 HD
ENDBRANCH  13  16
BRANCH  14  18
HETATM   18  O   UNK N   1      23.924   9.399   7.502  0.00  0.00    -0.353 OA
HETATM   19  C   UNK N   1      23.686   8.060   7.304  0.00  0.00     0.210 C 
ENDBRANCH  14  18
ENDBRANCH   9  10
ENDBRANCH   6   9
BRANCH   2  20
HETATM   20  C   UNK N   1      20.589  13.754   8.827  0.00  0.00     0.066 C 
BRANCH  20  21
HETATM   21  C   UNK N   1      21.376  13.124   9.927  0.00  0.00    -0.056 A 
HETATM   22  C   UNK N   1      20.705  12.471  10.973  0.00  0.00     0.007 A 
HETATM   23  C   UNK N   1      21.432  11.844  11.990  0.00  0.00     0.001 A 
HETATM   24  C   UNK N   1      22.829  11.852  11.949  0.00  0.00     0.000 A 
HETATM   25  C   UNK N   1      23.496  12.486  10.895  0.00  0.00     0.001 A 
HETATM   26  C   UNK N   1      22.770  13.122   9.885  0.00  0.00     0.007 A 
ENDBRANCH  20  21
ENDBRANCH   2  20
BRANCH   3  27
HETATM   27  O   UNK N   1      20.070  16.567   8.719  0.00  0.00    -0.392 OA
HETATM   28  H   UNK N   1      19.524  16.194   9.428  0.00  0.00     0.210 HD
ENDBRANCH   3  27
BRANCH   7  29
HETATM   29  C   UNK N   1      21.485  16.091   3.435  0.00  0.00     0.192 C 
BRANCH  29  30
HETATM   30  C   UNK N   1      21.177  17.545   3.102  0.00  0.00    -0.035 A 
HETATM   31  C   UNK N   1      19.851  17.991   2.941  0.00  0.00     0.012 A 
HETATM   32  C   UNK N   1      19.557  19.342   2.808  0.00  0.00     0.040 A 
HETATM   33  C   UNK N   1      20.587  20.277   2.807  0.00  0.00     0.099 A 
HETATM   34  C   UNK N   1      21.924  19.853   2.909  0.00  0.00     0.101 A 
HETATM   35  C   UNK N   1      22.210  18.482   3.070  0.00  0.00     0.048 A 
BRANCH  33  36
HETATM   36  O   UNK N   1      20.293  21.583   2.696  0.00  0.00    -0.358 OA
HETATM   37  H   UNK N   1      19.830  22.101   3.325  0.00  0.00     0.217 HD
ENDBRANCH  33  36
BRANCH  34  38
HETATM   38  O   UNK N   1      22.912  20.777   2.858  0.00  0.00    -0.353 OA
HETATM   39  C   UNK N   1      24.223  20.490   3.162  0.00  0.00     0.210 C 
ENDBRANCH  34  38
ENDBRANCH  29  30
ENDBRANCH   7  29
BRANCH   5  40
HETATM   40  C   UNK N   1      23.433  17.029   5.527  0.00  0.00     0.181 C 
BRANCH  40  41
HETATM   41  C   UNK N   1      24.634  16.120   5.486  0.00  0.00    -0.039 A 
HETATM   42  C   UNK N   1      24.819  15.284   6.590  0.00  0.00     0.009 A 
HETATM   43  C   UNK N   1      25.838  14.331   6.601  0.00  0.00     0.001 A 
HETATM   44  C   UNK N   1      26.675  14.196   5.493  0.00  0.00     0.000 A 
HETATM   45  C   UNK N   1      26.522  15.046   4.394  0.00  0.00     0.001 A 
HETATM   46  C   UNK N   1      25.515  16.018   4.396  0.00  0.00     0.009 A 
ENDBRANCH  40  41
ENDBRANCH   5  40
TORSDOF 13
ENDMDL
MODEL 2
REMARK VINA RESULT:      -7.1      2.143      2.996
REMARK  13 active torsions:
REMARK  status: ('A' for Active; 'I' for Inactive)
REMARK    1  A    between atoms: C_24  and  C_17 
REMARK    2  A    between atoms: C_28  and  C_17 
REMARK    3  A    between atoms: C_25  and  C_20 
REMARK    4  A    between atoms: N_35  and  C_20 
REMARK    5  A    between atoms: C_26  and  C_21 
REMARK    6  A    between atoms: N_36  and  C_21 
REMARK    7  A    between atoms: C_27  and  C_22 
REMARK    8  A    between atoms: N_37  and  C_22 
REMARK    9  A    between atoms: O_38  and  C_29 
REMARK   10  A    between atoms: O_39  and  C_30 
REMARK   11  A    between atoms: C_31  and  O_40 
REMARK   12  A    between atoms: O_42  and  C_32 
REMARK   13  A    between atoms: O_43  and  C_33 
ROOT
HETATM    1  C   UNK N   1      20.792  16.990   6.757  0.00  0.00     0.176 C 
HETATM    2  C   UNK N   1      21.236  14.510   7.560  0.00  0.00     0.123 C 
HETATM    3  C   UNK N   1      21.094  16.050   7.907  0.00  0.00     0.161 C 
HETATM    4  C   UNK N   1      19.964  14.533   5.322  0.00  0.00     0.340 C 
HETATM    5  N   UNK N   1      21.389  16.452   5.575  0.00  0.00    -0.315 N 
HETATM    6  N   UNK N   1      20.418  13.926   6.462  0.00  0.00    -0.321 N 
HETATM    7  N   UNK N   1      20.484  15.696   4.822  0.00  0.00    -0.240 N 
HETATM    8  O   UNK N   1      19.185  13.895   4.607  0.00  0.00    -0.245 OA
ENDROOT
BRANCH   6   9
HETATM    9  C   UNK N   1      20.616  12.500   6.237  0.00  0.00     0.166 C 
BRANCH   9  10
HETATM   10  C   UNK N   1      21.980  12.075   5.912  0.00  0.00    -0.037 A 
HETATM   11  C   UNK N   1      22.671  12.590   4.818  0.00  0.00     0.012 A 
HETATM   12  C   UNK N   1      23.891  12.032   4.459  0.00  0.00     0.040 A 
HETATM   13  C   UNK N   1      24.422  10.964   5.190  0.00  0.00     0.099 A 
HETATM   14  C   UNK N   1      23.733  10.472   6.330  0.00  0.00     0.101 A 
HETATM   15  C   UNK N   1      22.513  11.041   6.669  0.00  0.00     0.048 A 
BRANCH  13  16
HETATM   16  O   UNK N   1      25.577  10.421   4.783  0.00  0.00    -0.358 OA
HETATM   17  H   UNK N   1      26.106  10.813   4.117  0.00  0.00     0.217 HD
ENDBRANCH  13  16
BRANCH  14  18
HETATM   18  O   UNK N   1      24.182   9.454   7.107  0.00  0.00    -0.353 OA
HETATM   19  C   UNK N   1      23.790   8.142   6.997  0.00  0.00     0.210 C 
ENDBRANCH  14  18
ENDBRANCH   9  10
ENDBRANCH   6   9
BRANCH   2  20
HETATM   20  C   UNK N   1      21.016  13.585   8.802  0.00  0.00     0.066 C 
BRANCH  20  21
HETATM   21  C   UNK N   1      22.119  13.084   9.672  0.00  0.00    -0.056 A 
HETATM   22  C   UNK N   1      21.811  12.422  10.871  0.00  0.00     0.007 A 
HETATM   23  C   UNK N   1      22.835  11.914  11.676  0.00  0.00     0.001 A 
HETATM   24  C   UNK N   1      24.166  12.049  11.272  0.00  0.00     0.000 A 
HETATM   25  C   UNK N   1      24.471  12.692  10.068  0.00  0.00     0.001 A 
HETATM   26  C   UNK N   1      23.448  13.210   9.268  0.00  0.00     0.007 A 
ENDBRANCH  20  21
ENDBRANCH   2  20
BRANCH   3  27
HETATM   27  O   UNK N   1      20.139  16.309   8.887  0.00  0.00    -0.392 OA
HETATM   28  H   UNK N   1      19.807  17.093   9.351  0.00  0.00     0.210 HD
ENDBRANCH   3  27
BRANCH   7  29
HETATM   29  C   UNK N   1      20.264  15.968   3.408  0.00  0.00     0.192 C 
BRANCH  29  30
HETATM   30  C   UNK N   1      21.086  15.034   2.529  0.00  0.00    -0.035 A 
HETATM   31  C   UNK N   1      20.470  14.033   1.753  0.00  0.00     0.012 A 
HETATM   32  C   UNK N   1      21.194  13.296   0.824  0.00  0.00     0.040 A 
HETATM   33  C   UNK N   1      22.557  13.527   0.669  0.00  0.00     0.099 A 
HETATM   34  C   UNK N   1      23.206  14.481   1.470  0.00  0.00     0.101 A 
HETATM   35  C   UNK N   1      22.459  15.243   2.392  0.00  0.00     0.048 A 
BRANCH  33  36
HETATM   36  O   UNK N   1      23.245  12.823  -0.245  0.00  0.00    -0.358 OA
HETATM   37  H   UNK N   1      24.108  12.472  -0.139  0.00  0.00     0.217 HD
ENDBRANCH  33  36
BRANCH  34  38
HETATM   38  O   UNK N   1      24.542  14.655   1.335  0.00  0.00    -0.353 OA
HETATM   39  C   UNK N   1      25.399  14.742   2.408  0.00  0.00     0.210 C 
ENDBRANCH  34  38
ENDBRANCH  29  30
ENDBRANCH   7  29
BRANCH   5  40
HETATM   40  C   UNK N   1      22.532  17.165   4.981  0.00  0.00     0.181 C 
BRANCH  40  41
HETATM   41  C   UNK N   1      23.940  16.723   5.287  0.00  0.00    -0.039 A 
HETATM   42  C   UNK N   1      24.965  17.547   4.817  0.00  0.00     0.009 A 
HETATM   43  C   UNK N   1      26.298  17.283   5.139  0.00  0.00     0.001 A 
HETATM   44  C   UNK N   1      26.613  16.194   5.952  0.00  0.00     0.000 A 
HETATM   45  C   UNK N   1      25.600  15.343   6.404  0.00  0.00     0.001 A 
HETATM   46  C   UNK N   1      24.267  15.596   6.059  0.00  0.00     0.009 A 
ENDBRANCH  40  41
ENDBRANCH   5  40
TORSDOF 13
ENDMDL
MODEL 3
REMARK VINA RESULT:      -7.0      2.525      7.848
REMARK  13 active torsions:
REMARK  status: ('A' for Active; 'I' for Inactive)
REMARK    1  A    between atoms: C_24  and  C_17 
REMARK    2  A    between atoms: C_28  and  C_17 
REMARK    3  A    between atoms: C_25  and  C_20 
REMARK    4  A    between atoms: N_35  and  C_20 
REMARK    5  A    between atoms: C_26  and  C_21 
REMARK    6  A    between atoms: N_36  and  C_21 
REMARK    7  A    between atoms: C_27  and  C_22 
REMARK    8  A    between atoms: N_37  and  C_22 
REMARK    9  A    between atoms: O_38  and  C_29 
REMARK   10  A    between atoms: O_39  and  C_30 
REMARK   11  A    between atoms: C_31  and  O_40 
REMARK   12  A    between atoms: O_42  and  C_32 
REMARK   13  A    between atoms: O_43  and  C_33 
ROOT
HETATM    1  C   UNK N   1      20.895  15.056   7.659  0.00  0.00     0.176 C 
HETATM    2  C   UNK N   1      21.969  16.617   5.815  0.00  0.00     0.123 C 
HETATM    3  C   UNK N   1      20.835  16.361   6.892  0.00  0.00     0.161 C 
HETATM    4  C   UNK N   1      23.708  14.955   6.731  0.00  0.00     0.340 C 
HETATM    5  N   UNK N   1      21.476  14.066   6.807  0.00  0.00    -0.315 N 
HETATM    6  N   UNK N   1      23.338  16.083   6.049  0.00  0.00    -0.321 N 
HETATM    7  N   UNK N   1      22.851  13.926   7.019  0.00  0.00    -0.240 N 
HETATM    8  O   UNK N   1      24.915  14.771   6.919  0.00  0.00    -0.245 OA
ENDROOT
BRANCH   6   9
HETATM    9  C   UNK N   1      24.307  16.388   5.004  0.00  0.00     0.166 C 
BRANCH   9  10
HETATM   10  C   UNK N   1      24.169  15.642   3.751  0.00  0.00    -0.037 A 
HETATM   11  C   UNK N   1      22.955  15.553   3.076  0.00  0.00     0.012 A 
HETATM   12  C   UNK N   1      22.841  14.699   1.987  0.00  0.00     0.040 A 
HETATM   13  C   UNK N   1      23.937  13.935   1.572  0.00  0.00     0.099 A 
HETATM   14  C   UNK N   1      25.185  14.061   2.238  0.00  0.00     0.101 A 
HETATM   15  C   UNK N   1      25.275  14.919   3.326  0.00  0.00     0.048 A 
BRANCH  13  16
HETATM   16  O   UNK N   1      23.774  13.085   0.549  0.00  0.00    -0.358 OA
HETATM   17  H   UNK N   1      23.363  13.341  -0.253  0.00  0.00     0.217 HD
ENDBRANCH  13  16
BRANCH  14  18
HETATM   18  O   UNK N   1      26.303  13.375   1.891  0.00  0.00    -0.353 OA
HETATM   19  C   UNK N   1      26.928  12.435   2.674  0.00  0.00     0.210 C 
ENDBRANCH  14  18
ENDBRANCH   9  10
ENDBRANCH   6   9
BRANCH   2  20
HETATM   20  C   UNK N   1      22.149  18.132   5.471  0.00  0.00     0.066 C 
BRANCH  20  21
HETATM   21  C   UNK N   1      21.638  18.768   4.221  0.00  0.00    -0.056 A 
HETATM   22  C   UNK N   1      22.436  19.703   3.543  0.00  0.00     0.007 A 
HETATM   23  C   UNK N   1      21.984  20.277   2.351  0.00  0.00     0.001 A 
HETATM   24  C   UNK N   1      20.745  19.900   1.825  0.00  0.00     0.000 A 
HETATM   25  C   UNK N   1      19.960  18.953   2.491  0.00  0.00     0.001 A 
HETATM   26  C   UNK N   1      20.406  18.387   3.689  0.00  0.00     0.007 A 
ENDBRANCH  20  21
ENDBRANCH   2  20
BRANCH   3  27
HETATM   27  O   UNK N   1      20.739  17.372   7.844  0.00  0.00    -0.392 OA
HETATM   28  H   UNK N   1      20.907  17.457   8.795  0.00  0.00     0.210 HD
ENDBRANCH   3  27
BRANCH   7  29
HETATM   29  C   UNK N   1      23.446  12.627   7.298  0.00  0.00     0.192 C 
BRANCH  29  30
HETATM   30  C   UNK N   1      23.549  12.374   8.798  0.00  0.00    -0.035 A 
HETATM   31  C   UNK N   1      24.789  12.425   9.462  0.00  0.00     0.012 A 
HETATM   32  C   UNK N   1      24.866  12.365  10.848  0.00  0.00     0.040 A 
HETATM   33  C   UNK N   1      23.703  12.228  11.599  0.00  0.00     0.099 A 
HETATM   34  C   UNK N   1      22.458  12.119  10.958  0.00  0.00     0.101 A 
HETATM   35  C   UNK N   1      22.388  12.206   9.552  0.00  0.00     0.048 A 
BRANCH  33  36
HETATM   36  O   UNK N   1      23.785  12.191  12.940  0.00  0.00    -0.358 OA
HETATM   37  H   UNK N   1      23.072  12.289  13.541  0.00  0.00     0.217 HD
ENDBRANCH  33  36
BRANCH  34  38
HETATM   38  O   UNK N   1      21.345  11.938  11.707  0.00  0.00    -0.353 OA
HETATM   39  C   UNK N   1      20.101  12.381  11.321  0.00  0.00     0.210 C 
ENDBRANCH  34  38
ENDBRANCH  29  30
ENDBRANCH   7  29
BRANCH   5  40
HETATM   40  C   UNK N   1      20.621  12.970   6.323  0.00  0.00     0.181 C 
BRANCH  40  41
HETATM   41  C   UNK N   1      20.301  12.852   4.855  0.00  0.00    -0.039 A 
HETATM   42  C   UNK N   1      19.443  13.820   4.327  0.00  0.00     0.009 A 
HETATM   43  C   UNK N   1      19.170  13.861   2.959  0.00  0.00     0.001 A 
HETATM   44  C   UNK N   1      19.771  12.939   2.102  0.00  0.00     0.000 A 
HETATM   45  C   UNK N   1      20.607  11.945   2.620  0.00  0.00     0.001 A 
HETATM   46  C   UNK N   1      20.860  11.891   3.996  0.00  0.00     0.009 A 
ENDBRANCH  40  41
ENDBRANCH   5  40
TORSDOF 13
ENDMDL
MODEL 4
REMARK VINA RESULT:      -6.9      2.488      5.276
REMARK  13 active torsions:
REMARK  status: ('A' for Active; 'I' for Inactive)
REMARK    1  A    between atoms: C_24  and  C_17 
REMARK    2  A    between atoms: C_28  and  C_17 
REMARK    3  A    between atoms: C_25  and  C_20 
REMARK    4  A    between atoms: N_35  and  C_20 
REMARK    5  A    between atoms: C_26  and  C_21 
REMARK    6  A    between atoms: N_36  and  C_21 
REMARK    7  A    between atoms: C_27  and  C_22 
REMARK    8  A    between atoms: N_37  and  C_22 
REMARK    9  A    between atoms: O_38  and  C_29 
REMARK   10  A    between atoms: O_39  and  C_30 
REMARK   11  A    between atoms: C_31  and  O_40 
REMARK   12  A    between atoms: O_42  and  C_32 
REMARK   13  A    between atoms: O_43  and  C_33 
ROOT
HETATM    1  C   UNK N   1      22.960  14.953   3.054  0.00  0.00     0.176 C 
HETATM    2  C   UNK N   1      22.507  13.003   4.781  0.00  0.00     0.123 C 
HETATM    3  C   UNK N   1      23.182  13.504   3.438  0.00  0.00     0.161 C 
HETATM    4  C   UNK N   1      22.182  15.302   5.892  0.00  0.00     0.340 C 
HETATM    5  N   UNK N   1      21.677  15.351   3.543  0.00  0.00    -0.315 N 
HETATM    6  N   UNK N   1      22.358  13.945   5.923  0.00  0.00    -0.321 N 
HETATM    7  N   UNK N   1      21.758  15.987   4.785  0.00  0.00    -0.240 N 
HETATM    8  O   UNK N   1      22.215  15.908   6.968  0.00  0.00    -0.245 OA
ENDROOT
BRANCH   6   9
HETATM    9  C   UNK N   1      21.738  13.378   7.115  0.00  0.00     0.166 C 
BRANCH   9  10
HETATM   10  C   UNK N   1      22.601  13.225   8.288  0.00  0.00    -0.037 A 
HETATM   11  C   UNK N   1      23.988  13.306   8.197  0.00  0.00     0.012 A 
HETATM   12  C   UNK N   1      24.763  12.988   9.305  0.00  0.00     0.040 A 
HETATM   13  C   UNK N   1      24.156  12.591  10.501  0.00  0.00     0.099 A 
HETATM   14  C   UNK N   1      22.740  12.550  10.600  0.00  0.00     0.101 A 
HETATM   15  C   UNK N   1      21.985  12.868   9.479  0.00  0.00     0.048 A 
BRANCH  13  16
HETATM   16  O   UNK N   1      24.938  12.244  11.532  0.00  0.00    -0.358 OA
HETATM   17  H   UNK N   1      25.439  11.453  11.535  0.00  0.00     0.217 HD
ENDBRANCH  13  16
BRANCH  14  18
HETATM   18  O   UNK N   1      22.068  12.195  11.724  0.00  0.00    -0.353 OA
HETATM   19  C   UNK N   1      20.711  11.996  11.804  0.00  0.00     0.210 C 
ENDBRANCH  14  18
ENDBRANCH   9  10
ENDBRANCH   6   9
BRANCH   2  20
HETATM   20  C   UNK N   1      23.191  11.723   5.364  0.00  0.00     0.066 C 
BRANCH  20  21
HETATM   21  C   UNK N   1      22.536  10.383   5.422  0.00  0.00    -0.056 A 
HETATM   22  C   UNK N   1      23.230   9.296   5.976  0.00  0.00     0.007 A 
HETATM   23  C   UNK N   1      22.613   8.045   6.072  0.00  0.00     0.001 A 
HETATM   24  C   UNK N   1      21.295   7.886   5.634  0.00  0.00     0.000 A 
HETATM   25  C   UNK N   1      20.598   8.976   5.100  0.00  0.00     0.001 A 
HETATM   26  C   UNK N   1      21.219  10.224   4.994  0.00  0.00     0.007 A 
ENDBRANCH  20  21
ENDBRANCH   2  20
BRANCH   3  27
HETATM   27  O   UNK N   1      24.559  13.294   3.399  0.00  0.00    -0.392 OA
HETATM   28  H   UNK N   1      25.175  12.626   3.738  0.00  0.00     0.210 HD
ENDBRANCH   3  27
BRANCH   7  29
HETATM   29  C   UNK N   1      21.161  17.298   5.004  0.00  0.00     0.192 C 
BRANCH  29  30
HETATM   30  C   UNK N   1      22.005  18.403   4.382  0.00  0.00    -0.035 A 
HETATM   31  C   UNK N   1      23.395  18.466   4.595  0.00  0.00     0.012 A 
HETATM   32  C   UNK N   1      24.190  19.365   3.896  0.00  0.00     0.040 A 
HETATM   33  C   UNK N   1      23.607  20.240   2.985  0.00  0.00     0.099 A 
HETATM   34  C   UNK N   1      22.215  20.236   2.795  0.00  0.00     0.101 A 
HETATM   35  C   UNK N   1      21.419  19.302   3.490  0.00  0.00     0.048 A 
BRANCH  33  36
HETATM   36  O   UNK N   1      24.386  21.093   2.299  0.00  0.00    -0.358 OA
HETATM   37  H   UNK N   1      24.108  21.667   1.612  0.00  0.00     0.217 HD
ENDBRANCH  33  36
BRANCH  34  38
HETATM   38  O   UNK N   1      21.665  21.129   1.939  0.00  0.00    -0.353 OA
HETATM   39  C   UNK N   1      20.807  20.766   0.926  0.00  0.00     0.210 C 
ENDBRANCH  34  38
ENDBRANCH  29  30
ENDBRANCH   7  29
BRANCH   5  40
HETATM   40  C   UNK N   1      20.610  15.624   2.566  0.00  0.00     0.181 C 
BRANCH  40  41
HETATM   41  C   UNK N   1      19.698  14.514   2.112  0.00  0.00    -0.039 A 
HETATM   42  C   UNK N   1      19.253  14.576   0.790  0.00  0.00     0.009 A 
HETATM   43  C   UNK N   1      18.492  13.542   0.242  0.00  0.00     0.001 A 
HETATM   44  C   UNK N   1      18.183  12.423   1.016  0.00  0.00     0.000 A 
HETATM   45  C   UNK N   1      18.595  12.360   2.351  0.00  0.00     0.001 A 
HETATM   46  C   UNK N   1      19.336  13.411   2.905  0.00  0.00     0.009 A 
ENDBRANCH  40  41
ENDBRANCH   5  40
TORSDOF 13
ENDMDL
MODEL 5
REMARK VINA RESULT:      -6.8      4.283      8.310
REMARK  13 active torsions:
REMARK  status: ('A' for Active; 'I' for Inactive)
REMARK    1  A    between atoms: C_24  and  C_17 
REMARK    2  A    between atoms: C_28  and  C_17 
REMARK    3  A    between atoms: C_25  and  C_20 
REMARK    4  A    between atoms: N_35  and  C_20 
REMARK    5  A    between atoms: C_26  and  C_21 
REMARK    6  A    between atoms: N_36  and  C_21 
REMARK    7  A    between atoms: C_27  and  C_22 
REMARK    8  A    between atoms: N_37  and  C_22 
REMARK    9  A    between atoms: O_38  and  C_29 
REMARK   10  A    between atoms: O_39  and  C_30 
REMARK   11  A    between atoms: C_31  and  O_40 
REMARK   12  A    between atoms: O_42  and  C_32 
REMARK   13  A    between atoms: O_43  and  C_33 
ROOT
HETATM    1  C   UNK N   1      28.391  16.754   3.418  0.00  0.00     0.176 C 
HETATM    2  C   UNK N   1      26.521  14.886   3.360  0.00  0.00     0.123 C 
HETATM    3  C   UNK N   1      27.747  15.609   2.664  0.00  0.00     0.161 C 
HETATM    4  C   UNK N   1      27.008  15.616   5.779  0.00  0.00     0.340 C 
HETATM    5  N   UNK N   1      27.381  17.392   4.204  0.00  0.00    -0.315 N 
HETATM    6  N   UNK N   1      26.485  14.766   4.843  0.00  0.00    -0.321 N 
HETATM    7  N   UNK N   1      27.352  16.915   5.518  0.00  0.00    -0.240 N 
HETATM    8  O   UNK N   1      26.980  15.254   6.960  0.00  0.00    -0.245 OA
ENDROOT
BRANCH   6   9
HETATM    9  C   UNK N   1      25.321  14.071   5.378  0.00  0.00     0.166 C 
BRANCH   9  10
HETATM   10  C   UNK N   1      24.061  14.818   5.381  0.00  0.00    -0.037 A 
HETATM   11  C   UNK N   1      23.676  15.608   6.461  0.00  0.00     0.012 A 
HETATM   12  C   UNK N   1      22.402  16.158   6.482  0.00  0.00     0.040 A 
HETATM   13  C   UNK N   1      21.513  15.922   5.428  0.00  0.00     0.099 A 
HETATM   14  C   UNK N   1      21.926  15.149   4.310  0.00  0.00     0.101 A 
HETATM   15  C   UNK N   1      23.203  14.606   4.311  0.00  0.00     0.048 A 
BRANCH  13  16
HETATM   16  O   UNK N   1      20.275  16.428   5.508  0.00  0.00    -0.358 OA
HETATM   17  H   UNK N   1      19.755  16.358   6.284  0.00  0.00     0.217 HD
ENDBRANCH  13  16
BRANCH  14  18
HETATM   18  O   UNK N   1      21.138  14.886   3.237  0.00  0.00    -0.353 OA
HETATM   19  C   UNK N   1      21.000  15.698   2.138  0.00  0.00     0.210 C 
ENDBRANCH  14  18
ENDBRANCH   9  10
ENDBRANCH   6   9
BRANCH   2  20
HETATM   20  C   UNK N   1      26.270  13.446   2.804  0.00  0.00     0.066 C 
BRANCH  20  21
HETATM   21  C   UNK N   1      25.300  13.132   1.714  0.00  0.00    -0.056 A 
HETATM   22  C   UNK N   1      25.164  11.808   1.267  0.00  0.00     0.007 A 
HETATM   23  C   UNK N   1      24.231  11.495   0.274  0.00  0.00     0.001 A 
HETATM   24  C   UNK N   1      23.419  12.502  -0.257  0.00  0.00     0.000 A 
HETATM   25  C   UNK N   1      23.543  13.817   0.203  0.00  0.00     0.001 A 
HETATM   26  C   UNK N   1      24.483  14.132   1.189  0.00  0.00     0.007 A 
ENDBRANCH  20  21
ENDBRANCH   2  20
BRANCH   3  27
HETATM   27  O   UNK N   1      28.777  14.739   2.316  0.00  0.00    -0.392 OA
HETATM   28  H   UNK N   1      29.022  13.824   2.526  0.00  0.00     0.210 HD
ENDBRANCH   3  27
BRANCH   7  29
HETATM   29  C   UNK N   1      27.429  17.823   6.654  0.00  0.00     0.192 C 
BRANCH  29  30
HETATM   30  C   UNK N   1      28.842  17.882   7.223  0.00  0.00    -0.035 A 
HETATM   31  C   UNK N   1      29.088  18.391   8.512  0.00  0.00     0.012 A 
HETATM   32  C   UNK N   1      30.343  18.290   9.099  0.00  0.00     0.040 A 
HETATM   33  C   UNK N   1      31.388  17.698   8.397  0.00  0.00     0.099 A 
HETATM   34  C   UNK N   1      31.183  17.232   7.087  0.00  0.00     0.101 A 
HETATM   35  C   UNK N   1      29.899  17.317   6.510  0.00  0.00     0.048 A 
BRANCH  33  36
HETATM   36  O   UNK N   1      32.594  17.587   8.978  0.00  0.00    -0.358 OA
HETATM   37  H   UNK N   1      33.339  17.141   8.626  0.00  0.00     0.217 HD
ENDBRANCH  33  36
BRANCH  34  38
HETATM   38  O   UNK N   1      32.226  16.704   6.405  0.00  0.00    -0.353 OA
HETATM   39  C   UNK N   1      32.630  17.167   5.174  0.00  0.00     0.210 C 
ENDBRANCH  34  38
ENDBRANCH  29  30
ENDBRANCH   7  29
BRANCH   5  40
HETATM   40  C   UNK N   1      26.961  18.753   3.832  0.00  0.00     0.181 C 
BRANCH  40  41
HETATM   41  C   UNK N   1      25.509  19.049   3.559  0.00  0.00    -0.039 A 
HETATM   42  C   UNK N   1      24.595  18.055   3.915  0.00  0.00     0.009 A 
HETATM   43  C   UNK N   1      23.221  18.274   3.803  0.00  0.00     0.001 A 
HETATM   44  C   UNK N   1      22.750  19.505   3.344  0.00  0.00     0.000 A 
HETATM   45  C   UNK N   1      23.653  20.498   2.954  0.00  0.00     0.001 A 
HETATM   46  C   UNK N   1      25.031  20.266   3.045  0.00  0.00     0.009 A 
ENDBRANCH  40  41
ENDBRANCH   5  40
TORSDOF 13
ENDMDL
MODEL 6
REMARK VINA RESULT:      -6.7      4.055      7.853
REMARK  13 active torsions:
REMARK  status: ('A' for Active; 'I' for Inactive)
REMARK    1  A    between atoms: C_24  and  C_17 
REMARK    2  A    between atoms: C_28  and  C_17 
REMARK    3  A    between atoms: C_25  and  C_20 
REMARK    4  A    between atoms: N_35  and  C_20 
REMARK    5  A    between atoms: C_26  and  C_21 
REMARK    6  A    between atoms: N_36  and  C_21 
REMARK    7  A    between atoms: C_27  and  C_22 
REMARK    8  A    between atoms: N_37  and  C_22 
REMARK    9  A    between atoms: O_38  and  C_29 
REMARK   10  A    between atoms: O_39  and  C_30 
REMARK   11  A    between atoms: C_31  and  O_40 
REMARK   12  A    between atoms: O_42  and  C_32 
REMARK   13  A    between atoms: O_43  and  C_33 
ROOT
HETATM    1  C   UNK N   1      25.511  14.943   3.252  0.00  0.00     0.176 C 
HETATM    2  C   UNK N   1      27.849  16.132   3.586  0.00  0.00     0.123 C 
HETATM    3  C   UNK N   1      27.000  14.942   2.974  0.00  0.00     0.161 C 
HETATM    4  C   UNK N   1      25.918  17.797   3.939  0.00  0.00     0.340 C 
HETATM    5  N   UNK N   1      25.298  15.551   4.528  0.00  0.00    -0.315 N 
HETATM    6  N   UNK N   1      27.232  17.479   3.722  0.00  0.00    -0.321 N 
HETATM    7  N   UNK N   1      24.993  16.912   4.422  0.00  0.00    -0.240 N 
HETATM    8  O   UNK N   1      25.602  18.990   3.884  0.00  0.00    -0.245 OA
ENDROOT
BRANCH   6   9
HETATM    9  C   UNK N   1      28.104  18.504   4.282  0.00  0.00     0.166 C 
BRANCH   9  10
HETATM   10  C   UNK N   1      28.291  18.478   5.734  0.00  0.00    -0.037 A 
HETATM   11  C   UNK N   1      27.625  19.362   6.579  0.00  0.00     0.012 A 
HETATM   12  C   UNK N   1      27.963  19.404   7.925  0.00  0.00     0.040 A 
HETATM   13  C   UNK N   1      28.964  18.565   8.428  0.00  0.00     0.099 A 
HETATM   14  C   UNK N   1      29.610  17.635   7.570  0.00  0.00     0.101 A 
HETATM   15  C   UNK N   1      29.258  17.613   6.227  0.00  0.00     0.048 A 
BRANCH  13  16
HETATM   16  O   UNK N   1      29.297  18.670   9.721  0.00  0.00    -0.358 OA
HETATM   17  H   UNK N   1      28.700  18.993  10.367  0.00  0.00     0.217 HD
ENDBRANCH  13  16
BRANCH  14  18
HETATM   18  O   UNK N   1      30.575  16.773   7.976  0.00  0.00    -0.353 OA
HETATM   19  C   UNK N   1      31.926  16.969   7.822  0.00  0.00     0.210 C 
ENDBRANCH  14  18
ENDBRANCH   9  10
ENDBRANCH   6   9
BRANCH   2  20
HETATM   20  C   UNK N   1      29.208  16.352   2.844  0.00  0.00     0.066 C 
BRANCH  20  21
HETATM   21  C   UNK N   1      30.540  16.022   3.432  0.00  0.00    -0.056 A 
HETATM   22  C   UNK N   1      31.605  16.926   3.288  0.00  0.00     0.007 A 
HETATM   23  C   UNK N   1      32.846  16.645   3.868  0.00  0.00     0.001 A 
HETATM   24  C   UNK N   1      33.016  15.473   4.609  0.00  0.00     0.000 A 
HETATM   25  C   UNK N   1      31.949  14.583   4.768  0.00  0.00     0.001 A 
HETATM   26  C   UNK N   1      30.711  14.858   4.180  0.00  0.00     0.007 A 
ENDBRANCH  20  21
ENDBRANCH   2  20
BRANCH   3  27
HETATM   27  O   UNK N   1      27.143  14.814   1.595  0.00  0.00    -0.392 OA
HETATM   28  H   UNK N   1      27.871  14.874   0.957  0.00  0.00     0.210 HD
ENDBRANCH   3  27
BRANCH   7  29
HETATM   29  C   UNK N   1      23.803  17.472   5.048  0.00  0.00     0.192 C 
BRANCH  29  30
HETATM   30  C   UNK N   1      22.654  17.588   4.054  0.00  0.00    -0.035 A 
HETATM   31  C   UNK N   1      22.078  16.444   3.470  0.00  0.00     0.012 A 
HETATM   32  C   UNK N   1      20.926  16.532   2.699  0.00  0.00     0.040 A 
HETATM   33  C   UNK N   1      20.337  17.772   2.475  0.00  0.00     0.099 A 
HETATM   34  C   UNK N   1      20.924  18.936   3.000  0.00  0.00     0.101 A 
HETATM   35  C   UNK N   1      22.079  18.834   3.803  0.00  0.00     0.048 A 
BRANCH  33  36
HETATM   36  O   UNK N   1      19.212  17.847   1.744  0.00  0.00    -0.358 OA
HETATM   37  H   UNK N   1      19.160  18.021   0.825  0.00  0.00     0.217 HD
ENDBRANCH  33  36
BRANCH  34  38
HETATM   38  O   UNK N   1      20.361  20.137   2.729  0.00  0.00    -0.353 OA
HETATM   39  C   UNK N   1      20.761  20.934   1.681  0.00  0.00     0.210 C 
ENDBRANCH  34  38
ENDBRANCH  29  30
ENDBRANCH   7  29
BRANCH   5  40
HETATM   40  C   UNK N   1      24.827  14.705   5.637  0.00  0.00     0.181 C 
BRANCH  40  41
HETATM   41  C   UNK N   1      23.442  14.114   5.601  0.00  0.00    -0.039 A 
HETATM   42  C   UNK N   1      22.544  14.573   6.568  0.00  0.00     0.009 A 
HETATM   43  C   UNK N   1      21.209  14.168   6.553  0.00  0.00     0.001 A 
HETATM   44  C   UNK N   1      20.756  13.306   5.554  0.00  0.00     0.000 A 
HETATM   45  C   UNK N   1      21.650  12.813   4.598  0.00  0.00     0.001 A 
HETATM   46  C   UNK N   1      22.994  13.202   4.630  0.00  0.00     0.009 A 
ENDBRANCH  40  41
ENDBRANCH   5  40
TORSDOF 13
ENDMDL
MODEL 7
REMARK VINA RESULT:      -6.7      2.268      7.409
REMARK  13 active torsions:
REMARK  status: ('A' for Active; 'I' for Inactive)
REMARK    1  A    between atoms: C_24  and  C_17 
REMARK    2  A    between atoms: C_28  and  C_17 
REMARK    3  A    between atoms: C_25  and  C_20 
REMARK    4  A    between atoms: N_35  and  C_20 
REMARK    5  A    between atoms: C_26  and  C_21 
REMARK    6  A    between atoms: N_36  and  C_21 
REMARK    7  A    between atoms: C_27  and  C_22 
REMARK    8  A    between atoms: N_37  and  C_22 
REMARK    9  A    between atoms: O_38  and  C_29 
REMARK   10  A    between atoms: O_39  and  C_30 
REMARK   11  A    between atoms: C_31  and  O_40 
REMARK   12  A    between atoms: O_42  and  C_32 
REMARK   13  A    between atoms: O_43  and  C_33 
ROOT
HETATM    1  C   UNK N   1      25.600  14.012   6.979  0.00  0.00     0.176 C 
HETATM    2  C   UNK N   1      25.387  15.465   4.780  0.00  0.00     0.123 C 
HETATM    3  C   UNK N   1      26.114  15.178   6.158  0.00  0.00     0.161 C 
HETATM    4  C   UNK N   1      24.332  13.142   4.446  0.00  0.00     0.340 C 
HETATM    5  N   UNK N   1      24.198  13.878   6.730  0.00  0.00    -0.315 N 
HETATM    6  N   UNK N   1      24.834  14.331   3.992  0.00  0.00    -0.321 N 
HETATM    7  N   UNK N   1      23.926  12.932   5.736  0.00  0.00    -0.240 N 
HETATM    8  O   UNK N   1      24.047  12.283   3.605  0.00  0.00    -0.245 OA
ENDROOT
BRANCH   6   9
HETATM    9  C   UNK N   1      24.199  14.706   2.734  0.00  0.00     0.166 C 
BRANCH   9  10
HETATM   10  C   UNK N   1      22.846  15.260   2.827  0.00  0.00    -0.037 A 
HETATM   11  C   UNK N   1      21.752  14.636   2.233  0.00  0.00     0.012 A 
HETATM   12  C   UNK N   1      20.526  15.287   2.209  0.00  0.00     0.040 A 
HETATM   13  C   UNK N   1      20.391  16.559   2.778  0.00  0.00     0.099 A 
HETATM   14  C   UNK N   1      21.500  17.172   3.419  0.00  0.00     0.101 A 
HETATM   15  C   UNK N   1      22.717  16.504   3.428  0.00  0.00     0.048 A 
BRANCH  13  16
HETATM   16  O   UNK N   1      19.205  17.176   2.691  0.00  0.00    -0.358 OA
HETATM   17  H   UNK N   1      19.104  18.091   2.866  0.00  0.00     0.217 HD
ENDBRANCH  13  16
BRANCH  14  18
HETATM   18  O   UNK N   1      21.455  18.391   4.012  0.00  0.00    -0.353 OA
HETATM   19  C   UNK N   1      21.444  18.612   5.368  0.00  0.00     0.210 C 
ENDBRANCH  14  18
ENDBRANCH   9  10
ENDBRANCH   6   9
BRANCH   2  20
HETATM   20  C   UNK N   1      26.270  16.292   3.788  0.00  0.00     0.066 C 
BRANCH  20  21
HETATM   21  C   UNK N   1      26.490  17.763   3.897  0.00  0.00    -0.056 A 
HETATM   22  C   UNK N   1      27.684  18.247   4.454  0.00  0.00     0.007 A 
HETATM   23  C   UNK N   1      27.918  19.624   4.526  0.00  0.00     0.001 A 
HETATM   24  C   UNK N   1      26.967  20.516   4.022  0.00  0.00     0.000 A 
HETATM   25  C   UNK N   1      25.786  20.032   3.450  0.00  0.00     0.001 A 
HETATM   26  C   UNK N   1      25.547  18.656   3.387  0.00  0.00     0.007 A 
ENDBRANCH  20  21
ENDBRANCH   2  20
BRANCH   3  27
HETATM   27  O   UNK N   1      27.488  14.992   6.029  0.00  0.00    -0.392 OA
HETATM   28  H   UNK N   1      28.186  15.315   5.439  0.00  0.00     0.210 HD
ENDBRANCH   3  27
BRANCH   7  29
HETATM   29  C   UNK N   1      22.995  11.836   5.969  0.00  0.00     0.192 C 
BRANCH  29  30
HETATM   30  C   UNK N   1      21.631  12.126   5.354  0.00  0.00    -0.035 A 
HETATM   31  C   UNK N   1      20.975  11.171   4.554  0.00  0.00     0.012 A 
HETATM   32  C   UNK N   1      19.665  11.362   4.133  0.00  0.00     0.040 A 
HETATM   33  C   UNK N   1      18.990  12.527   4.484  0.00  0.00     0.099 A 
HETATM   34  C   UNK N   1      19.641  13.521   5.235  0.00  0.00     0.101 A 
HETATM   35  C   UNK N   1      20.962  13.306   5.678  0.00  0.00     0.048 A 
BRANCH  33  36
HETATM   36  O   UNK N   1      17.717  12.695   4.090  0.00  0.00    -0.358 OA
HETATM   37  H   UNK N   1      16.975  12.818   4.650  0.00  0.00     0.217 HD
ENDBRANCH  33  36
BRANCH  34  38
HETATM   38  O   UNK N   1      18.980  14.666   5.523  0.00  0.00    -0.353 OA
HETATM   39  C   UNK N   1      19.536  15.689   6.257  0.00  0.00     0.210 C 
ENDBRANCH  34  38
ENDBRANCH  29  30
ENDBRANCH   7  29
BRANCH   5  40
HETATM   40  C   UNK N   1      23.261  14.194   7.819  0.00  0.00     0.181 C 
BRANCH  40  41
HETATM   41  C   UNK N   1      23.315  13.422   9.112  0.00  0.00    -0.039 A 
HETATM   42  C   UNK N   1      22.088  13.118   9.707  0.00  0.00     0.009 A 
HETATM   43  C   UNK N   1      22.027  12.316  10.847  0.00  0.00     0.001 A 
HETATM   44  C   UNK N   1      23.200  11.795  11.394  0.00  0.00     0.000 A 
HETATM   45  C   UNK N   1      24.438  12.117  10.828  0.00  0.00     0.001 A 
HETATM   46  C   UNK N   1      24.498  12.942   9.699  0.00  0.00     0.009 A 
ENDBRANCH  40  41
ENDBRANCH   5  40
TORSDOF 13
ENDMDL
MODEL 8
REMARK VINA RESULT:      -6.7      2.712      7.305
REMARK  13 active torsions:
REMARK  status: ('A' for Active; 'I' for Inactive)
REMARK    1  A    between atoms: C_24  and  C_17 
REMARK    2  A    between atoms: C_28  and  C_17 
REMARK    3  A    between atoms: C_25  and  C_20 
REMARK    4  A    between atoms: N_35  and  C_20 
REMARK    5  A    between atoms: C_26  and  C_21 
REMARK    6  A    between atoms: N_36  and  C_21 
REMARK    7  A    between atoms: C_27  and  C_22 
REMARK    8  A    between atoms: N_37  and  C_22 
REMARK    9  A    between atoms: O_38  and  C_29 
REMARK   10  A    between atoms: O_39  and  C_30 
REMARK   11  A    between atoms: C_31  and  O_40 
REMARK   12  A    between atoms: O_42  and  C_32 
REMARK   13  A    between atoms: O_43  and  C_33 
ROOT
HETATM    1  C   UNK N   1      25.036  14.014   6.766  0.00  0.00     0.176 C 
HETATM    2  C   UNK N   1      25.205  15.374   4.505  0.00  0.00     0.123 C 
HETATM    3  C   UNK N   1      25.676  15.156   6.002  0.00  0.00     0.161 C 
HETATM    4  C   UNK N   1      24.254  13.020   4.086  0.00  0.00     0.340 C 
HETATM    5  N   UNK N   1      23.704  13.843   6.276  0.00  0.00    -0.315 N 
HETATM    6  N   UNK N   1      24.816  14.199   3.679  0.00  0.00    -0.321 N 
HETATM    7  N   UNK N   1      23.625  12.854   5.291  0.00  0.00    -0.240 N 
HETATM    8  O   UNK N   1      24.135  12.122   3.245  0.00  0.00    -0.245 OA
ENDROOT
BRANCH   6   9
HETATM    9  C   UNK N   1      24.413  14.511   2.313  0.00  0.00     0.166 C 
BRANCH   9  10
HETATM   10  C   UNK N   1      22.983  14.740   2.092  0.00  0.00    -0.037 A 
HETATM   11  C   UNK N   1      22.247  13.980   1.187  0.00  0.00     0.012 A 
HETATM   12  C   UNK N   1      20.940  14.347   0.894  0.00  0.00     0.040 A 
HETATM   13  C   UNK N   1      20.368  15.469   1.504  0.00  0.00     0.099 A 
HETATM   14  C   UNK N   1      21.110  16.215   2.458  0.00  0.00     0.101 A 
HETATM   15  C   UNK N   1      22.416  15.833   2.733  0.00  0.00     0.048 A 
BRANCH  13  16
HETATM   16  O   UNK N   1      19.122  15.820   1.158  0.00  0.00    -0.358 OA
HETATM   17  H   UNK N   1      18.939  16.596   0.666  0.00  0.00     0.217 HD
ENDBRANCH  13  16
BRANCH  14  18
HETATM   18  O   UNK N   1      20.629  17.303   3.110  0.00  0.00    -0.353 OA
HETATM   19  C   UNK N   1      20.762  18.603   2.686  0.00  0.00     0.210 C 
ENDBRANCH  14  18
ENDBRANCH   9  10
ENDBRANCH   6   9
BRANCH   2  20
HETATM   20  C   UNK N   1      26.243  16.177   3.653  0.00  0.00     0.066 C 
BRANCH  20  21
HETATM   21  C   UNK N   1      26.408  17.658   3.722  0.00  0.00    -0.056 A 
HETATM   22  C   UNK N   1      25.325  18.493   3.406  0.00  0.00     0.007 A 
HETATM   23  C   UNK N   1      25.456  19.881   3.505  0.00  0.00     0.001 A 
HETATM   24  C   UNK N   1      26.663  20.434   3.940  0.00  0.00     0.000 A 
HETATM   25  C   UNK N   1      27.736  19.600   4.274  0.00  0.00     0.001 A 
HETATM   26  C   UNK N   1      27.609  18.213   4.165  0.00  0.00     0.007 A 
ENDBRANCH  20  21
ENDBRANCH   2  20
BRANCH   3  27
HETATM   27  O   UNK N   1      27.053  14.991   6.129  0.00  0.00    -0.392 OA
HETATM   28  H   UNK N   1      27.713  15.126   6.827  0.00  0.00     0.210 HD
ENDBRANCH   3  27
BRANCH   7  29
HETATM   29  C   UNK N   1      22.680  11.751   5.400  0.00  0.00     0.192 C 
BRANCH  29  30
HETATM   30  C   UNK N   1      21.422  12.015   4.582  0.00  0.00    -0.035 A 
HETATM   31  C   UNK N   1      21.116  11.241   3.446  0.00  0.00     0.012 A 
HETATM   32  C   UNK N   1      19.892  11.364   2.800  0.00  0.00     0.040 A 
HETATM   33  C   UNK N   1      18.956  12.284   3.263  0.00  0.00     0.099 A 
HETATM   34  C   UNK N   1      19.259  13.107   4.360  0.00  0.00     0.101 A 
HETATM   35  C   UNK N   1      20.494  12.956   5.025  0.00  0.00     0.048 A 
BRANCH  33  36
HETATM   36  O   UNK N   1      17.767  12.383   2.644  0.00  0.00    -0.358 OA
HETATM   37  H   UNK N   1      17.047  12.919   2.912  0.00  0.00     0.217 HD
ENDBRANCH  33  36
BRANCH  34  38
HETATM   38  O   UNK N   1      18.351  14.027   4.763  0.00  0.00    -0.353 OA
HETATM   39  C   UNK N   1      18.687  15.325   5.074  0.00  0.00     0.210 C 
ENDBRANCH  34  38
ENDBRANCH  29  30
ENDBRANCH   7  29
BRANCH   5  40
HETATM   40  C   UNK N   1      22.582  14.185   7.165  0.00  0.00     0.181 C 
BRANCH  40  41
HETATM   41  C   UNK N   1      21.918  15.533   7.062  0.00  0.00    -0.039 A 
HETATM   42  C   UNK N   1      20.887  15.790   7.969  0.00  0.00     0.009 A 
HETATM   43  C   UNK N   1      20.282  17.046   8.026  0.00  0.00     0.001 A 
HETATM   44  C   UNK N   1      20.718  18.066   7.179  0.00  0.00     0.000 A 
HETATM   45  C   UNK N   1      21.726  17.814   6.243  0.00  0.00     0.001 A 
HETATM   46  C   UNK N   1      22.315  16.546   6.172  0.00  0.00     0.009 A 
ENDBRANCH  40  41
ENDBRANCH   5  40
TORSDOF 13
ENDMDL
MODEL 9
REMARK VINA RESULT:      -6.6     14.932     17.926
REMARK  13 active torsions:
REMARK  status: ('A' for Active; 'I' for Inactive)
REMARK    1  A    between atoms: C_24  and  C_17 
REMARK    2  A    between atoms: C_28  and  C_17 
REMARK    3  A    between atoms: C_25  and  C_20 
REMARK    4  A    between atoms: N_35  and  C_20 
REMARK    5  A    between atoms: C_26  and  C_21 
REMARK    6  A    between atoms: N_36  and  C_21 
REMARK    7  A    between atoms: C_27  and  C_22 
REMARK    8  A    between atoms: N_37  and  C_22 
REMARK    9  A    between atoms: O_38  and  C_29 
REMARK   10  A    between atoms: O_39  and  C_30 
REMARK   11  A    between atoms: C_31  and  O_40 
REMARK   12  A    between atoms: O_42  and  C_32 
REMARK   13  A    between atoms: O_43  and  C_33 
ROOT
HETATM    1  C   UNK N   1      29.468  25.881  -9.580  0.00  0.00     0.176 C 
HETATM    2  C   UNK N   1      30.718  24.799  -7.517  0.00  0.00     0.123 C 
HETATM    3  C   UNK N   1      30.365  24.776  -9.061  0.00  0.00     0.161 C 
HETATM    4  C   UNK N   1      30.202  27.281  -7.073  0.00  0.00     0.340 C 
HETATM    5  N   UNK N   1      28.581  26.264  -8.526  0.00  0.00    -0.315 N 
HETATM    6  N   UNK N   1      30.849  26.103  -6.813  0.00  0.00    -0.321 N 
HETATM    7  N   UNK N   1      29.053  27.369  -7.811  0.00  0.00    -0.240 N 
HETATM    8  O   UNK N   1      30.563  28.282  -6.445  0.00  0.00    -0.245 OA
ENDROOT
BRANCH   6   9
HETATM    9  C   UNK N   1      31.189  26.010  -5.398  0.00  0.00     0.166 C 
BRANCH   9  10
HETATM   10  C   UNK N   1      30.326  25.159  -4.576  0.00  0.00    -0.037 A 
HETATM   11  C   UNK N   1      28.957  25.386  -4.467  0.00  0.00     0.012 A 
HETATM   12  C   UNK N   1      28.216  24.656  -3.547  0.00  0.00     0.040 A 
HETATM   13  C   UNK N   1      28.840  23.701  -2.736  0.00  0.00     0.099 A 
HETATM   14  C   UNK N   1      30.230  23.445  -2.881  0.00  0.00     0.101 A 
HETATM   15  C   UNK N   1      30.951  24.189  -3.805  0.00  0.00     0.048 A 
BRANCH  13  16
HETATM   16  O   UNK N   1      28.102  23.053  -1.826  0.00  0.00    -0.358 OA
HETATM   17  H   UNK N   1      27.288  23.392  -1.509  0.00  0.00     0.217 HD
ENDBRANCH  13  16
BRANCH  14  18
HETATM   18  O   UNK N   1      30.912  22.526  -2.152  0.00  0.00    -0.353 OA
HETATM   19  C   UNK N   1      31.915  21.722  -2.634  0.00  0.00     0.210 C 
ENDBRANCH  14  18
ENDBRANCH   9  10
ENDBRANCH   6   9
BRANCH   2  20
HETATM   20  C   UNK N   1      32.014  23.992  -7.178  0.00  0.00     0.066 C 
BRANCH  20  21
HETATM   21  C   UNK N   1      32.013  22.583  -6.688  0.00  0.00    -0.056 A 
HETATM   22  C   UNK N   1      30.795  21.903  -6.533  0.00  0.00     0.007 A 
HETATM   23  C   UNK N   1      30.783  20.570  -6.112  0.00  0.00     0.001 A 
HETATM   24  C   UNK N   1      31.990  19.910  -5.867  0.00  0.00     0.000 A 
HETATM   25  C   UNK N   1      33.205  20.582  -6.040  0.00  0.00     0.001 A 
HETATM   26  C   UNK N   1      33.216  21.918  -6.451  0.00  0.00     0.007 A 
ENDBRANCH  20  21
ENDBRANCH   2  20
BRANCH   3  27
HETATM   27  O   UNK N   1      31.489  24.764  -9.884  0.00  0.00    -0.392 OA
HETATM   28  H   UNK N   1      31.868  25.346 -10.561  0.00  0.00     0.210 HD
ENDBRANCH   3  27
BRANCH   7  29
HETATM   29  C   UNK N   1      28.227  28.553  -7.614  0.00  0.00     0.192 C 
BRANCH  29  30
HETATM   30  C   UNK N   1      27.392  28.441  -6.344  0.00  0.00    -0.035 A 
HETATM   31  C   UNK N   1      26.370  27.478  -6.226  0.00  0.00     0.012 A 
HETATM   32  C   UNK N   1      25.725  27.259  -5.016  0.00  0.00     0.040 A 
HETATM   33  C   UNK N   1      26.069  28.018  -3.901  0.00  0.00     0.099 A 
HETATM   34  C   UNK N   1      27.046  29.023  -4.007  0.00  0.00     0.101 A 
HETATM   35  C   UNK N   1      27.714  29.220  -5.233  0.00  0.00     0.048 A 
BRANCH  33  36
HETATM   36  O   UNK N   1      25.453  27.786  -2.730  0.00  0.00    -0.358 OA
HETATM   37  H   UNK N   1      25.289  28.417  -2.057  0.00  0.00     0.217 HD
ENDBRANCH  33  36
BRANCH  34  38
HETATM   38  O   UNK N   1      27.331  29.780  -2.922  0.00  0.00    -0.353 OA
HETATM   39  C   UNK N   1      28.436  29.569  -2.129  0.00  0.00     0.210 C 
ENDBRANCH  34  38
ENDBRANCH  29  30
ENDBRANCH   7  29
BRANCH   5  40
HETATM   40  C   UNK N   1      27.150  25.948  -8.667  0.00  0.00     0.181 C 
BRANCH  40  41
HETATM   41  C   UNK N   1      26.633  24.588  -8.275  0.00  0.00    -0.039 A 
HETATM   42  C   UNK N   1      27.186  24.022  -7.123  0.00  0.00     0.009 A 
HETATM   43  C   UNK N   1      26.700  22.815  -6.617  0.00  0.00     0.001 A 
HETATM   44  C   UNK N   1      25.640  22.171  -7.256  0.00  0.00     0.000 A 
HETATM   45  C   UNK N   1      25.098  22.710  -8.427  0.00  0.00     0.001 A 
HETATM   46  C   UNK N   1      25.604  23.907  -8.946  0.00  0.00     0.009 A 
ENDBRANCH  40  41
ENDBRANCH   5  40
TORSDOF 13
ENDMDL
