REMARK  5 active torsions:
REMARK  status: ('A' for Active; 'I' for Inactive)
REMARK    1  A    between atoms: N_1  and  C_2 
REMARK    2  A    between atoms: C_2  and  C_3 
REMARK    3  A    between atoms: C_2  and  C_6 
REMARK    4  A    between atoms: C_3  and  O_5 
REMARK    5  A    between atoms: C_9  and  O_10 
ROOT
HETATM    1  C   UNK N   1       0.893   1.217  -0.000  0.00  0.00    -0.026 A 
HETATM    2  C   UNK N   1       2.170   0.634   0.000  0.00  0.00     0.012 A 
HETATM    3  C   UNK N   1       2.307  -0.760   0.000  0.00  0.00     0.037 A 
HETATM    4  C   UNK N   1       1.170  -1.575  -0.000  0.00  0.00     0.065 A 
HETATM    5  C   UNK N   1      -0.100  -1.000  -0.000  0.00  0.00     0.037 A 
HETATM    6  C   UNK N   1      -0.236   0.388  -0.000  0.00  0.00     0.012 A 
ENDROOT
BRANCH   1   7
HETATM    7  C   UNK N   1       0.733   2.716  -0.000  0.00  0.00     0.207 C 
BRANCH   7   8
HETATM    8  N   UNK N   1       1.935   3.537   0.000  0.00  0.00    -0.414 N 
HETATM    9  H   UNK N   1       2.854   3.096   0.000  0.00  0.00     0.151 HD
HETATM   10  H   UNK N   1       1.858   4.554   0.000  0.00  0.00     0.151 HD
ENDBRANCH   7   8
BRANCH   7  11
HETATM   11  C   UNK N   1      -0.597   3.427   0.000  0.00  0.00     0.167 C 
HETATM   12  O   UNK N   1      -0.635   4.647   0.000  0.00  0.00    -0.648 OA
BRANCH  11  13
HETATM   13  O   UNK N   1      -1.749   2.730   0.000  0.00  0.00    -0.775 OA
HETATM   14  H   UNK N   1      -2.569   3.182   0.000  0.00  0.00     0.167 HD
ENDBRANCH  11  13
ENDBRANCH   7  11
ENDBRANCH   1   7
BRANCH   4  15
HETATM   15  O   UNK N   1       1.298  -2.911  -0.000  0.00  0.00    -0.361 OA
HETATM   16  H   UNK N   1       0.535  -3.455  -0.000  0.00  0.00     0.217 HD
ENDBRANCH   4  15
TORSDOF 5
