REMARK  6 active torsions:
REMARK  status: ('A' for Active; 'I' for Inactive)
REMARK    1  A    between atoms: C_2  and  N_1 
REMARK    2  A    between atoms: C_2  and  C_3 
REMARK    3  A    between atoms: C_2  and  C_6 
REMARK    4  A    between atoms: C_3  and  S_4 
REMARK    5  A    between atoms: S_4  and  S_5 
REMARK    6  A    between atoms: C_6  and  O_7 
ROOT
HETATM    1  C   UNK N   1       2.430   1.494  -0.000  0.00  0.00     0.183 C 
ENDROOT
BRANCH   1   2
HETATM    2  N   UNK N   1       3.006   2.839   0.000  0.00  0.00    -0.417 N 
HETATM    3  H   UNK N   1       4.018   2.961   0.000  0.00  0.00     0.150 HD
HETATM    4  H   UNK N   1       2.394   3.655   0.000  0.00  0.00     0.150 HD
ENDBRANCH   1   2
BRANCH   1   5
HETATM    5  C   UNK N   1       0.874   1.428   0.000  0.00  0.00     0.121 C 
BRANCH   5   6
HETATM    6  S   UNK N   1       0.337  -0.327  -0.000  0.00  0.00    -0.098 SA
BRANCH   6   7
HETATM    7  S   UNK N   1      -1.786  -0.254   0.000  0.00  0.00    -0.111 SA
HETATM    8  H   UNK N   1      -2.425   0.947   0.000  0.00  0.00     0.114 HD
ENDBRANCH   6   7
ENDBRANCH   5   6
ENDBRANCH   1   5
BRANCH   1   9
HETATM    9  C   UNK N   1       3.414   0.294   0.000  0.00  0.00     0.163 C 
HETATM   10  O   UNK N   1       3.002  -0.863  -0.000  0.00  0.00    -0.648 OA
BRANCH   9  11
HETATM   11  O   UNK N   1       4.744   0.483   0.000  0.00  0.00    -0.775 OA
HETATM   12  H   UNK N   1       5.322  -0.255   0.000  0.00  0.00     0.167 HD
ENDBRANCH   9  11
ENDBRANCH   1   9
TORSDOF 6
