MODEL 1
REMARK VINA RESULT:      -9.0      0.000      0.000
REMARK  14 active torsions:
REMARK  status: ('A' for Active; 'I' for Inactive)
REMARK    1  A    between atoms: O_1  and  P_2 
REMARK    2  A    between atoms: P_2  and  O_3 
REMARK    3  A    between atoms: P_2  and  C_5 
REMARK    4  A    between atoms: C_5  and  C_8 
REMARK    5  A    between atoms: C_11  and  C_12 
REMARK    6  A    between atoms: C_12  and  C_13 
REMARK    7  A    between atoms: C_13  and  C_14 
REMARK    8  A    between atoms: C_13  and  N_28 
REMARK    9  A    between atoms: C_13  and  C_39 
REMARK   10  A    between atoms: C_14  and  C_15 
REMARK   11  A    between atoms: C_18  and  C_21 
REMARK   12  A    between atoms: C_21  and  P_24 
REMARK   13  A    between atoms: P_24  and  O_25 
REMARK   14  A    between atoms: P_24  and  O_26 
ROOT
HETATM    1  C   UNK N   1      27.351  16.692   4.947  0.00  0.00     0.090 C 
ENDROOT
BRANCH   1   2
HETATM    2  C   UNK N   1      26.166  16.715   3.849  0.00  0.00     0.077 C 
BRANCH   2   3
HETATM    3  C   UNK N   1      24.783  16.762   4.546  0.00  0.00    -0.055 C 
HETATM    4  C   UNK N   1      23.830  15.800   4.161  0.00  0.00     0.008 C 
HETATM    5  C   UNK N   1      22.513  16.127   3.941  0.00  0.00     0.014 C 
HETATM    6  C   UNK N   1      22.107  17.440   4.120  0.00  0.00     0.025 C 
HETATM    7  C   UNK N   1      22.976  18.358   4.750  0.00  0.00     0.014 C 
HETATM    8  C   UNK N   1      24.321  18.013   4.978  0.00  0.00     0.008 C 
BRANCH   6   9
HETATM    9  C   UNK N   1      20.976  17.923   3.250  0.00  0.00     0.364 C 
HETATM   10  F   UNK N   1      21.025  17.244   2.047  0.00  0.00    -0.187 F 
HETATM   11  F   UNK N   1      19.744  17.647   3.821  0.00  0.00    -0.187 F 
BRANCH   9  12
HETATM   12  P   UNK N   1      21.108  19.705   2.861  0.00  0.00     0.315 P 
HETATM   13  O   UNK N   1      20.463  20.550   3.987  0.00  0.00    -0.649 OA
BRANCH  12  14
HETATM   14  O   UNK N   1      20.284  20.158   1.403  0.00  0.00    -0.325 OA
HETATM   15  H   UNK N   1      19.939  19.624   0.670  0.00  0.00     0.220 HD
ENDBRANCH  12  14
BRANCH  12  16
HETATM   16  O   UNK N   1      22.746  20.264   2.735  0.00  0.00    -0.325 OA
HETATM   17  H   UNK N   1      23.658  19.991   2.919  0.00  0.00     0.220 HD
ENDBRANCH  12  16
ENDBRANCH   9  12
ENDBRANCH   6   9
ENDBRANCH   2   3
ENDBRANCH   1   2
BRANCH   1  18
HETATM   18  C   UNK N   1      28.667  16.147   4.515  0.00  0.00     0.077 C 
BRANCH  18  19
HETATM   19  C   UNK N   1      29.817  16.507   5.221  0.00  0.00    -0.055 A 
HETATM   20  C   UNK N   1      30.052  15.905   6.437  0.00  0.00     0.008 A 
HETATM   21  C   UNK N   1      31.286  16.050   7.004  0.00  0.00     0.014 A 
HETATM   22  C   UNK N   1      32.270  16.790   6.337  0.00  0.00     0.025 A 
HETATM   23  C   UNK N   1      31.997  17.429   5.125  0.00  0.00     0.014 A 
HETATM   24  C   UNK N   1      30.757  17.274   4.558  0.00  0.00     0.008 A 
BRANCH  22  25
HETATM   25  C   UNK N   1      33.651  16.687   6.808  0.00  0.00     0.364 C 
HETATM   26  F   UNK N   1      33.931  15.402   7.235  0.00  0.00    -0.187 F 
HETATM   27  F   UNK N   1      34.514  17.049   5.793  0.00  0.00    -0.187 F 
BRANCH  25  28
HETATM   28  P   UNK N   1      33.742  17.859   8.264  0.00  0.00     0.315 P 
HETATM   29  O   UNK N   1      32.427  18.675   8.412  0.00  0.00    -0.649 OA
BRANCH  28  30
HETATM   30  O   UNK N   1      34.991  19.053   8.215  0.00  0.00    -0.325 OA
HETATM   31  H   UNK N   1      35.923  18.794   8.278  0.00  0.00     0.220 HD
ENDBRANCH  28  30
BRANCH  28  32
HETATM   32  O   UNK N   1      33.869  17.038   9.791  0.00  0.00    -0.325 OA
HETATM   33  H   UNK N   1      34.340  17.074  10.638  0.00  0.00     0.220 HD
ENDBRANCH  28  32
ENDBRANCH  25  28
ENDBRANCH  22  25
ENDBRANCH  18  19
ENDBRANCH   1  18
BRANCH   1  34
HETATM   34  N   UNK N   1      26.933  15.547   5.905  0.00  0.00    -0.261 N 
HETATM   35  N   UNK N   1      26.320  15.771   7.052  0.00  0.00    -0.238 N 
HETATM   36  N   UNK N   1      25.577  14.734   7.447  0.00  0.00    -0.284 N 
ATOM     37  HN  UNK N   1      26.406  16.641   7.579  1.00  0.00     0.208 HD
HETATM   38  C   UNK N   1      25.738  13.784   6.538  0.00  0.00     0.077 A 
ATOM     39  HN  UNK N   1      24.997  14.684   8.284  1.00  0.00     0.188 HD
HETATM   40  C   UNK N   1      26.609  14.230   5.590  0.00  0.00     0.081 A 
HETATM   41  C   UNK N   1      25.072  12.560   6.459  0.00  0.00     0.033 A 
HETATM   42  C   UNK N   1      26.902  13.415   4.485  0.00  0.00     0.034 A 
HETATM   43  C   UNK N   1      26.289  12.152   4.388  0.00  0.00     0.002 A 
HETATM   44  C   UNK N   1      25.358  11.735   5.361  0.00  0.00     0.002 A 
ENDBRANCH   1  34
BRANCH   1  45
HETATM   45  C   UNK N   1      27.784  18.268   5.056  0.00  0.00    -0.024 A 
HETATM   46  C   UNK N   1      27.737  18.853   6.359  0.00  0.00     0.013 A 
HETATM   47  C   UNK N   1      27.329  20.150   6.638  0.00  0.00     0.046 A 
HETATM   48  C   UNK N   1      26.883  20.957   5.614  0.00  0.00     0.154 A 
HETATM   49  F   UNK N   1      26.347  22.170   5.903  0.00  0.00    -0.203 F 
HETATM   50  C   UNK N   1      26.966  20.502   4.297  0.00  0.00     0.155 A 
HETATM   51  F   UNK N   1      26.505  21.289   3.296  0.00  0.00    -0.203 F 
HETATM   52  C   UNK N   1      27.414  19.189   4.018  0.00  0.00     0.055 A 
ENDBRANCH   1  45
TORSDOF 14
ENDMDL
MODEL 2
REMARK VINA RESULT:      -8.7      3.960      5.789
REMARK  14 active torsions:
REMARK  status: ('A' for Active; 'I' for Inactive)
REMARK    1  A    between atoms: O_1  and  P_2 
REMARK    2  A    between atoms: P_2  and  O_3 
REMARK    3  A    between atoms: P_2  and  C_5 
REMARK    4  A    between atoms: C_5  and  C_8 
REMARK    5  A    between atoms: C_11  and  C_12 
REMARK    6  A    between atoms: C_12  and  C_13 
REMARK    7  A    between atoms: C_13  and  C_14 
REMARK    8  A    between atoms: C_13  and  N_28 
REMARK    9  A    between atoms: C_13  and  C_39 
REMARK   10  A    between atoms: C_14  and  C_15 
REMARK   11  A    between atoms: C_18  and  C_21 
REMARK   12  A    between atoms: C_21  and  P_24 
REMARK   13  A    between atoms: P_24  and  O_25 
REMARK   14  A    between atoms: P_24  and  O_26 
ROOT
HETATM    1  C   UNK N   1      27.807  16.180   5.067  0.00  0.00     0.090 C 
ENDROOT
BRANCH   1   2
HETATM    2  C   UNK N   1      27.562  14.869   5.977  0.00  0.00     0.077 C 
BRANCH   2   3
HETATM    3  C   UNK N   1      26.095  14.386   5.848  0.00  0.00    -0.055 C 
HETATM    4  C   UNK N   1      25.088  15.232   6.350  0.00  0.00     0.008 C 
HETATM    5  C   UNK N   1      24.034  14.749   7.089  0.00  0.00     0.014 C 
HETATM    6  C   UNK N   1      23.951  13.388   7.333  0.00  0.00     0.025 C 
HETATM    7  C   UNK N   1      24.795  12.501   6.628  0.00  0.00     0.014 C 
HETATM    8  C   UNK N   1      25.868  13.003   5.869  0.00  0.00     0.008 C 
BRANCH   6   9
HETATM    9  C   UNK N   1      23.305  12.970   8.628  0.00  0.00     0.364 C 
HETATM   10  F   UNK N   1      23.403  11.595   8.745  0.00  0.00    -0.187 F 
HETATM   11  F   UNK N   1      23.960  13.516   9.721  0.00  0.00    -0.187 F 
BRANCH   9  12
HETATM   12  P   UNK N   1      21.525  13.383   8.685  0.00  0.00     0.315 P 
HETATM   13  O   UNK N   1      20.824  12.581   9.809  0.00  0.00    -0.649 OA
BRANCH  12  14
HETATM   14  O   UNK N   1      20.675  12.987   7.226  0.00  0.00    -0.325 OA
HETATM   15  H   UNK N   1      20.121  13.527   6.641  0.00  0.00     0.220 HD
ENDBRANCH  12  14
BRANCH  12  16
HETATM   16  O   UNK N   1      21.215  15.053   9.037  0.00  0.00    -0.325 OA
HETATM   17  H   UNK N   1      21.400  15.737   9.700  0.00  0.00     0.220 HD
ENDBRANCH  12  16
ENDBRANCH   9  12
ENDBRANCH   6   9
ENDBRANCH   2   3
ENDBRANCH   1   2
BRANCH   1  18
HETATM   18  C   UNK N   1      29.216  16.622   4.877  0.00  0.00     0.077 C 
BRANCH  18  19
HETATM   19  C   UNK N   1      30.193  16.177   5.770  0.00  0.00    -0.055 A 
HETATM   20  C   UNK N   1      30.648  14.883   5.648  0.00  0.00     0.008 A 
HETATM   21  C   UNK N   1      31.775  14.525   6.334  0.00  0.00     0.014 A 
HETATM   22  C   UNK N   1      32.433  15.475   7.125  0.00  0.00     0.025 A 
HETATM   23  C   UNK N   1      31.930  16.770   7.269  0.00  0.00     0.014 A 
HETATM   24  C   UNK N   1      30.802  17.125   6.572  0.00  0.00     0.008 A 
BRANCH  22  25
HETATM   25  C   UNK N   1      33.779  15.162   7.604  0.00  0.00     0.364 C 
HETATM   26  F   UNK N   1      34.099  13.841   7.346  0.00  0.00    -0.187 F 
HETATM   27  F   UNK N   1      34.693  16.000   6.997  0.00  0.00    -0.187 F 
BRANCH  25  28
HETATM   28  P   UNK N   1      33.694  15.431   9.454  0.00  0.00     0.315 P 
HETATM   29  O   UNK N   1      34.736  14.550  10.199  0.00  0.00    -0.649 OA
BRANCH  28  30
HETATM   30  O   UNK N   1      32.188  15.060  10.218  0.00  0.00    -0.325 OA
HETATM   31  H   UNK N   1      31.905  14.139  10.330  0.00  0.00     0.220 HD
ENDBRANCH  28  30
BRANCH  28  32
HETATM   32  O   UNK N   1      34.132  17.045   9.928  0.00  0.00    -0.325 OA
HETATM   33  H   UNK N   1      33.948  17.975   9.724  0.00  0.00     0.220 HD
ENDBRANCH  28  32
ENDBRANCH  25  28
ENDBRANCH  22  25
ENDBRANCH  18  19
ENDBRANCH   1  18
BRANCH   1  34
HETATM   34  N   UNK N   1      27.324  17.343   5.972  0.00  0.00    -0.261 N 
HETATM   35  N   UNK N   1      27.566  17.379   7.268  0.00  0.00    -0.238 N 
HETATM   36  N   UNK N   1      27.585  18.624   7.752  0.00  0.00    -0.284 N 
ATOM     37  HN  UNK N   1      27.722  16.547   7.838  1.00  0.00     0.208 HD
HETATM   38  C   UNK N   1      27.310  19.429   6.736  0.00  0.00     0.077 A 
ATOM     39  HN  UNK N   1      27.774  18.900   8.715  1.00  0.00     0.188 HD
HETATM   40  C   UNK N   1      27.095  18.672   5.625  0.00  0.00     0.081 A 
HETATM   41  C   UNK N   1      27.331  20.825   6.728  0.00  0.00     0.033 A 
HETATM   42  C   UNK N   1      26.835  19.305   4.399  0.00  0.00     0.034 A 
HETATM   43  C   UNK N   1      26.801  20.711   4.352  0.00  0.00     0.002 A 
HETATM   44  C   UNK N   1      27.070  21.470   5.509  0.00  0.00     0.002 A 
ENDBRANCH   1  34
BRANCH   1  45
HETATM   45  C   UNK N   1      27.535  15.632   3.547  0.00  0.00    -0.024 A 
HETATM   46  C   UNK N   1      26.265  15.948   2.974  0.00  0.00     0.013 A 
HETATM   47  C   UNK N   1      25.522  15.101   2.163  0.00  0.00     0.046 A 
HETATM   48  C   UNK N   1      25.985  13.830   1.903  0.00  0.00     0.154 A 
HETATM   49  F   UNK N   1      25.193  12.953   1.235  0.00  0.00    -0.203 F 
HETATM   50  C   UNK N   1      27.252  13.457   2.354  0.00  0.00     0.155 A 
HETATM   51  F   UNK N   1      27.695  12.199   2.115  0.00  0.00    -0.203 F 
HETATM   52  C   UNK N   1      28.019  14.339   3.152  0.00  0.00     0.055 A 
ENDBRANCH   1  45
TORSDOF 14
ENDMDL
MODEL 3
REMARK VINA RESULT:      -8.7      3.054      9.688
REMARK  14 active torsions:
REMARK  status: ('A' for Active; 'I' for Inactive)
REMARK    1  A    between atoms: O_1  and  P_2 
REMARK    2  A    between atoms: P_2  and  O_3 
REMARK    3  A    between atoms: P_2  and  C_5 
REMARK    4  A    between atoms: C_5  and  C_8 
REMARK    5  A    between atoms: C_11  and  C_12 
REMARK    6  A    between atoms: C_12  and  C_13 
REMARK    7  A    between atoms: C_13  and  C_14 
REMARK    8  A    between atoms: C_13  and  N_28 
REMARK    9  A    between atoms: C_13  and  C_39 
REMARK   10  A    between atoms: C_14  and  C_15 
REMARK   11  A    between atoms: C_18  and  C_21 
REMARK   12  A    between atoms: C_21  and  P_24 
REMARK   13  A    between atoms: P_24  and  O_25 
REMARK   14  A    between atoms: P_24  and  O_26 
ROOT
HETATM    1  C   UNK N   1      25.954  15.434   5.530  0.00  0.00     0.090 C 
ENDROOT
BRANCH   1   2
HETATM    2  C   UNK N   1      26.151  14.885   4.024  0.00  0.00     0.077 C 
BRANCH   2   3
HETATM    3  C   UNK N   1      27.658  14.769   3.682  0.00  0.00    -0.055 C 
HETATM    4  C   UNK N   1      28.503  14.216   4.663  0.00  0.00     0.008 C 
HETATM    5  C   UNK N   1      29.729  14.762   4.958  0.00  0.00     0.014 C 
HETATM    6  C   UNK N   1      30.153  15.881   4.260  0.00  0.00     0.025 C 
HETATM    7  C   UNK N   1      29.447  16.293   3.108  0.00  0.00     0.014 C 
HETATM    8  C   UNK N   1      28.196  15.724   2.808  0.00  0.00     0.008 C 
BRANCH   6   9
HETATM    9  C   UNK N   1      31.046  16.843   5.000  0.00  0.00     0.364 C 
HETATM   10  F   UNK N   1      30.718  18.131   4.617  0.00  0.00    -0.187 F 
HETATM   11  F   UNK N   1      30.851  16.765   6.369  0.00  0.00    -0.187 F 
BRANCH   9  12
HETATM   12  P   UNK N   1      32.814  16.604   4.598  0.00  0.00     0.315 P 
HETATM   13  O   UNK N   1      33.286  15.205   5.065  0.00  0.00    -0.649 OA
BRANCH  12  14
HETATM   14  O   UNK N   1      33.863  17.740   5.384  0.00  0.00    -0.325 OA
HETATM   15  H   UNK N   1      33.795  18.187   6.242  0.00  0.00     0.220 HD
ENDBRANCH  12  14
BRANCH  12  16
HETATM   16  O   UNK N   1      33.150  16.668   2.897  0.00  0.00    -0.325 OA
HETATM   17  H   UNK N   1      33.884  16.610   2.265  0.00  0.00     0.220 HD
ENDBRANCH  12  16
ENDBRANCH   9  12
ENDBRANCH   6   9
ENDBRANCH   2   3
ENDBRANCH   1   2
BRANCH   1  18
HETATM   18  C   UNK N   1      24.628  16.018   5.872  0.00  0.00     0.077 C 
BRANCH  18  19
HETATM   19  C   UNK N   1      23.612  16.007   4.913  0.00  0.00    -0.055 A 
HETATM   20  C   UNK N   1      22.758  14.927   4.879  0.00  0.00     0.008 A 
HETATM   21  C   UNK N   1      21.619  15.026   4.132  0.00  0.00     0.014 A 
HETATM   22  C   UNK N   1      21.349  16.211   3.438  0.00  0.00     0.025 A 
HETATM   23  C   UNK N   1      22.249  17.279   3.451  0.00  0.00     0.014 A 
HETATM   24  C   UNK N   1      23.389  17.175   4.208  0.00  0.00     0.008 A 
BRANCH  22  25
HETATM   25  C   UNK N   1      20.004  16.404   2.896  0.00  0.00     0.364 C 
HETATM   26  F   UNK N   1      19.123  15.476   3.421  0.00  0.00    -0.187 F 
HETATM   27  F   UNK N   1      19.570  17.684   3.178  0.00  0.00    -0.187 F 
BRANCH  25  28
HETATM   28  P   UNK N   1      20.191  16.111   1.057  0.00  0.00     0.315 P 
HETATM   29  O   UNK N   1      21.474  15.291   0.746  0.00  0.00    -0.649 OA
BRANCH  28  30
HETATM   30  O   UNK N   1      20.322  17.518   0.062  0.00  0.00    -0.325 OA
HETATM   31  H   UNK N   1      19.588  18.149   0.001  0.00  0.00     0.220 HD
ENDBRANCH  28  30
BRANCH  28  32
HETATM   32  O   UNK N   1      18.923  15.122   0.394  0.00  0.00    -0.325 OA
HETATM   33  H   UNK N   1      18.229  14.497   0.655  0.00  0.00     0.220 HD
ENDBRANCH  28  32
ENDBRANCH  25  28
ENDBRANCH  22  25
ENDBRANCH  18  19
ENDBRANCH   1  18
BRANCH   1  34
HETATM   34  N   UNK N   1      26.789  16.741   5.550  0.00  0.00    -0.261 N 
HETATM   35  N   UNK N   1      26.511  17.771   4.773  0.00  0.00    -0.238 N 
HETATM   36  N   UNK N   1      26.935  18.929   5.287  0.00  0.00    -0.284 N 
ATOM     37  HN  UNK N   1      26.027  17.691   3.879  1.00  0.00     0.208 HD
HETATM   38  C   UNK N   1      27.542  18.638   6.428  0.00  0.00     0.077 A 
ATOM     39  HN  UNK N   1      26.813  19.856   4.881  1.00  0.00     0.188 HD
HETATM   40  C   UNK N   1      27.516  17.288   6.605  0.00  0.00     0.081 A 
HETATM   41  C   UNK N   1      28.045  19.531   7.376  0.00  0.00     0.033 A 
HETATM   42  C   UNK N   1      28.056  16.735   7.776  0.00  0.00     0.034 A 
HETATM   43  C   UNK N   1      28.615  17.594   8.740  0.00  0.00     0.002 A 
HETATM   44  C   UNK N   1      28.590  18.991   8.551  0.00  0.00     0.002 A 
ENDBRANCH   1  34
BRANCH   1  45
HETATM   45  C   UNK N   1      25.830  14.060   6.412  0.00  0.00    -0.024 A 
HETATM   46  C   UNK N   1      25.396  12.891   5.714  0.00  0.00     0.013 A 
HETATM   47  C   UNK N   1      24.552  11.919   6.231  0.00  0.00     0.046 A 
HETATM   48  C   UNK N   1      24.031  12.075   7.496  0.00  0.00     0.154 A 
HETATM   49  F   UNK N   1      23.092  11.203   7.946  0.00  0.00    -0.203 F 
HETATM   50  C   UNK N   1      24.457  13.144   8.286  0.00  0.00     0.155 A 
HETATM   51  F   UNK N   1      23.926  13.306   9.522  0.00  0.00    -0.203 F 
HETATM   52  C   UNK N   1      25.345  14.114   7.763  0.00  0.00     0.055 A 
ENDBRANCH   1  45
TORSDOF 14
ENDMDL
MODEL 4
REMARK VINA RESULT:      -8.7      3.704      6.131
REMARK  14 active torsions:
REMARK  status: ('A' for Active; 'I' for Inactive)
REMARK    1  A    between atoms: O_1  and  P_2 
REMARK    2  A    between atoms: P_2  and  O_3 
REMARK    3  A    between atoms: P_2  and  C_5 
REMARK    4  A    between atoms: C_5  and  C_8 
REMARK    5  A    between atoms: C_11  and  C_12 
REMARK    6  A    between atoms: C_12  and  C_13 
REMARK    7  A    between atoms: C_13  and  C_14 
REMARK    8  A    between atoms: C_13  and  N_28 
REMARK    9  A    between atoms: C_13  and  C_39 
REMARK   10  A    between atoms: C_14  and  C_15 
REMARK   11  A    between atoms: C_18  and  C_21 
REMARK   12  A    between atoms: C_21  and  P_24 
REMARK   13  A    between atoms: P_24  and  O_25 
REMARK   14  A    between atoms: P_24  and  O_26 
ROOT
HETATM    1  C   UNK N   1      23.360  14.043   6.195  0.00  0.00     0.090 C 
ENDROOT
BRANCH   1   2
HETATM    2  C   UNK N   1      23.112  15.510   5.567  0.00  0.00     0.077 C 
BRANCH   2   3
HETATM    3  C   UNK N   1      21.886  15.494   4.620  0.00  0.00    -0.055 C 
HETATM    4  C   UNK N   1      22.135  15.587   3.237  0.00  0.00     0.008 C 
HETATM    5  C   UNK N   1      21.386  16.395   2.416  0.00  0.00     0.014 C 
HETATM    6  C   UNK N   1      20.345  17.129   2.961  0.00  0.00     0.025 C 
HETATM    7  C   UNK N   1      19.916  16.856   4.280  0.00  0.00     0.014 C 
HETATM    8  C   UNK N   1      20.685  16.023   5.112  0.00  0.00     0.008 C 
BRANCH   6   9
HETATM    9  C   UNK N   1      20.032  18.450   2.308  0.00  0.00     0.364 C 
HETATM   10  F   UNK N   1      20.257  18.332   0.948  0.00  0.00    -0.187 F 
HETATM   11  F   UNK N   1      18.699  18.792   2.470  0.00  0.00    -0.187 F 
BRANCH   9  12
HETATM   12  P   UNK N   1      21.110  19.798   2.910  0.00  0.00     0.315 P 
HETATM   13  O   UNK N   1      21.743  20.554   1.716  0.00  0.00    -0.649 OA
BRANCH  12  14
HETATM   14  O   UNK N   1      22.442  19.243   3.872  0.00  0.00    -0.325 OA
HETATM   15  H   UNK N   1      23.192  18.667   3.656  0.00  0.00     0.220 HD
ENDBRANCH  12  14
BRANCH  12  16
HETATM   16  O   UNK N   1      20.263  21.001   3.830  0.00  0.00    -0.325 OA
HETATM   17  H   UNK N   1      19.490  21.112   4.405  0.00  0.00     0.220 HD
ENDBRANCH  12  16
ENDBRANCH   9  12
ENDBRANCH   6   9
ENDBRANCH   2   3
ENDBRANCH   1   2
BRANCH   1  18
HETATM   18  C   UNK N   1      24.773  13.607   6.367  0.00  0.00     0.077 C 
BRANCH  18  19
HETATM   19  C   UNK N   1      25.801  14.520   6.118  0.00  0.00    -0.055 A 
HETATM   20  C   UNK N   1      26.210  14.705   4.816  0.00  0.00     0.008 A 
HETATM   21  C   UNK N   1      27.018  15.771   4.536  0.00  0.00     0.014 A 
HETATM   22  C   UNK N   1      27.396  16.640   5.565  0.00  0.00     0.025 A 
HETATM   23  C   UNK N   1      27.005  16.411   6.887  0.00  0.00     0.014 A 
HETATM   24  C   UNK N   1      26.189  15.342   7.160  0.00  0.00     0.008 A 
BRANCH  22  25
HETATM   25  C   UNK N   1      28.003  17.920   5.201  0.00  0.00     0.364 C 
HETATM   26  F   UNK N   1      28.872  18.351   6.187  0.00  0.00    -0.187 F 
HETATM   27  F   UNK N   1      28.674  17.789   4.001  0.00  0.00    -0.187 F 
BRANCH  25  28
HETATM   28  P   UNK N   1      26.563  19.108   5.079  0.00  0.00     0.315 P 
HETATM   29  O   UNK N   1      26.642  20.203   6.180  0.00  0.00    -0.649 OA
BRANCH  28  30
HETATM   30  O   UNK N   1      24.984  18.426   5.258  0.00  0.00    -0.325 OA
HETATM   31  H   UNK N   1      24.205  18.890   4.914  0.00  0.00     0.220 HD
ENDBRANCH  28  30
BRANCH  28  32
HETATM   32  O   UNK N   1      26.565  20.032   3.606  0.00  0.00    -0.325 OA
HETATM   33  H   UNK N   1      26.820  19.975   2.672  0.00  0.00     0.220 HD
ENDBRANCH  28  32
ENDBRANCH  25  28
ENDBRANCH  22  25
ENDBRANCH  18  19
ENDBRANCH   1  18
BRANCH   1  34
HETATM   34  N   UNK N   1      22.967  13.086   5.040  0.00  0.00    -0.261 N 
HETATM   35  N   UNK N   1      23.850  12.608   4.183  0.00  0.00    -0.238 N 
HETATM   36  N   UNK N   1      23.472  11.442   3.654  0.00  0.00    -0.284 N 
ATOM     37  HN  UNK N   1      24.726  13.079   3.951  1.00  0.00     0.208 HD
HETATM   38  C   UNK N   1      22.280  11.164   4.160  0.00  0.00     0.077 A 
ATOM     39  HN  UNK N   1      24.000  10.875   2.990  1.00  0.00     0.188 HD
HETATM   40  C   UNK N   1      21.910  12.181   4.987  0.00  0.00     0.081 A 
HETATM   41  C   UNK N   1      21.536   9.995   3.992  0.00  0.00     0.033 A 
HETATM   42  C   UNK N   1      20.697  12.092   5.688  0.00  0.00     0.034 A 
HETATM   43  C   UNK N   1      19.891  10.952   5.515  0.00  0.00     0.002 A 
HETATM   44  C   UNK N   1      20.320   9.895   4.686  0.00  0.00     0.002 A 
ENDBRANCH   1  34
BRANCH   1  45
HETATM   45  C   UNK N   1      22.993  14.249   7.777  0.00  0.00    -0.024 A 
HETATM   46  C   UNK N   1      23.481  13.255   8.680  0.00  0.00     0.013 A 
HETATM   47  C   UNK N   1      22.792  12.768   9.782  0.00  0.00     0.046 A 
HETATM   48  C   UNK N   1      21.515  13.218  10.037  0.00  0.00     0.154 A 
HETATM   49  F   UNK N   1      20.786  12.638  11.025  0.00  0.00    -0.203 F 
HETATM   50  C   UNK N   1      20.982  14.246   9.258  0.00  0.00     0.155 A 
HETATM   51  F   UNK N   1      19.718  14.670   9.498  0.00  0.00    -0.203 F 
HETATM   52  C   UNK N   1      21.705  14.760   8.155  0.00  0.00     0.055 A 
ENDBRANCH   1  45
TORSDOF 14
ENDMDL
MODEL 5
REMARK VINA RESULT:      -8.6      2.612      9.595
REMARK  14 active torsions:
REMARK  status: ('A' for Active; 'I' for Inactive)
REMARK    1  A    between atoms: O_1  and  P_2 
REMARK    2  A    between atoms: P_2  and  O_3 
REMARK    3  A    between atoms: P_2  and  C_5 
REMARK    4  A    between atoms: C_5  and  C_8 
REMARK    5  A    between atoms: C_11  and  C_12 
REMARK    6  A    between atoms: C_12  and  C_13 
REMARK    7  A    between atoms: C_13  and  C_14 
REMARK    8  A    between atoms: C_13  and  N_28 
REMARK    9  A    between atoms: C_13  and  C_39 
REMARK   10  A    between atoms: C_14  and  C_15 
REMARK   11  A    between atoms: C_18  and  C_21 
REMARK   12  A    between atoms: C_21  and  P_24 
REMARK   13  A    between atoms: P_24  and  O_25 
REMARK   14  A    between atoms: P_24  and  O_26 
ROOT
HETATM    1  C   UNK N   1      25.412  15.307   5.317  0.00  0.00     0.090 C 
ENDROOT
BRANCH   1   2
HETATM    2  C   UNK N   1      25.936  15.411   3.792  0.00  0.00     0.077 C 
BRANCH   2   3
HETATM    3  C   UNK N   1      27.442  15.058   3.712  0.00  0.00    -0.055 C 
HETATM    4  C   UNK N   1      28.071  14.627   4.895  0.00  0.00     0.008 C 
HETATM    5  C   UNK N   1      29.314  15.081   5.266  0.00  0.00     0.014 C 
HETATM    6  C   UNK N   1      29.976  15.977   4.444  0.00  0.00     0.025 C 
HETATM    7  C   UNK N   1      29.486  16.220   3.141  0.00  0.00     0.014 C 
HETATM    8  C   UNK N   1      28.215  15.746   2.767  0.00  0.00     0.008 C 
BRANCH   6   9
HETATM    9  C   UNK N   1      30.894  16.964   5.117  0.00  0.00     0.364 C 
HETATM   10  F   UNK N   1      30.772  18.185   4.478  0.00  0.00    -0.187 F 
HETATM   11  F   UNK N   1      30.540  17.164   6.442  0.00  0.00    -0.187 F 
BRANCH   9  12
HETATM   12  P   UNK N   1      32.651  16.475   4.997  0.00  0.00     0.315 P 
HETATM   13  O   UNK N   1      33.032  16.195   3.523  0.00  0.00    -0.649 OA
BRANCH  12  14
HETATM   14  O   UNK N   1      33.026  15.020   5.863  0.00  0.00    -0.325 OA
HETATM   15  H   UNK N   1      33.213  14.120   5.553  0.00  0.00     0.220 HD
ENDBRANCH  12  14
BRANCH  12  16
HETATM   16  O   UNK N   1      33.749  17.706   5.538  0.00  0.00    -0.325 OA
HETATM   17  H   UNK N   1      33.981  18.224   6.325  0.00  0.00     0.220 HD
ENDBRANCH  12  16
ENDBRANCH   9  12
ENDBRANCH   6   9
ENDBRANCH   2   3
ENDBRANCH   1   2
BRANCH   1  18
HETATM   18  C   UNK N   1      23.967  15.568   5.558  0.00  0.00     0.077 C 
BRANCH  18  19
HETATM   19  C   UNK N   1      23.271  16.404   4.681  0.00  0.00    -0.055 A 
HETATM   20  C   UNK N   1      22.923  15.907   3.444  0.00  0.00     0.008 A 
HETATM   21  C   UNK N   1      22.028  16.613   2.692  0.00  0.00     0.014 A 
HETATM   22  C   UNK N   1      21.487  17.802   3.196  0.00  0.00     0.025 A 
HETATM   23  C   UNK N   1      21.887  18.310   4.434  0.00  0.00     0.014 A 
HETATM   24  C   UNK N   1      22.782  17.594   5.188  0.00  0.00     0.008 A 
BRANCH  22  25
HETATM   25  C   UNK N   1      20.327  18.376   2.516  0.00  0.00     0.364 C 
HETATM   26  F   UNK N   1      20.152  17.804   1.269  0.00  0.00    -0.187 F 
HETATM   27  F   UNK N   1      19.197  18.186   3.288  0.00  0.00    -0.187 F 
BRANCH  25  28
HETATM   28  P   UNK N   1      20.748  20.188   2.314  0.00  0.00     0.315 P 
HETATM   29  O   UNK N   1      22.279  20.394   2.142  0.00  0.00    -0.649 OA
BRANCH  28  30
HETATM   30  O   UNK N   1      20.315  21.230   3.624  0.00  0.00    -0.325 OA
HETATM   31  H   UNK N   1      20.679  22.128   3.681  0.00  0.00     0.220 HD
ENDBRANCH  28  30
BRANCH  28  32
HETATM   32  O   UNK N   1      20.092  20.882   0.861  0.00  0.00    -0.325 OA
HETATM   33  H   UNK N   1      20.063  20.750  -0.099  0.00  0.00     0.220 HD
ENDBRANCH  28  32
ENDBRANCH  25  28
ENDBRANCH  22  25
ENDBRANCH  18  19
ENDBRANCH   1  18
BRANCH   1  34
HETATM   34  N   UNK N   1      25.988  16.584   5.983  0.00  0.00    -0.261 N 
HETATM   35  N   UNK N   1      26.638  16.552   7.131  0.00  0.00    -0.238 N 
HETATM   36  N   UNK N   1      27.497  17.566   7.262  0.00  0.00    -0.284 N 
ATOM     37  HN  UNK N   1      26.498  15.832   7.841  1.00  0.00     0.208 HD
HETATM   38  C   UNK N   1      27.378  18.307   6.170  0.00  0.00     0.077 A 
ATOM     39  HN  UNK N   1      28.123  17.736   8.049  1.00  0.00     0.188 HD
HETATM   40  C   UNK N   1      26.420  17.759   5.373  0.00  0.00     0.081 A 
HETATM   41  C   UNK N   1      28.153  19.408   5.801  0.00  0.00     0.033 A 
HETATM   42  C   UNK N   1      26.146  18.339   4.125  0.00  0.00     0.034 A 
HETATM   43  C   UNK N   1      26.871  19.479   3.730  0.00  0.00     0.002 A 
HETATM   44  C   UNK N   1      27.888  19.999   4.557  0.00  0.00     0.002 A 
ENDBRANCH   1  34
BRANCH   1  45
HETATM   45  C   UNK N   1      25.400  13.693   5.596  0.00  0.00    -0.024 A 
HETATM   46  C   UNK N   1      24.722  12.885   4.633  0.00  0.00     0.013 A 
HETATM   47  C   UNK N   1      23.955  11.766   4.927  0.00  0.00     0.046 A 
HETATM   48  C   UNK N   1      23.769  11.396   6.241  0.00  0.00     0.154 A 
HETATM   49  F   UNK N   1      22.903  10.393   6.537  0.00  0.00    -0.203 F 
HETATM   50  C   UNK N   1      24.455  12.076   7.248  0.00  0.00     0.155 A 
HETATM   51  F   UNK N   1      24.252  11.724   8.540  0.00  0.00    -0.203 F 
HETATM   52  C   UNK N   1      25.262  13.197   6.937  0.00  0.00     0.055 A 
ENDBRANCH   1  45
TORSDOF 14
ENDMDL
MODEL 6
REMARK VINA RESULT:      -8.5      2.476      5.176
REMARK  14 active torsions:
REMARK  status: ('A' for Active; 'I' for Inactive)
REMARK    1  A    between atoms: O_1  and  P_2 
REMARK    2  A    between atoms: P_2  and  O_3 
REMARK    3  A    between atoms: P_2  and  C_5 
REMARK    4  A    between atoms: C_5  and  C_8 
REMARK    5  A    between atoms: C_11  and  C_12 
REMARK    6  A    between atoms: C_12  and  C_13 
REMARK    7  A    between atoms: C_13  and  C_14 
REMARK    8  A    between atoms: C_13  and  N_28 
REMARK    9  A    between atoms: C_13  and  C_39 
REMARK   10  A    between atoms: C_14  and  C_15 
REMARK   11  A    between atoms: C_18  and  C_21 
REMARK   12  A    between atoms: C_21  and  P_24 
REMARK   13  A    between atoms: P_24  and  O_25 
REMARK   14  A    between atoms: P_24  and  O_26 
ROOT
HETATM    1  C   UNK N   1      29.771  16.684   5.793  0.00  0.00     0.090 C 
ENDROOT
BRANCH   1   2
HETATM    2  C   UNK N   1      29.271  15.174   6.070  0.00  0.00     0.077 C 
BRANCH   2   3
HETATM    3  C   UNK N   1      27.864  14.949   5.461  0.00  0.00    -0.055 C 
HETATM    4  C   UNK N   1      27.681  15.293   4.108  0.00  0.00     0.008 C 
HETATM    5  C   UNK N   1      26.565  15.968   3.674  0.00  0.00     0.014 C 
HETATM    6  C   UNK N   1      25.583  16.305   4.591  0.00  0.00     0.025 C 
HETATM    7  C   UNK N   1      25.621  15.748   5.889  0.00  0.00     0.014 C 
HETATM    8  C   UNK N   1      26.764  15.054   6.324  0.00  0.00     0.008 C 
BRANCH   6   9
HETATM    9  C   UNK N   1      24.803  17.564   4.317  0.00  0.00     0.364 C 
HETATM   10  F   UNK N   1      24.959  18.421   5.391  0.00  0.00    -0.187 F 
HETATM   11  F   UNK N   1      25.284  18.226   3.198  0.00  0.00    -0.187 F 
BRANCH   9  12
HETATM   12  P   UNK N   1      23.010  17.251   4.144  0.00  0.00     0.315 P 
HETATM   13  O   UNK N   1      22.373  16.996   5.532  0.00  0.00    -0.649 OA
BRANCH  12  14
HETATM   14  O   UNK N   1      22.641  15.847   3.194  0.00  0.00    -0.325 OA
HETATM   15  H   UNK N   1      22.553  14.913   3.439  0.00  0.00     0.220 HD
ENDBRANCH  12  14
BRANCH  12  16
HETATM   16  O   UNK N   1      22.137  18.588   3.467  0.00  0.00    -0.325 OA
HETATM   17  H   UNK N   1      22.196  19.258   2.767  0.00  0.00     0.220 HD
ENDBRANCH  12  16
ENDBRANCH   9  12
ENDBRANCH   6   9
ENDBRANCH   2   3
ENDBRANCH   1   2
BRANCH   1  18
HETATM   18  C   UNK N   1      30.920  17.178   6.601  0.00  0.00     0.077 C 
BRANCH  18  19
HETATM   19  C   UNK N   1      31.699  16.259   7.307  0.00  0.00    -0.055 A 
HETATM   20  C   UNK N   1      32.805  15.726   6.684  0.00  0.00     0.008 A 
HETATM   21  C   UNK N   1      33.709  15.039   7.445  0.00  0.00     0.014 A 
HETATM   22  C   UNK N   1      33.493  14.906   8.821  0.00  0.00     0.025 A 
HETATM   23  C   UNK N   1      32.342  15.416   9.426  0.00  0.00     0.014 A 
HETATM   24  C   UNK N   1      31.442  16.110   8.658  0.00  0.00     0.008 A 
BRANCH  22  25
HETATM   25  C   UNK N   1      34.601  14.434   9.652  0.00  0.00     0.364 C 
HETATM   26  F   UNK N   1      34.135  13.660  10.700  0.00  0.00    -0.187 F 
HETATM   27  F   UNK N   1      35.483  13.705   8.879  0.00  0.00    -0.187 F 
BRANCH  25  28
HETATM   28  P   UNK N   1      35.379  15.995  10.330  0.00  0.00     0.315 P 
HETATM   29  O   UNK N   1      34.890  16.284  11.777  0.00  0.00    -0.649 OA
BRANCH  28  30
HETATM   30  O   UNK N   1      35.057  17.456   9.463  0.00  0.00    -0.325 OA
HETATM   31  H   UNK N   1      34.537  17.438   8.645  0.00  0.00     0.220 HD
ENDBRANCH  28  30
BRANCH  28  32
HETATM   32  O   UNK N   1      37.103  15.871  10.516  0.00  0.00    -0.325 OA
HETATM   33  H   UNK N   1      37.793  15.272  10.842  0.00  0.00     0.220 HD
ENDBRANCH  28  32
ENDBRANCH  25  28
ENDBRANCH  22  25
ENDBRANCH  18  19
ENDBRANCH   1  18
BRANCH   1  34
HETATM   34  N   UNK N   1      28.656  17.555   6.428  0.00  0.00    -0.261 N 
HETATM   35  N   UNK N   1      28.472  17.630   7.733  0.00  0.00    -0.238 N 
HETATM   36  N   UNK N   1      27.896  18.777   8.104  0.00  0.00    -0.284 N 
ATOM     37  HN  UNK N   1      28.741  16.893   8.386  1.00  0.00     0.208 HD
HETATM   38  C   UNK N   1      27.664  19.461   6.994  0.00  0.00     0.077 A 
ATOM     39  HN  UNK N   1      27.678  19.068   9.057  1.00  0.00     0.188 HD
HETATM   40  C   UNK N   1      28.077  18.720   5.929  0.00  0.00     0.081 A 
HETATM   41  C   UNK N   1      27.182  20.767   6.885  0.00  0.00     0.033 A 
HETATM   42  C   UNK N   1      27.983  19.257   4.636  0.00  0.00     0.034 A 
HETATM   43  C   UNK N   1      27.459  20.553   4.473  0.00  0.00     0.002 A 
HETATM   44  C   UNK N   1      27.080  21.315   5.598  0.00  0.00     0.002 A 
ENDBRANCH   1  34
BRANCH   1  45
HETATM   45  C   UNK N   1      30.543  16.562   4.354  0.00  0.00    -0.024 A 
HETATM   46  C   UNK N   1      30.759  15.240   3.858  0.00  0.00     0.013 A 
HETATM   47  C   UNK N   1      31.897  14.815   3.186  0.00  0.00     0.046 A 
HETATM   48  C   UNK N   1      32.944  15.691   3.001  0.00  0.00     0.154 A 
HETATM   49  F   UNK N   1      34.111  15.238   2.477  0.00  0.00    -0.203 F 
HETATM   50  C   UNK N   1      32.795  17.026   3.381  0.00  0.00     0.155 A 
HETATM   51  F   UNK N   1      33.835  17.879   3.219  0.00  0.00    -0.203 F 
HETATM   52  C   UNK N   1      31.618  17.459   4.036  0.00  0.00     0.055 A 
ENDBRANCH   1  45
TORSDOF 14
ENDMDL
MODEL 7
REMARK VINA RESULT:      -8.5      3.004      3.837
REMARK  14 active torsions:
REMARK  status: ('A' for Active; 'I' for Inactive)
REMARK    1  A    between atoms: O_1  and  P_2 
REMARK    2  A    between atoms: P_2  and  O_3 
REMARK    3  A    between atoms: P_2  and  C_5 
REMARK    4  A    between atoms: C_5  and  C_8 
REMARK    5  A    between atoms: C_11  and  C_12 
REMARK    6  A    between atoms: C_12  and  C_13 
REMARK    7  A    between atoms: C_13  and  C_14 
REMARK    8  A    between atoms: C_13  and  N_28 
REMARK    9  A    between atoms: C_13  and  C_39 
REMARK   10  A    between atoms: C_14  and  C_15 
REMARK   11  A    between atoms: C_18  and  C_21 
REMARK   12  A    between atoms: C_21  and  P_24 
REMARK   13  A    between atoms: P_24  and  O_25 
REMARK   14  A    between atoms: P_24  and  O_26 
ROOT
HETATM    1  C   UNK N   1      26.936  16.465   5.167  0.00  0.00     0.090 C 
ENDROOT
BRANCH   1   2
HETATM    2  C   UNK N   1      27.936  15.975   3.996  0.00  0.00     0.077 C 
BRANCH   2   3
HETATM    3  C   UNK N   1      27.131  15.481   2.768  0.00  0.00    -0.055 C 
HETATM    4  C   UNK N   1      25.909  16.124   2.493  0.00  0.00     0.008 C 
HETATM    5  C   UNK N   1      24.779  15.422   2.146  0.00  0.00     0.014 C 
HETATM    6  C   UNK N   1      24.848  14.042   2.047  0.00  0.00     0.025 C 
HETATM    7  C   UNK N   1      26.110  13.405   2.062  0.00  0.00     0.014 C 
HETATM    8  C   UNK N   1      27.261  14.132   2.413  0.00  0.00     0.008 C 
BRANCH   6   9
HETATM    9  C   UNK N   1      23.595  13.275   2.378  0.00  0.00     0.364 C 
HETATM   10  F   UNK N   1      23.945  11.976   2.697  0.00  0.00    -0.187 F 
HETATM   11  F   UNK N   1      22.955  13.805   3.487  0.00  0.00    -0.187 F 
BRANCH   9  12
HETATM   12  P   UNK N   1      22.439  13.183   0.965  0.00  0.00     0.315 P 
HETATM   13  O   UNK N   1      23.201  12.797  -0.327  0.00  0.00    -0.649 OA
BRANCH  12  14
HETATM   14  O   UNK N   1      21.653  14.689   0.613  0.00  0.00    -0.325 OA
HETATM   15  H   UNK N   1      21.768  15.575   0.991  0.00  0.00     0.220 HD
ENDBRANCH  12  14
BRANCH  12  16
HETATM   16  O   UNK N   1      21.205  11.979   1.159  0.00  0.00    -0.325 OA
HETATM   17  H   UNK N   1      20.395  11.796   1.660  0.00  0.00     0.220 HD
ENDBRANCH  12  16
ENDBRANCH   9  12
ENDBRANCH   6   9
ENDBRANCH   2   3
ENDBRANCH   1   2
BRANCH   1  18
HETATM   18  C   UNK N   1      27.506  16.597   6.536  0.00  0.00     0.077 C 
BRANCH  18  19
HETATM   19  C   UNK N   1      28.888  16.731   6.687  0.00  0.00    -0.055 A 
HETATM   20  C   UNK N   1      29.362  17.730   7.507  0.00  0.00     0.008 A 
HETATM   21  C   UNK N   1      30.680  17.704   7.865  0.00  0.00     0.014 A 
HETATM   22  C   UNK N   1      31.501  16.670   7.401  0.00  0.00     0.025 A 
HETATM   23  C   UNK N   1      31.011  15.690   6.534  0.00  0.00     0.014 A 
HETATM   24  C   UNK N   1      29.685  15.718   6.184  0.00  0.00     0.008 A 
BRANCH  22  25
HETATM   25  C   UNK N   1      32.813  16.495   8.025  0.00  0.00     0.364 C 
HETATM   26  F   UNK N   1      32.890  17.196   9.214  0.00  0.00    -0.187 F 
HETATM   27  F   UNK N   1      33.044  15.152   8.249  0.00  0.00    -0.187 F 
BRANCH  25  28
HETATM   28  P   UNK N   1      34.020  17.224   6.795  0.00  0.00     0.315 P 
HETATM   29  O   UNK N   1      34.827  18.394   7.424  0.00  0.00    -0.649 OA
BRANCH  28  30
HETATM   30  O   UNK N   1      33.341  17.892   5.352  0.00  0.00    -0.325 OA
HETATM   31  H   UNK N   1      32.385  17.857   5.196  0.00  0.00     0.220 HD
ENDBRANCH  28  30
BRANCH  28  32
HETATM   32  O   UNK N   1      35.261  16.105   6.315  0.00  0.00    -0.325 OA
HETATM   33  H   UNK N   1      35.523  15.174   6.401  0.00  0.00     0.220 HD
ENDBRANCH  28  32
ENDBRANCH  25  28
ENDBRANCH  22  25
ENDBRANCH  18  19
ENDBRANCH   1  18
BRANCH   1  34
HETATM   34  N   UNK N   1      26.036  15.226   5.414  0.00  0.00    -0.261 N 
HETATM   35  N   UNK N   1      26.524  14.064   5.804  0.00  0.00    -0.238 N 
HETATM   36  N   UNK N   1      25.629  13.332   6.474  0.00  0.00    -0.284 N 
ATOM     37  HN  UNK N   1      27.479  13.758   5.615  1.00  0.00     0.208 HD
HETATM   38  C   UNK N   1      24.504  14.032   6.493  0.00  0.00     0.077 A 
ATOM     39  HN  UNK N   1      25.783  12.414   6.891  1.00  0.00     0.188 HD
HETATM   40  C   UNK N   1      24.700  15.191   5.806  0.00  0.00     0.081 A 
HETATM   41  C   UNK N   1      23.325  13.728   7.175  0.00  0.00     0.033 A 
HETATM   42  C   UNK N   1      23.660  16.131   5.728  0.00  0.00     0.034 A 
HETATM   43  C   UNK N   1      22.437  15.847   6.363  0.00  0.00     0.002 A 
HETATM   44  C   UNK N   1      22.277  14.658   7.104  0.00  0.00     0.002 A 
ENDBRANCH   1  34
BRANCH   1  45
HETATM   45  C   UNK N   1      26.743  18.060   4.847  0.00  0.00    -0.024 A 
HETATM   46  C   UNK N   1      27.862  18.733   4.268  0.00  0.00     0.013 A 
HETATM   47  C   UNK N   1      28.257  20.030   4.566  0.00  0.00     0.046 A 
HETATM   48  C   UNK N   1      27.571  20.745   5.523  0.00  0.00     0.154 A 
HETATM   49  F   UNK N   1      28.043  21.955   5.920  0.00  0.00    -0.203 F 
HETATM   50  C   UNK N   1      26.417  20.202   6.088  0.00  0.00     0.155 A 
HETATM   51  F   UNK N   1      25.758  20.899   7.046  0.00  0.00    -0.203 F 
HETATM   52  C   UNK N   1      26.002  18.891   5.754  0.00  0.00     0.055 A 
ENDBRANCH   1  45
TORSDOF 14
ENDMDL
MODEL 8
REMARK VINA RESULT:      -8.5      2.933      9.138
REMARK  14 active torsions:
REMARK  status: ('A' for Active; 'I' for Inactive)
REMARK    1  A    between atoms: O_1  and  P_2 
REMARK    2  A    between atoms: P_2  and  O_3 
REMARK    3  A    between atoms: P_2  and  C_5 
REMARK    4  A    between atoms: C_5  and  C_8 
REMARK    5  A    between atoms: C_11  and  C_12 
REMARK    6  A    between atoms: C_12  and  C_13 
REMARK    7  A    between atoms: C_13  and  C_14 
REMARK    8  A    between atoms: C_13  and  N_28 
REMARK    9  A    between atoms: C_13  and  C_39 
REMARK   10  A    between atoms: C_14  and  C_15 
REMARK   11  A    between atoms: C_18  and  C_21 
REMARK   12  A    between atoms: C_21  and  P_24 
REMARK   13  A    between atoms: P_24  and  O_25 
REMARK   14  A    between atoms: P_24  and  O_26 
ROOT
HETATM    1  C   UNK N   1      27.843  16.466   4.884  0.00  0.00     0.090 C 
ENDROOT
BRANCH   1   2
HETATM    2  C   UNK N   1      29.386  16.939   4.943  0.00  0.00     0.077 C 
BRANCH   2   3
HETATM    3  C   UNK N   1      30.039  16.491   6.275  0.00  0.00    -0.055 C 
HETATM    4  C   UNK N   1      30.146  17.451   7.299  0.00  0.00     0.008 C 
HETATM    5  C   UNK N   1      31.290  17.590   8.049  0.00  0.00     0.014 C 
HETATM    6  C   UNK N   1      32.363  16.750   7.802  0.00  0.00     0.025 C 
HETATM    7  C   UNK N   1      32.188  15.622   6.968  0.00  0.00     0.014 C 
HETATM    8  C   UNK N   1      31.012  15.484   6.209  0.00  0.00     0.008 C 
BRANCH   6   9
HETATM    9  C   UNK N   1      33.737  17.314   8.054  0.00  0.00     0.364 C 
HETATM   10  F   UNK N   1      34.499  17.145   6.912  0.00  0.00    -0.187 F 
HETATM   11  F   UNK N   1      33.687  18.675   8.310  0.00  0.00    -0.187 F 
BRANCH   9  12
HETATM   12  P   UNK N   1      34.609  16.447   9.407  0.00  0.00     0.315 P 
HETATM   13  O   UNK N   1      35.489  15.308   8.836  0.00  0.00    -0.649 OA
BRANCH  12  14
HETATM   14  O   UNK N   1      33.541  15.688  10.545  0.00  0.00    -0.325 OA
HETATM   15  H   UNK N   1      33.374  14.753  10.741  0.00  0.00     0.220 HD
ENDBRANCH  12  14
BRANCH  12  16
HETATM   16  O   UNK N   1      35.687  17.470  10.302  0.00  0.00    -0.325 OA
HETATM   17  H   UNK N   1      36.429  18.083  10.179  0.00  0.00     0.220 HD
ENDBRANCH  12  16
ENDBRANCH   9  12
ENDBRANCH   6   9
ENDBRANCH   2   3
ENDBRANCH   1   2
BRANCH   1  18
HETATM   18  C   UNK N   1      27.326  15.687   6.043  0.00  0.00     0.077 C 
BRANCH  18  19
HETATM   19  C   UNK N   1      25.999  15.250   6.030  0.00  0.00    -0.055 A 
HETATM   20  C   UNK N   1      25.013  16.166   5.737  0.00  0.00     0.008 A 
HETATM   21  C   UNK N   1      23.757  15.700   5.466  0.00  0.00     0.014 A 
HETATM   22  C   UNK N   1      23.512  14.322   5.486  0.00  0.00     0.025 A 
HETATM   23  C   UNK N   1      24.517  13.413   5.828  0.00  0.00     0.014 A 
HETATM   24  C   UNK N   1      25.777  13.887   6.093  0.00  0.00     0.008 A 
BRANCH  22  25
HETATM   25  C   UNK N   1      22.259  13.834   4.911  0.00  0.00     0.364 C 
HETATM   26  F   UNK N   1      21.765  14.727   3.977  0.00  0.00    -0.187 F 
HETATM   27  F   UNK N   1      22.466  12.601   4.327  0.00  0.00    -0.187 F 
BRANCH  25  28
HETATM   28  P   UNK N   1      21.081  13.739   6.363  0.00  0.00     0.315 P 
HETATM   29  O   UNK N   1      21.657  14.478   7.603  0.00  0.00    -0.649 OA
BRANCH  28  30
HETATM   30  O   UNK N   1      20.697  12.155   6.940  0.00  0.00    -0.325 OA
HETATM   31  H   UNK N   1      20.113  11.573   6.429  0.00  0.00     0.220 HD
ENDBRANCH  28  30
BRANCH  28  32
HETATM   32  O   UNK N   1      19.579  14.566   6.075  0.00  0.00    -0.325 OA
HETATM   33  H   UNK N   1      18.664  14.407   5.794  0.00  0.00     0.220 HD
ENDBRANCH  28  32
ENDBRANCH  25  28
ENDBRANCH  22  25
ENDBRANCH  18  19
ENDBRANCH   1  18
BRANCH   1  34
HETATM   34  N   UNK N   1      27.855  15.327   3.832  0.00  0.00    -0.261 N 
HETATM   35  N   UNK N   1      28.577  14.232   3.982  0.00  0.00    -0.238 N 
HETATM   36  N   UNK N   1      28.068  13.188   3.323  0.00  0.00    -0.284 N 
ATOM     37  HN  UNK N   1      29.431  14.189   4.539  1.00  0.00     0.208 HD
HETATM   38  C   UNK N   1      26.989  13.628   2.692  0.00  0.00     0.077 A 
ATOM     39  HN  UNK N   1      28.437  12.238   3.309  1.00  0.00     0.188 HD
HETATM   40  C   UNK N   1      26.848  14.958   2.942  0.00  0.00     0.081 A 
HETATM   41  C   UNK N   1      26.061  12.876   1.969  0.00  0.00     0.033 A 
HETATM   42  C   UNK N   1      25.740  15.646   2.422  0.00  0.00     0.034 A 
HETATM   43  C   UNK N   1      24.802  14.938   1.648  0.00  0.00     0.002 A 
HETATM   44  C   UNK N   1      24.950  13.551   1.441  0.00  0.00     0.002 A 
ENDBRANCH   1  34
BRANCH   1  45
HETATM   45  C   UNK N   1      27.019  17.855   5.159  0.00  0.00    -0.024 A 
HETATM   46  C   UNK N   1      26.997  18.804   4.091  0.00  0.00     0.013 A 
HETATM   47  C   UNK N   1      27.067  20.182   4.246  0.00  0.00     0.046 A 
HETATM   48  C   UNK N   1      27.217  20.717   5.506  0.00  0.00     0.154 A 
HETATM   49  F   UNK N   1      27.433  22.050   5.645  0.00  0.00    -0.203 F 
HETATM   50  C   UNK N   1      27.171  19.875   6.619  0.00  0.00     0.155 A 
HETATM   51  F   UNK N   1      27.341  20.403   7.855  0.00  0.00    -0.203 F 
HETATM   52  C   UNK N   1      27.065  18.474   6.454  0.00  0.00     0.055 A 
ENDBRANCH   1  45
TORSDOF 14
ENDMDL
MODEL 9
REMARK VINA RESULT:      -8.3     12.379     14.241
REMARK  14 active torsions:
REMARK  status: ('A' for Active; 'I' for Inactive)
REMARK    1  A    between atoms: O_1  and  P_2 
REMARK    2  A    between atoms: P_2  and  O_3 
REMARK    3  A    between atoms: P_2  and  C_5 
REMARK    4  A    between atoms: C_5  and  C_8 
REMARK    5  A    between atoms: C_11  and  C_12 
REMARK    6  A    between atoms: C_12  and  C_13 
REMARK    7  A    between atoms: C_13  and  C_14 
REMARK    8  A    between atoms: C_13  and  N_28 
REMARK    9  A    between atoms: C_13  and  C_39 
REMARK   10  A    between atoms: C_14  and  C_15 
REMARK   11  A    between atoms: C_18  and  C_21 
REMARK   12  A    between atoms: C_21  and  P_24 
REMARK   13  A    between atoms: P_24  and  O_25 
REMARK   14  A    between atoms: P_24  and  O_26 
ROOT
HETATM    1  C   UNK N   1      28.423  25.609  -5.089  0.00  0.00     0.090 C 
ENDROOT
BRANCH   1   2
HETATM    2  C   UNK N   1      29.274  25.401  -6.447  0.00  0.00     0.077 C 
BRANCH   2   3
HETATM    3  C   UNK N   1      28.555  26.073  -7.644  0.00  0.00    -0.055 C 
HETATM    4  C   UNK N   1      27.231  26.509  -7.443  0.00  0.00     0.008 C 
HETATM    5  C   UNK N   1      26.247  26.295  -8.378  0.00  0.00     0.014 C 
HETATM    6  C   UNK N   1      26.568  25.648  -9.559  0.00  0.00     0.025 C 
HETATM    7  C   UNK N   1      27.926  25.438  -9.891  0.00  0.00     0.014 C 
HETATM    8  C   UNK N   1      28.928  25.664  -8.932  0.00  0.00     0.008 C 
BRANCH   6   9
HETATM    9  C   UNK N   1      25.483  24.818 -10.194  0.00  0.00     0.364 C 
HETATM   10  F   UNK N   1      26.042  23.636 -10.647  0.00  0.00    -0.187 F 
HETATM   11  F   UNK N   1      24.503  24.477  -9.277  0.00  0.00    -0.187 F 
BRANCH   9  12
HETATM   12  P   UNK N   1      24.734  25.640 -11.645  0.00  0.00     0.315 P 
HETATM   13  O   UNK N   1      24.045  24.597 -12.558  0.00  0.00    -0.649 OA
BRANCH  12  14
HETATM   14  O   UNK N   1      25.888  26.456 -12.651  0.00  0.00    -0.325 OA
HETATM   15  H   UNK N   1      25.916  26.594 -13.611  0.00  0.00     0.220 HD
ENDBRANCH  12  14
BRANCH  12  16
HETATM   16  O   UNK N   1      23.499  26.786 -11.228  0.00  0.00    -0.325 OA
HETATM   17  H   UNK N   1      23.251  27.715 -11.355  0.00  0.00     0.220 HD
ENDBRANCH  12  16
ENDBRANCH   9  12
ENDBRANCH   6   9
ENDBRANCH   2   3
ENDBRANCH   1   2
BRANCH   1  18
HETATM   18  C   UNK N   1      29.043  25.137  -3.820  0.00  0.00     0.077 C 
BRANCH  18  19
HETATM   19  C   UNK N   1      30.061  24.183  -3.875  0.00  0.00    -0.055 A 
HETATM   20  C   UNK N   1      29.726  22.859  -3.698  0.00  0.00     0.008 A 
HETATM   21  C   UNK N   1      30.658  21.908  -4.007  0.00  0.00     0.014 A 
HETATM   22  C   UNK N   1      31.908  22.300  -4.499  0.00  0.00     0.025 A 
HETATM   23  C   UNK N   1      32.243  23.650  -4.631  0.00  0.00     0.014 A 
HETATM   24  C   UNK N   1      31.301  24.600  -4.324  0.00  0.00     0.008 A 
BRANCH  22  25
HETATM   25  C   UNK N   1      32.768  21.279  -5.096  0.00  0.00     0.364 C 
HETATM   26  F   UNK N   1      32.014  20.238  -5.609  0.00  0.00    -0.187 F 
HETATM   27  F   UNK N   1      33.536  21.845  -6.094  0.00  0.00    -0.187 F 
BRANCH  25  28
HETATM   28  P   UNK N   1      33.809  20.649  -3.674  0.00  0.00     0.315 P 
HETATM   29  O   UNK N   1      33.973  19.105  -3.738  0.00  0.00    -0.649 OA
BRANCH  28  30
HETATM   30  O   UNK N   1      33.206  20.956  -2.083  0.00  0.00    -0.325 OA
HETATM   31  H   UNK N   1      32.739  20.264  -1.591  0.00  0.00     0.220 HD
ENDBRANCH  28  30
BRANCH  28  32
HETATM   32  O   UNK N   1      35.450  21.222  -3.727  0.00  0.00    -0.325 OA
HETATM   33  H   UNK N   1      36.220  21.377  -3.159  0.00  0.00     0.220 HD
ENDBRANCH  28  32
ENDBRANCH  25  28
ENDBRANCH  22  25
ENDBRANCH  18  19
ENDBRANCH   1  18
BRANCH   1  34
HETATM   34  N   UNK N   1      27.299  24.547  -5.201  0.00  0.00    -0.261 N 
HETATM   35  N   UNK N   1      26.045  24.807  -4.885  0.00  0.00    -0.238 N 
HETATM   36  N   UNK N   1      25.179  24.025  -5.536  0.00  0.00    -0.284 N 
ATOM     37  HN  UNK N   1      25.767  25.526  -4.216  1.00  0.00     0.208 HD
HETATM   38  C   UNK N   1      25.900  23.200  -6.281  0.00  0.00     0.077 A 
ATOM     39  HN  UNK N   1      24.162  24.058  -5.472  1.00  0.00     0.188 HD
HETATM   40  C   UNK N   1      27.219  23.458  -6.067  0.00  0.00     0.081 A 
HETATM   41  C   UNK N   1      25.436  22.279  -7.222  0.00  0.00     0.033 A 
HETATM   42  C   UNK N   1      28.188  22.743  -6.788  0.00  0.00     0.034 A 
HETATM   43  C   UNK N   1      27.768  21.771  -7.715  0.00  0.00     0.002 A 
HETATM   44  C   UNK N   1      26.394  21.556  -7.948  0.00  0.00     0.002 A 
ENDBRANCH   1  34
BRANCH   1  45
HETATM   45  C   UNK N   1      28.548  27.219  -4.817  0.00  0.00    -0.024 A 
HETATM   46  C   UNK N   1      29.861  27.777  -4.888  0.00  0.00     0.013 A 
HETATM   47  C   UNK N   1      30.350  28.778  -4.059  0.00  0.00     0.046 A 
HETATM   48  C   UNK N   1      29.557  29.268  -3.045  0.00  0.00     0.154 A 
HETATM   49  F   UNK N   1      30.083  30.137  -2.144  0.00  0.00    -0.203 F 
HETATM   50  C   UNK N   1      28.232  28.841  -2.944  0.00  0.00     0.155 A 
HETATM   51  F   UNK N   1      27.462  29.308  -1.932  0.00  0.00    -0.203 F 
HETATM   52  C   UNK N   1      27.730  27.844  -3.815  0.00  0.00     0.055 A 
ENDBRANCH   1  45
TORSDOF 14
ENDMDL
