REMARK  3 active torsions:
REMARK  status: ('A' for Active; 'I' for Inactive)
REMARK       I    between atoms: C_2  and  N_4 
REMARK    1  A    between atoms: N_4  and  C_5 
REMARK    2  A    between atoms: C_5  and  C_6 
REMARK    3  A    between atoms: C_6  and  O_7 
ROOT
HETATM    1  C   UNK N   1      -1.393   0.232   0.000  0.00  0.00     0.117 C 
HETATM    2  C   UNK N   1      -0.207   1.128  -0.000  0.00  0.00     0.214 C 
HETATM    3  O   UNK N   1      -0.363   2.342   0.000  0.00  0.00    -0.274 OA
HETATM    4  N   UNK N   1       1.032   0.593  -0.000  0.00  0.00    -0.351 N 
HETATM    5  H   UNK N   1       1.129  -0.386  -0.000  0.00  0.00     0.163 HD
ENDROOT
BRANCH   4   6
HETATM    6  C   UNK N   1       2.218   1.413  -0.000  0.00  0.00     0.232 C 
BRANCH   6   7
HETATM    7  C   UNK N   1       3.448   0.564  -0.000  0.00  0.00     0.158 C 
HETATM    8  O   UNK N   1       3.366  -0.656   0.000  0.00  0.00    -0.649 OA
BRANCH   7   9
HETATM    9  O   UNK N   1       4.657   1.150   0.000  0.00  0.00    -0.775 OA
HETATM   10  H   UNK N   1       5.433   0.624   0.000  0.00  0.00     0.167 HD
ENDBRANCH   7   9
ENDBRANCH   6   7
ENDBRANCH   4   6
TORSDOF 3
