MODEL 1
REMARK VINA RESULT:      -3.1      0.000      0.000
REMARK  3 active torsions:
REMARK  status: ('A' for Active; 'I' for Inactive)
REMARK    1  A    between atoms: C_2  and  O_3 
REMARK    2  A    between atoms: C_2  and  C_4 
REMARK    3  A    between atoms: C_4  and  N_5 
ROOT
HETATM    1  C   UNK N   1      34.660  16.821   9.322  0.00  0.00     0.260 C 
ENDROOT
BRANCH   1   2
HETATM    2  C   UNK N   1      34.525  17.975   8.339  0.00  0.00     0.139 C 
HETATM    3  C   UNK N   1      33.609  17.912   7.134  0.00  0.00     0.041 C 
BRANCH   2   4
HETATM    4  O   UNK N   1      35.264  19.139   8.540  0.00  0.00    -0.394 OA
HETATM    5  H   UNK N   1      35.494  19.419   9.440  0.00  0.00     0.210 HD
ENDBRANCH   2   4
ENDBRANCH   1   2
BRANCH   1   6
HETATM    6  N   UNK N   1      35.145  17.300  10.606  0.00  0.00    -0.077 N 
HETATM    7  H   UNK N   1      36.054  17.758  10.671  0.00  0.00     0.274 HD
HETATM    8  H   UNK N   1      34.575  17.179  11.445  0.00  0.00     0.274 HD
HETATM    9  H   UNK N   1      35.485  17.637  11.508  0.00  0.00     0.274 HD
ENDBRANCH   1   6
TORSDOF 3
ENDMDL
MODEL 2
REMARK VINA RESULT:      -3.1     13.167     13.376
REMARK  3 active torsions:
REMARK  status: ('A' for Active; 'I' for Inactive)
REMARK    1  A    between atoms: C_2  and  O_3 
REMARK    2  A    between atoms: C_2  and  C_4 
REMARK    3  A    between atoms: C_4  and  N_5 
ROOT
HETATM    1  C   UNK N   1      22.700  11.860  10.740  0.00  0.00     0.260 C 
ENDROOT
BRANCH   1   2
HETATM    2  C   UNK N   1      23.706  12.042  11.867  0.00  0.00     0.139 C 
HETATM    3  C   UNK N   1      23.316  11.943  13.327  0.00  0.00     0.041 C 
BRANCH   2   4
HETATM    4  O   UNK N   1      25.039  12.311  11.562  0.00  0.00    -0.394 OA
HETATM    5  H   UNK N   1      25.701  12.343  12.270  0.00  0.00     0.210 HD
ENDBRANCH   2   4
ENDBRANCH   1   2
BRANCH   1   6
HETATM    6  N   UNK N   1      21.342  11.907  11.257  0.00  0.00    -0.077 N 
HETATM    7  H   UNK N   1      21.163  12.276  12.191  0.00  0.00     0.274 HD
HETATM    8  H   UNK N   1      20.565  11.571  10.685  0.00  0.00     0.274 HD
HETATM    9  H   UNK N   1      20.388  11.940  11.620  0.00  0.00     0.274 HD
ENDBRANCH   1   6
TORSDOF 3
ENDMDL
MODEL 3
REMARK VINA RESULT:      -3.1     12.275     12.391
REMARK  3 active torsions:
REMARK  status: ('A' for Active; 'I' for Inactive)
REMARK    1  A    between atoms: C_2  and  O_3 
REMARK    2  A    between atoms: C_2  and  C_4 
REMARK    3  A    between atoms: C_4  and  N_5 
ROOT
HETATM    1  C   UNK N   1      24.688  12.243  10.429  0.00  0.00     0.260 C 
ENDROOT
BRANCH   1   2
HETATM    2  C   UNK N   1      23.595  12.186  11.486  0.00  0.00     0.139 C 
HETATM    3  C   UNK N   1      22.129  12.048  11.132  0.00  0.00     0.041 C 
BRANCH   2   4
HETATM    4  O   UNK N   1      23.939  12.262  12.835  0.00  0.00    -0.394 OA
HETATM    5  H   UNK N   1      24.722  12.766  13.108  0.00  0.00     0.210 HD
ENDBRANCH   2   4
ENDBRANCH   1   2
BRANCH   1   6
HETATM    6  N   UNK N   1      25.582  13.362  10.680  0.00  0.00    -0.077 N 
HETATM    7  H   UNK N   1      26.340  13.268  11.357  0.00  0.00     0.274 HD
HETATM    8  H   UNK N   1      25.453  14.242  10.179  0.00  0.00     0.274 HD
HETATM    9  H   UNK N   1      26.210  14.147  10.856  0.00  0.00     0.274 HD
ENDBRANCH   1   6
TORSDOF 3
ENDMDL
MODEL 4
REMARK VINA RESULT:      -3.1     11.612     11.694
REMARK  3 active torsions:
REMARK  status: ('A' for Active; 'I' for Inactive)
REMARK    1  A    between atoms: C_2  and  O_3 
REMARK    2  A    between atoms: C_2  and  C_4 
REMARK    3  A    between atoms: C_4  and  N_5 
ROOT
HETATM    1  C   UNK N   1      44.344  21.765   4.118  0.00  0.00     0.260 C 
ENDROOT
BRANCH   1   2
HETATM    2  C   UNK N   1      43.449  22.890   3.618  0.00  0.00     0.139 C 
HETATM    3  C   UNK N   1      42.464  22.699   2.483  0.00  0.00     0.041 C 
BRANCH   2   4
HETATM    4  O   UNK N   1      43.526  24.147   4.215  0.00  0.00    -0.394 OA
HETATM    5  H   UNK N   1      44.178  24.313   4.914  0.00  0.00     0.210 HD
ENDBRANCH   2   4
ENDBRANCH   1   2
BRANCH   1   6
HETATM    6  N   UNK N   1      45.728  22.206   4.182  0.00  0.00    -0.077 N 
HETATM    7  H   UNK N   1      45.944  23.190   4.342  0.00  0.00     0.274 HD
HETATM    8  H   UNK N   1      46.485  21.531   4.065  0.00  0.00     0.274 HD
HETATM    9  H   UNK N   1      46.700  22.515   4.226  0.00  0.00     0.274 HD
ENDBRANCH   1   6
TORSDOF 3
ENDMDL
MODEL 5
REMARK VINA RESULT:      -3.1     15.887     16.170
REMARK  3 active torsions:
REMARK  status: ('A' for Active; 'I' for Inactive)
REMARK    1  A    between atoms: C_2  and  O_3 
REMARK    2  A    between atoms: C_2  and  C_4 
REMARK    3  A    between atoms: C_4  and  N_5 
ROOT
HETATM    1  C   UNK N   1      20.223  18.436   1.964  0.00  0.00     0.260 C 
ENDROOT
BRANCH   1   2
HETATM    2  C   UNK N   1      20.734  19.792   1.497  0.00  0.00     0.139 C 
HETATM    3  C   UNK N   1      21.287  20.825   2.457  0.00  0.00     0.041 C 
BRANCH   2   4
HETATM    4  O   UNK N   1      20.700  20.110   0.141  0.00  0.00    -0.394 OA
HETATM    5  H   UNK N   1      20.452  21.004  -0.141  0.00  0.00     0.210 HD
ENDBRANCH   2   4
ENDBRANCH   1   2
BRANCH   1   6
HETATM    6  N   UNK N   1      18.823  18.524   2.344  0.00  0.00    -0.077 N 
HETATM    7  H   UNK N   1      18.541  19.118   3.124  0.00  0.00     0.274 HD
HETATM    8  H   UNK N   1      18.119  17.990   1.832  0.00  0.00     0.274 HD
HETATM    9  H   UNK N   1      17.839  18.585   2.612  0.00  0.00     0.274 HD
ENDBRANCH   1   6
TORSDOF 3
ENDMDL
MODEL 6
REMARK VINA RESULT:      -3.0     14.982     15.485
REMARK  3 active torsions:
REMARK  status: ('A' for Active; 'I' for Inactive)
REMARK    1  A    between atoms: C_2  and  O_3 
REMARK    2  A    between atoms: C_2  and  C_4 
REMARK    3  A    between atoms: C_4  and  N_5 
ROOT
HETATM    1  C   UNK N   1      20.770  19.983   1.221  0.00  0.00     0.260 C 
ENDROOT
BRANCH   1   2
HETATM    2  C   UNK N   1      21.354  20.404   2.561  0.00  0.00     0.139 C 
HETATM    3  C   UNK N   1      21.497  19.443   3.723  0.00  0.00     0.041 C 
BRANCH   2   4
HETATM    4  O   UNK N   1      21.779  21.719   2.744  0.00  0.00    -0.394 OA
HETATM    5  H   UNK N   1      21.142  22.448   2.680  0.00  0.00     0.210 HD
ENDBRANCH   2   4
ENDBRANCH   1   2
BRANCH   1   6
HETATM    6  N   UNK N   1      20.436  21.150   0.422  0.00  0.00    -0.077 N 
HETATM    7  H   UNK N   1      20.130  21.037  -0.545  0.00  0.00     0.274 HD
HETATM    8  H   UNK N   1      20.507  22.085   0.827  0.00  0.00     0.274 HD
HETATM    9  H   UNK N   1      20.201  21.970  -0.140  0.00  0.00     0.274 HD
ENDBRANCH   1   6
TORSDOF 3
ENDMDL
MODEL 7
REMARK VINA RESULT:      -3.0     11.797     12.040
REMARK  3 active torsions:
REMARK  status: ('A' for Active; 'I' for Inactive)
REMARK    1  A    between atoms: C_2  and  O_3 
REMARK    2  A    between atoms: C_2  and  C_4 
REMARK    3  A    between atoms: C_4  and  N_5 
ROOT
HETATM    1  C   UNK N   1      43.411  22.504   3.613  0.00  0.00     0.260 C 
ENDROOT
BRANCH   1   2
HETATM    2  C   UNK N   1      44.717  21.731   3.726  0.00  0.00     0.139 C 
HETATM    3  C   UNK N   1      44.846  20.285   3.292  0.00  0.00     0.041 C 
BRANCH   2   4
HETATM    4  O   UNK N   1      45.847  22.361   4.246  0.00  0.00    -0.394 OA
HETATM    5  H   UNK N   1      45.909  22.535   5.198  0.00  0.00     0.210 HD
ENDBRANCH   2   4
ENDBRANCH   1   2
BRANCH   1   6
HETATM    6  N   UNK N   1      43.580  23.863   4.099  0.00  0.00    -0.077 N 
HETATM    7  H   UNK N   1      44.298  24.465   3.695  0.00  0.00     0.274 HD
HETATM    8  H   UNK N   1      42.981  24.217   4.846  0.00  0.00     0.274 HD
HETATM    9  H   UNK N   1      43.699  24.818   4.441  0.00  0.00     0.274 HD
ENDBRANCH   1   6
TORSDOF 3
ENDMDL
MODEL 8
REMARK VINA RESULT:      -2.9     12.527     12.630
REMARK  3 active torsions:
REMARK  status: ('A' for Active; 'I' for Inactive)
REMARK    1  A    between atoms: C_2  and  O_3 
REMARK    2  A    between atoms: C_2  and  C_4 
REMARK    3  A    between atoms: C_4  and  N_5 
ROOT
HETATM    1  C   UNK N   1      22.625  12.132  11.369  0.00  0.00     0.260 C 
ENDROOT
BRANCH   1   2
HETATM    2  C   UNK N   1      24.022  12.188  10.770  0.00  0.00     0.139 C 
HETATM    3  C   UNK N   1      24.277  12.016   9.287  0.00  0.00     0.041 C 
BRANCH   2   4
HETATM    4  O   UNK N   1      25.119  12.406  11.603  0.00  0.00    -0.394 OA
HETATM    5  H   UNK N   1      25.347  11.754  12.284  0.00  0.00     0.210 HD
ENDBRANCH   2   4
ENDBRANCH   1   2
BRANCH   1   6
HETATM    6  N   UNK N   1      22.669  11.585  12.716  0.00  0.00    -0.077 N 
HETATM    7  H   UNK N   1      22.586  12.205  13.522  0.00  0.00     0.274 HD
HETATM    8  H   UNK N   1      22.783  10.580  12.855  0.00  0.00     0.274 HD
HETATM    9  H   UNK N   1      22.700  11.201  13.661  0.00  0.00     0.274 HD
ENDBRANCH   1   6
TORSDOF 3
ENDMDL
MODEL 9
REMARK VINA RESULT:      -2.8      6.732      7.126
REMARK  3 active torsions:
REMARK  status: ('A' for Active; 'I' for Inactive)
REMARK    1  A    between atoms: C_2  and  O_3 
REMARK    2  A    between atoms: C_2  and  C_4 
REMARK    3  A    between atoms: C_4  and  N_5 
ROOT
HETATM    1  C   UNK N   1      28.250  19.019   7.375  0.00  0.00     0.260 C 
ENDROOT
BRANCH   1   2
HETATM    2  C   UNK N   1      28.464  18.520   8.796  0.00  0.00     0.139 C 
HETATM    3  C   UNK N   1      29.791  18.656   9.513  0.00  0.00     0.041 C 
BRANCH   2   4
HETATM    4  O   UNK N   1      27.411  17.911   9.477  0.00  0.00    -0.394 OA
HETATM    5  H   UNK N   1      27.557  17.538  10.361  0.00  0.00     0.210 HD
ENDBRANCH   2   4
ENDBRANCH   1   2
BRANCH   1   6
HETATM    6  N   UNK N   1      27.121  19.934   7.321  0.00  0.00    -0.077 N 
HETATM    7  H   UNK N   1      26.535  20.072   8.145  0.00  0.00     0.274 HD
HETATM    8  H   UNK N   1      26.913  20.440   6.459  0.00  0.00     0.274 HD
HETATM    9  H   UNK N   1      26.328  20.576   7.284  0.00  0.00     0.274 HD
ENDBRANCH   1   6
TORSDOF 3
ENDMDL
