MODEL 1
REMARK VINA RESULT:      -9.1      0.000      0.000
REMARK  12 active torsions:
REMARK  status: ('A' for Active; 'I' for Inactive)
REMARK    1  A    between atoms: C_2  and  C_4 
REMARK    2  A    between atoms: C_4  and  C_5 
REMARK    3  A    between atoms: C_5  and  N_6 
REMARK    4  A    between atoms: C_5  and  C_11 
REMARK       I    between atoms: C_8  and  N_9 
REMARK       I    between atoms: C_8  and  N_10 
REMARK       I    between atoms: C_11  and  N_13 
REMARK    5  A    between atoms: N_13  and  C_14 
REMARK    6  A    between atoms: C_14  and  C_15 
REMARK       I    between atoms: C_15  and  N_17 
REMARK    7  A    between atoms: C_20  and  C_23 
REMARK    8  A    between atoms: C_25  and  C_30 
REMARK    9  A    between atoms: C_35  and  O_36 
REMARK   10  A    between atoms: O_36  and  C_37 
REMARK   11  A    between atoms: C_37  and  C_38 
REMARK   12  A    between atoms: C_41  and  N_42 
REMARK       I    between atoms: N_42  and  C_43 
ROOT
HETATM    1  C   UNK N   1      31.882  16.210   5.220  0.00  0.00     0.034 A 
HETATM    2  C   UNK N   1      30.596  16.548   5.448  0.00  0.00     0.059 A 
HETATM    3  C   UNK N   1      30.096  16.985   4.284  0.00  0.00     0.062 A 
HETATM    4  N   UNK N   1      31.061  16.923   3.332  0.00  0.00    -0.298 N 
ATOM      5  HN  UNK N   1      30.968  17.198   2.354  1.00  0.00     0.187 HD
HETATM    6  N   UNK N   1      32.151  16.437   3.918  0.00  0.00    -0.300 N 
HETATM    7  C   UNK N   1      33.425  16.242   3.246  0.00  0.00     0.177 C 
ENDROOT
BRANCH   1   8
HETATM    8  C   UNK N   1      32.758  15.744   6.349  0.00  0.00     0.040 C 
HETATM    9  C   UNK N   1      33.646  16.967   6.724  0.00  0.00     0.030 C 
HETATM   10  C   UNK N   1      33.045  17.708   7.909  0.00  0.00     0.126 C 
HETATM   11  N   UNK N   1      33.336  16.782   8.950  0.00  0.00    -0.351 N 
HETATM   12  C   UNK N   1      34.592  16.888   9.495  0.00  0.00     0.237 C 
HETATM   13  C   UNK N   1      32.593  15.521   8.935  0.00  0.00     0.126 C 
HETATM   14  O   UNK N   1      35.213  17.940   9.402  0.00  0.00    -0.272 OA
HETATM   15  C   UNK N   1      31.921  15.246   7.556  0.00  0.00     0.030 C 
BRANCH  12  16
HETATM   16  C   UNK N   1      35.315  15.705  10.030  0.00  0.00     0.225 C 
BRANCH  16  17
HETATM   17  N   UNK N   1      35.467  15.890  11.453  0.00  0.00    -0.351 N 
HETATM   18  C   UNK N   1      36.049  14.959  12.246  0.00  0.00     0.241 C 
HETATM   19  O   UNK N   1      36.312  15.253  13.403  0.00  0.00    -0.271 OA
HETATM   20  H   UNK N   1      35.136  16.721  11.861  0.00  0.00     0.163 HD
BRANCH  18  21
HETATM   21  C   UNK N   1      36.349  13.563  11.728  0.00  0.00     0.192 C 
BRANCH  21  22
HETATM   22  C   UNK N   1      35.969  12.485  12.736  0.00  0.00     0.039 C 
BRANCH  22  23
HETATM   23  C   UNK N   1      37.166  11.637  13.135  0.00  0.00    -0.020 C 
HETATM   24  C   UNK N   1      36.945  10.227  12.636  0.00  0.00     0.009 C 
HETATM   25  C   UNK N   1      37.357  11.598  14.639  0.00  0.00     0.009 C 
ENDBRANCH  22  23
ENDBRANCH  21  22
BRANCH  21  26
HETATM   26  N   UNK N   1      37.734  13.405  11.337  0.00  0.00    -0.214 N 
HETATM   27  C   UNK N   1      38.061  12.998  10.155  0.00  0.00     0.666 C 
HETATM   28  N   UNK N   1      37.068  12.718   9.182  0.00  0.00    -0.235 N 
HETATM   29  N   UNK N   1      39.423  12.896   9.802  0.00  0.00    -0.235 N 
HETATM   30  H   UNK N   1      36.737  12.997   8.298  0.00  0.00     0.174 HD
HETATM   31  H   UNK N   1      36.507  11.978   9.509  0.00  0.00     0.174 HD
HETATM   32  H   UNK N   1      40.290  13.236  10.122  0.00  0.00     0.174 HD
HETATM   33  H   UNK N   1      39.540  12.323   9.010  0.00  0.00     0.174 HD
ATOM     34  HN  UNK N   1      38.470  13.620  12.011  1.00  0.00     0.178 HD
ENDBRANCH  21  26
ENDBRANCH  18  21
ENDBRANCH  16  17
ENDBRANCH  12  16
ENDBRANCH   1   8
BRANCH   3  35
HETATM   35  C   UNK N   1      28.702  17.449   4.188  0.00  0.00     0.016 A 
HETATM   36  C   UNK N   1      27.686  16.629   3.588  0.00  0.00     0.071 A 
HETATM   37 Cl   UNK N   1      27.971  15.005   2.901  0.00  0.00    -0.081 Cl
HETATM   38  C   UNK N   1      26.387  17.111   3.478  0.00  0.00     0.090 A 
HETATM   39 Cl   UNK N   1      25.155  16.073   2.734  0.00  0.00    -0.080 Cl
HETATM   40  C   UNK N   1      26.078  18.402   3.945  0.00  0.00     0.092 A 
HETATM   41  C   UNK N   1      27.056  19.175   4.573  0.00  0.00     0.039 A 
HETATM   42  C   UNK N   1      28.362  18.706   4.689  0.00  0.00     0.018 A 
BRANCH  40  43
HETATM   43  O   UNK N   1      24.869  18.944   3.732  0.00  0.00    -0.345 OA
BRANCH  43  44
HETATM   44  C   UNK N   1      23.872  18.714   4.653  0.00  0.00     0.214 C 
BRANCH  44  45
HETATM   45  C   UNK N   1      22.532  18.556   4.038  0.00  0.00    -0.034 A 
HETATM   46  C   UNK N   1      21.811  17.399   4.328  0.00  0.00     0.011 A 
HETATM   47  C   UNK N   1      20.634  17.126   3.645  0.00  0.00     0.030 A 
HETATM   48  C   UNK N   1      20.157  18.027   2.692  0.00  0.00     0.034 A 
HETATM   49  C   UNK N   1      20.845  19.222   2.446  0.00  0.00     0.030 A 
HETATM   50  C   UNK N   1      22.025  19.494   3.130  0.00  0.00     0.011 A 
BRANCH  48  51
HETATM   51  N   UNK N   1      19.260  17.552   1.716  0.00  0.00    -0.328 N 
HETATM   52  C   UNK N   1      19.743  16.736   0.740  0.00  0.00     0.218 C 
HETATM   53  C   UNK N   1      18.834  16.191  -0.298  0.00  0.00     0.117 C 
HETATM   54  O   UNK N   1      20.928  16.424   0.717  0.00  0.00    -0.274 OA
HETATM   55  H   UNK N   1      18.308  17.803   1.740  0.00  0.00     0.169 HD
ENDBRANCH  48  51
ENDBRANCH  44  45
ENDBRANCH  43  44
ENDBRANCH  40  43
ENDBRANCH   3  35
TORSDOF 12
ENDMDL
MODEL 2
REMARK VINA RESULT:      -8.8      6.931     14.883
REMARK  12 active torsions:
REMARK  status: ('A' for Active; 'I' for Inactive)
REMARK    1  A    between atoms: C_2  and  C_4 
REMARK    2  A    between atoms: C_4  and  C_5 
REMARK    3  A    between atoms: C_5  and  N_6 
REMARK    4  A    between atoms: C_5  and  C_11 
REMARK       I    between atoms: C_8  and  N_9 
REMARK       I    between atoms: C_8  and  N_10 
REMARK       I    between atoms: C_11  and  N_13 
REMARK    5  A    between atoms: N_13  and  C_14 
REMARK    6  A    between atoms: C_14  and  C_15 
REMARK       I    between atoms: C_15  and  N_17 
REMARK    7  A    between atoms: C_20  and  C_23 
REMARK    8  A    between atoms: C_25  and  C_30 
REMARK    9  A    between atoms: C_35  and  O_36 
REMARK   10  A    between atoms: O_36  and  C_37 
REMARK   11  A    between atoms: C_37  and  C_38 
REMARK   12  A    between atoms: C_41  and  N_42 
REMARK       I    between atoms: N_42  and  C_43 
ROOT
HETATM    1  C   UNK N   1      36.086  13.708  11.162  0.00  0.00     0.034 A 
HETATM    2  C   UNK N   1      35.452  13.676  12.353  0.00  0.00     0.059 A 
HETATM    3  C   UNK N   1      36.349  13.267  13.260  0.00  0.00     0.062 A 
HETATM    4  N   UNK N   1      37.537  13.043  12.645  0.00  0.00    -0.298 N 
ATOM      5  HN  UNK N   1      38.398  12.718  13.085  1.00  0.00     0.187 HD
HETATM    6  N   UNK N   1      37.365  13.326  11.357  0.00  0.00    -0.300 N 
HETATM    7  C   UNK N   1      38.395  13.185  10.342  0.00  0.00     0.177 C 
ENDROOT
BRANCH   1   8
HETATM    8  C   UNK N   1      35.335  14.061   9.909  0.00  0.00     0.040 C 
HETATM    9  C   UNK N   1      35.164  12.722   9.131  0.00  0.00     0.030 C 
HETATM   10  C   UNK N   1      33.794  12.123   9.411  0.00  0.00     0.126 C 
HETATM   11  N   UNK N   1      32.977  13.020   8.668  0.00  0.00    -0.351 N 
HETATM   12  C   UNK N   1      32.852  12.731   7.332  0.00  0.00     0.237 C 
HETATM   13  C   UNK N   1      32.856  14.384   9.189  0.00  0.00     0.126 C 
HETATM   14  O   UNK N   1      33.054  11.591   6.932  0.00  0.00    -0.272 OA
HETATM   15  C   UNK N   1      33.968  14.722  10.226  0.00  0.00     0.030 C 
BRANCH  12  16
HETATM   16  C   UNK N   1      32.671  13.798   6.313  0.00  0.00     0.225 C 
BRANCH  16  17
HETATM   17  N   UNK N   1      33.955  14.421   6.098  0.00  0.00    -0.351 N 
HETATM   18  C   UNK N   1      34.104  15.764   6.022  0.00  0.00     0.241 C 
HETATM   19  O   UNK N   1      35.233  16.233   6.023  0.00  0.00    -0.271 OA
HETATM   20  H   UNK N   1      34.749  13.849   6.001  0.00  0.00     0.163 HD
BRANCH  18  21
HETATM   21  C   UNK N   1      32.899  16.683   5.909  0.00  0.00     0.192 C 
BRANCH  21  22
HETATM   22  C   UNK N   1      33.038  17.669   4.756  0.00  0.00     0.039 C 
BRANCH  22  23
HETATM   23  C   UNK N   1      32.412  17.138   3.477  0.00  0.00    -0.020 C 
HETATM   24  C   UNK N   1      31.107  16.458   3.825  0.00  0.00     0.009 C 
HETATM   25  C   UNK N   1      33.312  16.138   2.777  0.00  0.00     0.009 C 
ENDBRANCH  22  23
ENDBRANCH  21  22
BRANCH  21  26
HETATM   26  N   UNK N   1      32.633  17.399   7.139  0.00  0.00    -0.214 N 
HETATM   27  C   UNK N   1      31.483  17.331   7.726  0.00  0.00     0.666 C 
HETATM   28  N   UNK N   1      30.444  16.524   7.197  0.00  0.00    -0.235 N 
HETATM   29  N   UNK N   1      31.279  18.012   8.944  0.00  0.00    -0.235 N 
HETATM   30  H   UNK N   1      29.877  15.745   7.400  0.00  0.00     0.174 HD
HETATM   31  H   UNK N   1      30.203  16.865   6.306  0.00  0.00     0.174 HD
HETATM   32  H   UNK N   1      31.824  18.412   9.660  0.00  0.00     0.174 HD
HETATM   33  H   UNK N   1      30.318  18.116   9.132  0.00  0.00     0.174 HD
ATOM     34  HN  UNK N   1      33.370  17.969   7.553  1.00  0.00     0.178 HD
ENDBRANCH  21  26
ENDBRANCH  18  21
ENDBRANCH  16  17
ENDBRANCH  12  16
ENDBRANCH   1   8
BRANCH   3  35
HETATM   35  C   UNK N   1      35.974  13.111  14.675  0.00  0.00     0.016 A 
HETATM   36  C   UNK N   1      36.314  14.112  15.649  0.00  0.00     0.071 A 
HETATM   37 Cl   UNK N   1      37.208  15.614  15.285  0.00  0.00    -0.081 Cl
HETATM   38  C   UNK N   1      35.978  13.917  16.984  0.00  0.00     0.090 A 
HETATM   39 Cl   UNK N   1      36.412  15.172  18.161  0.00  0.00    -0.080 Cl
HETATM   40  C   UNK N   1      35.317  12.738  17.374  0.00  0.00     0.092 A 
HETATM   41  C   UNK N   1      34.944  11.792  16.417  0.00  0.00     0.039 A 
HETATM   42  C   UNK N   1      35.274  11.973  15.077  0.00  0.00     0.018 A 
BRANCH  40  43
HETATM   43  O   UNK N   1      35.102  12.462  18.670  0.00  0.00    -0.345 OA
BRANCH  43  44
HETATM   44  C   UNK N   1      35.669  11.328  19.204  0.00  0.00     0.214 C 
BRANCH  44  45
HETATM   45  C   UNK N   1      34.672  10.303  19.596  0.00  0.00    -0.034 A 
HETATM   46  C   UNK N   1      34.117  10.385  20.872  0.00  0.00     0.011 A 
HETATM   47  C   UNK N   1      33.314   9.356  21.346  0.00  0.00     0.030 A 
HETATM   48  C   UNK N   1      33.037   8.257  20.532  0.00  0.00     0.034 A 
HETATM   49  C   UNK N   1      33.540   8.204  19.226  0.00  0.00     0.030 A 
HETATM   50  C   UNK N   1      34.345   9.235  18.752  0.00  0.00     0.011 A 
BRANCH  48  51
HETATM   51  N   UNK N   1      32.630   7.058  21.147  0.00  0.00    -0.328 N 
HETATM   52  C   UNK N   1      31.310   6.727  21.104  0.00  0.00     0.218 C 
HETATM   53  C   UNK N   1      30.835   5.464  21.718  0.00  0.00     0.117 C 
HETATM   54  O   UNK N   1      30.502   7.457  20.542  0.00  0.00    -0.274 OA
HETATM   55  H   UNK N   1      33.283   6.473  21.595  0.00  0.00     0.169 HD
ENDBRANCH  48  51
ENDBRANCH  44  45
ENDBRANCH  43  44
ENDBRANCH  40  43
ENDBRANCH   3  35
TORSDOF 12
ENDMDL
MODEL 3
REMARK VINA RESULT:      -8.7      2.561      3.643
REMARK  12 active torsions:
REMARK  status: ('A' for Active; 'I' for Inactive)
REMARK    1  A    between atoms: C_2  and  C_4 
REMARK    2  A    between atoms: C_4  and  C_5 
REMARK    3  A    between atoms: C_5  and  N_6 
REMARK    4  A    between atoms: C_5  and  C_11 
REMARK       I    between atoms: C_8  and  N_9 
REMARK       I    between atoms: C_8  and  N_10 
REMARK       I    between atoms: C_11  and  N_13 
REMARK    5  A    between atoms: N_13  and  C_14 
REMARK    6  A    between atoms: C_14  and  C_15 
REMARK       I    between atoms: C_15  and  N_17 
REMARK    7  A    between atoms: C_20  and  C_23 
REMARK    8  A    between atoms: C_25  and  C_30 
REMARK    9  A    between atoms: C_35  and  O_36 
REMARK   10  A    between atoms: O_36  and  C_37 
REMARK   11  A    between atoms: C_37  and  C_38 
REMARK   12  A    between atoms: C_41  and  N_42 
REMARK       I    between atoms: N_42  and  C_43 
ROOT
HETATM    1  C   UNK N   1      29.956  17.522   8.100  0.00  0.00     0.034 A 
HETATM    2  C   UNK N   1      29.386  17.812   6.912  0.00  0.00     0.059 A 
HETATM    3  C   UNK N   1      28.138  18.226   7.171  0.00  0.00     0.062 A 
HETATM    4  N   UNK N   1      27.925  18.195   8.510  0.00  0.00    -0.298 N 
ATOM      5  HN  UNK N   1      27.065  18.448   8.995  1.00  0.00     0.187 HD
HETATM    6  N   UNK N   1      29.053  17.769   9.071  0.00  0.00    -0.300 N 
HETATM    7  C   UNK N   1      29.233  17.564  10.499  0.00  0.00     0.177 C 
ENDROOT
BRANCH   1   8
HETATM    8  C   UNK N   1      31.348  16.958   8.158  0.00  0.00     0.040 C 
HETATM    9  C   UNK N   1      31.528  16.147   6.840  0.00  0.00     0.030 C 
HETATM   10  C   UNK N   1      32.248  16.991   5.799  0.00  0.00     0.126 C 
HETATM   11  N   UNK N   1      33.561  16.987   6.347  0.00  0.00    -0.351 N 
HETATM   12  C   UNK N   1      34.329  15.896   6.023  0.00  0.00     0.237 C 
HETATM   13  C   UNK N   1      33.760  17.745   7.584  0.00  0.00     0.126 C 
HETATM   14  O   UNK N   1      34.067  15.238   5.024  0.00  0.00    -0.272 OA
HETATM   15  C   UNK N   1      32.415  18.075   8.298  0.00  0.00     0.030 C 
BRANCH  12  16
HETATM   16  C   UNK N   1      35.359  15.360   6.952  0.00  0.00     0.225 C 
BRANCH  16  17
HETATM   17  N   UNK N   1      36.056  14.297   6.268  0.00  0.00    -0.351 N 
HETATM   18  C   UNK N   1      36.243  13.078   6.826  0.00  0.00     0.241 C 
HETATM   19  O   UNK N   1      36.674  12.171   6.130  0.00  0.00    -0.271 OA
HETATM   20  H   UNK N   1      36.407  14.465   5.364  0.00  0.00     0.163 HD
BRANCH  18  21
HETATM   21  C   UNK N   1      35.954  12.836   8.298  0.00  0.00     0.192 C 
BRANCH  21  22
HETATM   22  C   UNK N   1      37.144  12.216   9.020  0.00  0.00     0.039 C 
BRANCH  22  23
HETATM   23  C   UNK N   1      37.641  13.098  10.154  0.00  0.00    -0.020 C 
HETATM   24  C   UNK N   1      37.052  12.592  11.452  0.00  0.00     0.009 C 
HETATM   25  C   UNK N   1      37.235  14.547   9.967  0.00  0.00     0.009 C 
ENDBRANCH  22  23
ENDBRANCH  21  22
BRANCH  21  26
HETATM   26  N   UNK N   1      34.776  12.020   8.503  0.00  0.00    -0.214 N 
HETATM   27  C   UNK N   1      33.791  12.425   9.235  0.00  0.00     0.666 C 
HETATM   28  N   UNK N   1      33.818  13.705   9.844  0.00  0.00    -0.235 N 
HETATM   29  N   UNK N   1      32.644  11.616   9.374  0.00  0.00    -0.235 N 
HETATM   30  H   UNK N   1      33.353  14.573   9.864  0.00  0.00     0.174 HD
HETATM   31  H   UNK N   1      34.572  13.738  10.475  0.00  0.00     0.174 HD
HETATM   32  H   UNK N   1      32.224  10.854   8.913  0.00  0.00     0.174 HD
HETATM   33  H   UNK N   1      32.112  11.891  10.156  0.00  0.00     0.174 HD
ATOM     34  HN  UNK N   1      34.721  11.103   8.057  1.00  0.00     0.178 HD
ENDBRANCH  21  26
ENDBRANCH  18  21
ENDBRANCH  16  17
ENDBRANCH  12  16
ENDBRANCH   1   8
BRANCH   3  35
HETATM   35  C   UNK N   1      27.229  18.613   6.079  0.00  0.00     0.016 A 
HETATM   36  C   UNK N   1      26.668  17.628   5.195  0.00  0.00     0.071 A 
HETATM   37 Cl   UNK N   1      26.993  15.875   5.297  0.00  0.00    -0.081 Cl
HETATM   38  C   UNK N   1      25.844  18.029   4.150  0.00  0.00     0.090 A 
HETATM   39 Cl   UNK N   1      25.166  16.789   3.078  0.00  0.00    -0.080 Cl
HETATM   40  C   UNK N   1      25.572  19.396   3.959  0.00  0.00     0.092 A 
HETATM   41  C   UNK N   1      26.078  20.345   4.851  0.00  0.00     0.039 A 
HETATM   42  C   UNK N   1      26.906  19.958   5.901  0.00  0.00     0.018 A 
BRANCH  40  43
HETATM   43  O   UNK N   1      24.892  19.823   2.884  0.00  0.00    -0.345 OA
BRANCH  43  44
HETATM   44  C   UNK N   1      23.827  20.675   3.074  0.00  0.00     0.214 C 
BRANCH  44  45
HETATM   45  C   UNK N   1      22.511  20.017   2.889  0.00  0.00    -0.034 A 
HETATM   46  C   UNK N   1      22.272  18.828   3.577  0.00  0.00     0.011 A 
HETATM   47  C   UNK N   1      21.129  18.088   3.305  0.00  0.00     0.030 A 
HETATM   48  C   UNK N   1      20.206  18.551   2.366  0.00  0.00     0.034 A 
HETATM   49  C   UNK N   1      20.413  19.778   1.723  0.00  0.00     0.030 A 
HETATM   50  C   UNK N   1      21.558  20.519   1.994  0.00  0.00     0.011 A 
BRANCH  48  51
HETATM   51  N   UNK N   1      19.328  17.621   1.779  0.00  0.00    -0.328 N 
HETATM   52  C   UNK N   1      19.648  17.114   0.558  0.00  0.00     0.218 C 
HETATM   53  C   UNK N   1      18.767  16.113  -0.092  0.00  0.00     0.117 C 
HETATM   54  O   UNK N   1      20.677  17.461  -0.012  0.00  0.00    -0.274 OA
HETATM   55  H   UNK N   1      18.504  17.343   2.242  0.00  0.00     0.169 HD
ENDBRANCH  48  51
ENDBRANCH  44  45
ENDBRANCH  43  44
ENDBRANCH  40  43
ENDBRANCH   3  35
TORSDOF 12
ENDMDL
MODEL 4
REMARK VINA RESULT:      -8.7      2.779     14.072
REMARK  12 active torsions:
REMARK  status: ('A' for Active; 'I' for Inactive)
REMARK    1  A    between atoms: C_2  and  C_4 
REMARK    2  A    between atoms: C_4  and  C_5 
REMARK    3  A    between atoms: C_5  and  N_6 
REMARK    4  A    between atoms: C_5  and  C_11 
REMARK       I    between atoms: C_8  and  N_9 
REMARK       I    between atoms: C_8  and  N_10 
REMARK       I    between atoms: C_11  and  N_13 
REMARK    5  A    between atoms: N_13  and  C_14 
REMARK    6  A    between atoms: C_14  and  C_15 
REMARK       I    between atoms: C_15  and  N_17 
REMARK    7  A    between atoms: C_20  and  C_23 
REMARK    8  A    between atoms: C_25  and  C_30 
REMARK    9  A    between atoms: C_35  and  O_36 
REMARK   10  A    between atoms: O_36  and  C_37 
REMARK   11  A    between atoms: C_37  and  C_38 
REMARK   12  A    between atoms: C_41  and  N_42 
REMARK       I    between atoms: N_42  and  C_43 
ROOT
HETATM    1  C   UNK N   1      26.982  18.127   4.119  0.00  0.00     0.034 A 
HETATM    2  C   UNK N   1      27.879  17.261   4.636  0.00  0.00     0.059 A 
HETATM    3  C   UNK N   1      29.020  17.942   4.812  0.00  0.00     0.062 A 
HETATM    4  N   UNK N   1      28.842  19.225   4.408  0.00  0.00    -0.298 N 
ATOM      5  HN  UNK N   1      29.540  19.968   4.419  1.00  0.00     0.187 HD
HETATM    6  N   UNK N   1      27.583  19.328   3.992  0.00  0.00    -0.300 N 
HETATM    7  C   UNK N   1      26.997  20.541   3.447  0.00  0.00     0.177 C 
ENDROOT
BRANCH   1   8
HETATM    8  C   UNK N   1      25.607  17.658   3.734  0.00  0.00     0.040 C 
HETATM    9  C   UNK N   1      25.825  16.372   2.884  0.00  0.00     0.030 C 
HETATM   10  C   UNK N   1      25.664  15.134   3.754  0.00  0.00     0.126 C 
HETATM   11  N   UNK N   1      24.253  15.148   3.941  0.00  0.00    -0.351 N 
HETATM   12  C   UNK N   1      23.523  14.561   2.937  0.00  0.00     0.237 C 
HETATM   13  C   UNK N   1      23.711  16.218   4.781  0.00  0.00     0.126 C 
HETATM   14  O   UNK N   1      24.048  13.736   2.201  0.00  0.00    -0.272 OA
HETATM   15  C   UNK N   1      24.724  17.385   4.980  0.00  0.00     0.030 C 
BRANCH  12  16
HETATM   16  C   UNK N   1      22.160  15.035   2.581  0.00  0.00     0.225 C 
BRANCH  16  17
HETATM   17  N   UNK N   1      21.212  14.090   3.120  0.00  0.00    -0.351 N 
HETATM   18  C   UNK N   1      20.177  14.471   3.906  0.00  0.00     0.241 C 
HETATM   19  O   UNK N   1      19.310  13.653   4.176  0.00  0.00    -0.271 OA
HETATM   20  H   UNK N   1      21.322  13.135   2.909  0.00  0.00     0.163 HD
BRANCH  18  21
HETATM   21  C   UNK N   1      20.098  15.878   4.471  0.00  0.00     0.192 C 
BRANCH  21  22
HETATM   22  C   UNK N   1      19.642  15.886   5.925  0.00  0.00     0.039 C 
BRANCH  22  23
HETATM   23  C   UNK N   1      20.713  16.438   6.852  0.00  0.00    -0.020 C 
HETATM   24  C   UNK N   1      21.385  15.280   7.556  0.00  0.00     0.009 C 
HETATM   25  C   UNK N   1      20.134  17.373   7.896  0.00  0.00     0.009 C 
ENDBRANCH  22  23
ENDBRANCH  21  22
BRANCH  21  26
HETATM   26  N   UNK N   1      19.243  16.743   3.684  0.00  0.00    -0.214 N 
HETATM   27  C   UNK N   1      19.661  17.880   3.235  0.00  0.00     0.666 C 
HETATM   28  N   UNK N   1      20.991  18.311   3.473  0.00  0.00    -0.235 N 
HETATM   29  N   UNK N   1      18.809  18.673   2.437  0.00  0.00    -0.235 N 
HETATM   30  H   UNK N   1      21.832  18.546   3.018  0.00  0.00     0.174 HD
HETATM   31  H   UNK N   1      21.120  18.412   4.443  0.00  0.00     0.174 HD
HETATM   32  H   UNK N   1      17.988  18.559   1.905  0.00  0.00     0.174 HD
HETATM   33  H   UNK N   1      19.126  19.604   2.402  0.00  0.00     0.174 HD
ATOM     34  HN  UNK N   1      18.289  16.447   3.479  1.00  0.00     0.178 HD
ENDBRANCH  21  26
ENDBRANCH  18  21
ENDBRANCH  16  17
ENDBRANCH  12  16
ENDBRANCH   1   8
BRANCH   3  35
HETATM   35  C   UNK N   1      30.217  17.280   5.356  0.00  0.00     0.016 A 
HETATM   36  C   UNK N   1      30.296  16.907   6.742  0.00  0.00     0.071 A 
HETATM   37 Cl   UNK N   1      29.004  17.193   7.941  0.00  0.00    -0.081 Cl
HETATM   38  C   UNK N   1      31.455  16.318   7.232  0.00  0.00     0.090 A 
HETATM   39 Cl   UNK N   1      31.519  15.869   8.948  0.00  0.00    -0.080 Cl
HETATM   40  C   UNK N   1      32.547  16.100   6.372  0.00  0.00     0.092 A 
HETATM   41  C   UNK N   1      32.448  16.417   5.016  0.00  0.00     0.039 A 
HETATM   42  C   UNK N   1      31.293  17.009   4.510  0.00  0.00     0.018 A 
BRANCH  40  43
HETATM   43  O   UNK N   1      33.723  15.659   6.845  0.00  0.00    -0.345 OA
BRANCH  43  44
HETATM   44  C   UNK N   1      34.463  16.493   7.651  0.00  0.00     0.214 C 
BRANCH  44  45
HETATM   45  C   UNK N   1      34.783  15.899   8.972  0.00  0.00    -0.034 A 
HETATM   46  C   UNK N   1      34.969  16.762  10.050  0.00  0.00     0.011 A 
HETATM   47  C   UNK N   1      35.439  16.269  11.260  0.00  0.00     0.030 A 
HETATM   48  C   UNK N   1      35.693  14.905  11.405  0.00  0.00     0.034 A 
HETATM   49  C   UNK N   1      35.444  14.026  10.343  0.00  0.00     0.030 A 
HETATM   50  C   UNK N   1      34.975  14.520   9.130  0.00  0.00     0.011 A 
BRANCH  48  51
HETATM   51  N   UNK N   1      36.567  14.495  12.429  0.00  0.00    -0.328 N 
HETATM   52  C   UNK N   1      36.038  13.877  13.520  0.00  0.00     0.218 C 
HETATM   53  C   UNK N   1      36.920  13.407  14.616  0.00  0.00     0.117 C 
HETATM   54  O   UNK N   1      34.830  13.684  13.603  0.00  0.00    -0.274 OA
HETATM   55  H   UNK N   1      37.537  14.650  12.357  0.00  0.00     0.169 HD
ENDBRANCH  48  51
ENDBRANCH  44  45
ENDBRANCH  43  44
ENDBRANCH  40  43
ENDBRANCH   3  35
TORSDOF 12
ENDMDL
MODEL 5
REMARK VINA RESULT:      -8.7      2.723     14.436
REMARK  12 active torsions:
REMARK  status: ('A' for Active; 'I' for Inactive)
REMARK    1  A    between atoms: C_2  and  C_4 
REMARK    2  A    between atoms: C_4  and  C_5 
REMARK    3  A    between atoms: C_5  and  N_6 
REMARK    4  A    between atoms: C_5  and  C_11 
REMARK       I    between atoms: C_8  and  N_9 
REMARK       I    between atoms: C_8  and  N_10 
REMARK       I    between atoms: C_11  and  N_13 
REMARK    5  A    between atoms: N_13  and  C_14 
REMARK    6  A    between atoms: C_14  and  C_15 
REMARK       I    between atoms: C_15  and  N_17 
REMARK    7  A    between atoms: C_20  and  C_23 
REMARK    8  A    between atoms: C_25  and  C_30 
REMARK    9  A    between atoms: C_35  and  O_36 
REMARK   10  A    between atoms: O_36  and  C_37 
REMARK   11  A    between atoms: C_37  and  C_38 
REMARK   12  A    between atoms: C_41  and  N_42 
REMARK       I    between atoms: N_42  and  C_43 
ROOT
HETATM    1  C   UNK N   1      26.319  17.602   5.314  0.00  0.00     0.034 A 
HETATM    2  C   UNK N   1      27.390  16.994   5.866  0.00  0.00     0.059 A 
HETATM    3  C   UNK N   1      28.274  17.957   6.160  0.00  0.00     0.062 A 
HETATM    4  N   UNK N   1      27.764  19.160   5.795  0.00  0.00    -0.298 N 
ATOM      5  HN  UNK N   1      28.218  20.067   5.893  1.00  0.00     0.187 HD
HETATM    6  N   UNK N   1      26.558  18.929   5.285  0.00  0.00    -0.300 N 
HETATM    7  C   UNK N   1      25.686  19.959   4.744  0.00  0.00     0.177 C 
ENDROOT
BRANCH   1   8
HETATM    8  C   UNK N   1      25.163  16.789   4.801  0.00  0.00     0.040 C 
HETATM    9  C   UNK N   1      25.344  16.731   3.256  0.00  0.00     0.030 C 
HETATM   10  C   UNK N   1      26.031  15.433   2.856  0.00  0.00     0.126 C 
HETATM   11  N   UNK N   1      24.967  14.514   3.079  0.00  0.00    -0.351 N 
HETATM   12  C   UNK N   1      24.076  14.385   2.043  0.00  0.00     0.237 C 
HETATM   13  C   UNK N   1      24.586  14.274   4.473  0.00  0.00     0.126 C 
HETATM   14  O   UNK N   1      24.414  14.686   0.905  0.00  0.00    -0.272 OA
HETATM   15  C   UNK N   1      25.132  15.373   5.433  0.00  0.00     0.030 C 
BRANCH  12  16
HETATM   16  C   UNK N   1      22.641  14.076   2.277  0.00  0.00     0.225 C 
BRANCH  16  17
HETATM   17  N   UNK N   1      21.903  14.515   1.117  0.00  0.00    -0.351 N 
HETATM   18  C   UNK N   1      20.931  15.455   1.192  0.00  0.00     0.241 C 
HETATM   19  O   UNK N   1      20.474  15.913   0.155  0.00  0.00    -0.271 OA
HETATM   20  H   UNK N   1      22.113  14.118   0.243  0.00  0.00     0.163 HD
BRANCH  18  21
HETATM   21  C   UNK N   1      20.387  15.917   2.533  0.00  0.00     0.192 C 
BRANCH  21  22
HETATM   22  C   UNK N   1      19.611  14.818   3.246  0.00  0.00     0.039 C 
BRANCH  22  23
HETATM   23  C   UNK N   1      19.785  14.888   4.755  0.00  0.00    -0.020 C 
HETATM   24  C   UNK N   1      18.645  15.695   5.335  0.00  0.00     0.009 C 
HETATM   25  C   UNK N   1      21.095  15.544   5.145  0.00  0.00     0.009 C 
ENDBRANCH  22  23
ENDBRANCH  21  22
BRANCH  21  26
HETATM   26  N   UNK N   1      19.564  17.103   2.415  0.00  0.00    -0.214 N 
HETATM   27  C   UNK N   1      20.016  18.274   2.723  0.00  0.00     0.666 C 
HETATM   28  N   UNK N   1      21.354  18.444   3.161  0.00  0.00    -0.235 N 
HETATM   29  N   UNK N   1      19.194  19.408   2.555  0.00  0.00    -0.235 N 
HETATM   30  H   UNK N   1      22.206  18.879   2.928  0.00  0.00     0.174 HD
HETATM   31  H   UNK N   1      21.475  17.947   4.002  0.00  0.00     0.174 HD
HETATM   32  H   UNK N   1      18.376  19.653   2.065  0.00  0.00     0.174 HD
HETATM   33  H   UNK N   1      19.535  20.170   3.075  0.00  0.00     0.174 HD
ATOM     34  HN  UNK N   1      18.604  17.012   2.081  1.00  0.00     0.178 HD
ENDBRANCH  21  26
ENDBRANCH  18  21
ENDBRANCH  16  17
ENDBRANCH  12  16
ENDBRANCH   1   8
BRANCH   3  35
HETATM   35  C   UNK N   1      29.573  17.627   6.770  0.00  0.00     0.016 A 
HETATM   36  C   UNK N   1      30.704  17.263   5.960  0.00  0.00     0.071 A 
HETATM   37 Cl   UNK N   1      30.679  17.159   4.178  0.00  0.00    -0.081 Cl
HETATM   38  C   UNK N   1      31.906  16.921   6.569  0.00  0.00     0.090 A 
HETATM   39 Cl   UNK N   1      33.282  16.477   5.541  0.00  0.00    -0.080 Cl
HETATM   40  C   UNK N   1      32.005  16.925   7.972  0.00  0.00     0.092 A 
HETATM   41  C   UNK N   1      30.920  17.328   8.753  0.00  0.00     0.039 A 
HETATM   42  C   UNK N   1      29.709  17.672   8.158  0.00  0.00     0.018 A 
BRANCH  40  43
HETATM   43  O   UNK N   1      33.108  16.471   8.589  0.00  0.00    -0.345 OA
BRANCH  43  44
HETATM   44  C   UNK N   1      33.085  15.207   9.131  0.00  0.00     0.214 C 
BRANCH  44  45
HETATM   45  C   UNK N   1      34.263  14.914   9.983  0.00  0.00    -0.034 A 
HETATM   46  C   UNK N   1      34.678  13.588  10.092  0.00  0.00     0.011 A 
HETATM   47  C   UNK N   1      35.662  13.243  11.009  0.00  0.00     0.030 A 
HETATM   48  C   UNK N   1      36.256  14.230  11.798  0.00  0.00     0.034 A 
HETATM   49  C   UNK N   1      35.886  15.571  11.643  0.00  0.00     0.030 A 
HETATM   50  C   UNK N   1      34.900  15.917  10.725  0.00  0.00     0.011 A 
BRANCH  48  51
HETATM   51  N   UNK N   1      36.886  13.837  12.994  0.00  0.00    -0.328 N 
HETATM   52  C   UNK N   1      36.103  13.509  14.058  0.00  0.00     0.218 C 
HETATM   53  C   UNK N   1      36.718  13.067  15.333  0.00  0.00     0.117 C 
HETATM   54  O   UNK N   1      34.881  13.555  13.970  0.00  0.00    -0.274 OA
HETATM   55  H   UNK N   1      37.868  13.799  13.059  0.00  0.00     0.169 HD
ENDBRANCH  48  51
ENDBRANCH  44  45
ENDBRANCH  43  44
ENDBRANCH  40  43
ENDBRANCH   3  35
TORSDOF 12
ENDMDL
MODEL 6
REMARK VINA RESULT:      -8.6      6.942     15.962
REMARK  12 active torsions:
REMARK  status: ('A' for Active; 'I' for Inactive)
REMARK    1  A    between atoms: C_2  and  C_4 
REMARK    2  A    between atoms: C_4  and  C_5 
REMARK    3  A    between atoms: C_5  and  N_6 
REMARK    4  A    between atoms: C_5  and  C_11 
REMARK       I    between atoms: C_8  and  N_9 
REMARK       I    between atoms: C_8  and  N_10 
REMARK       I    between atoms: C_11  and  N_13 
REMARK    5  A    between atoms: N_13  and  C_14 
REMARK    6  A    between atoms: C_14  and  C_15 
REMARK       I    between atoms: C_15  and  N_17 
REMARK    7  A    between atoms: C_20  and  C_23 
REMARK    8  A    between atoms: C_25  and  C_30 
REMARK    9  A    between atoms: C_35  and  O_36 
REMARK   10  A    between atoms: O_36  and  C_37 
REMARK   11  A    between atoms: C_37  and  C_38 
REMARK   12  A    between atoms: C_41  and  N_42 
REMARK       I    between atoms: N_42  and  C_43 
ROOT
HETATM    1  C   UNK N   1      35.452  13.045  12.640  0.00  0.00     0.034 A 
HETATM    2  C   UNK N   1      34.903  12.690  13.821  0.00  0.00     0.059 A 
HETATM    3  C   UNK N   1      35.774  11.869  14.423  0.00  0.00     0.062 A 
HETATM    4  N   UNK N   1      36.862  11.709  13.628  0.00  0.00    -0.298 N 
ATOM      5  HN  UNK N   1      37.681  11.135  13.827  1.00  0.00     0.187 HD
HETATM    6  N   UNK N   1      36.656  12.445  12.539  0.00  0.00    -0.300 N 
HETATM    7  C   UNK N   1      37.577  12.524  11.417  0.00  0.00     0.177 C 
ENDROOT
BRANCH   1   8
HETATM    8  C   UNK N   1      34.692  13.914  11.678  0.00  0.00     0.040 C 
HETATM    9  C   UNK N   1      35.311  15.337  11.818  0.00  0.00     0.030 C 
HETATM   10  C   UNK N   1      36.344  15.570  10.726  0.00  0.00     0.126 C 
HETATM   11  N   UNK N   1      35.484  15.714   9.602  0.00  0.00    -0.351 N 
HETATM   12  C   UNK N   1      34.972  16.974   9.413  0.00  0.00     0.237 C 
HETATM   13  C   UNK N   1      34.786  14.509   9.148  0.00  0.00     0.126 C 
HETATM   14  O   UNK N   1      35.545  17.945   9.891  0.00  0.00    -0.272 OA
HETATM   15  C   UNK N   1      34.789  13.383  10.224  0.00  0.00     0.030 C 
BRANCH  12  16
HETATM   16  C   UNK N   1      33.631  17.192   8.810  0.00  0.00     0.225 C 
BRANCH  16  17
HETATM   17  N   UNK N   1      33.817  17.426   7.398  0.00  0.00    -0.351 N 
HETATM   18  C   UNK N   1      32.825  17.237   6.497  0.00  0.00     0.241 C 
HETATM   19  O   UNK N   1      32.990  17.627   5.350  0.00  0.00    -0.271 OA
HETATM   20  H   UNK N   1      34.696  17.734   7.081  0.00  0.00     0.163 HD
BRANCH  18  21
HETATM   21  C   UNK N   1      31.538  16.528   6.882  0.00  0.00     0.192 C 
BRANCH  21  22
HETATM   22  C   UNK N   1      31.209  15.383   5.932  0.00  0.00     0.039 C 
BRANCH  22  23
HETATM   23  C   UNK N   1      29.973  15.678   5.096  0.00  0.00    -0.020 C 
HETATM   24  C   UNK N   1      29.046  14.486   5.171  0.00  0.00     0.009 C 
HETATM   25  C   UNK N   1      30.320  15.936   3.642  0.00  0.00     0.009 C 
ENDBRANCH  22  23
ENDBRANCH  21  22
BRANCH  21  26
HETATM   26  N   UNK N   1      30.413  17.435   6.967  0.00  0.00    -0.214 N 
HETATM   27  C   UNK N   1      29.830  17.686   8.093  0.00  0.00     0.666 C 
HETATM   28  N   UNK N   1      30.295  17.099   9.298  0.00  0.00    -0.235 N 
HETATM   29  N   UNK N   1      28.763  18.607   8.139  0.00  0.00    -0.235 N 
HETATM   30  H   UNK N   1      30.677  17.318  10.179  0.00  0.00     0.174 HD
HETATM   31  H   UNK N   1      30.201  16.122   9.229  0.00  0.00     0.174 HD
HETATM   32  H   UNK N   1      28.394  19.329   7.580  0.00  0.00     0.174 HD
HETATM   33  H   UNK N   1      28.237  18.496   8.964  0.00  0.00     0.174 HD
ATOM     34  HN  UNK N   1      30.072  17.888   6.119  1.00  0.00     0.178 HD
ENDBRANCH  21  26
ENDBRANCH  18  21
ENDBRANCH  16  17
ENDBRANCH  12  16
ENDBRANCH   1   8
BRANCH   3  35
HETATM   35  C   UNK N   1      35.473  11.283  15.740  0.00  0.00     0.016 A 
HETATM   36  C   UNK N   1      35.489  12.086  16.932  0.00  0.00     0.071 A 
HETATM   37 Cl   UNK N   1      35.870  13.830  16.971  0.00  0.00    -0.081 Cl
HETATM   38  C   UNK N   1      35.237  11.495  18.164  0.00  0.00     0.090 A 
HETATM   39 Cl   UNK N   1      35.263  12.515  19.616  0.00  0.00    -0.080 Cl
HETATM   40  C   UNK N   1      34.977  10.114  18.238  0.00  0.00     0.092 A 
HETATM   41  C   UNK N   1      34.912   9.348  17.073  0.00  0.00     0.039 A 
HETATM   42  C   UNK N   1      35.163   9.926  15.831  0.00  0.00     0.018 A 
BRANCH  40  43
HETATM   43  O   UNK N   1      34.864   9.494  19.423  0.00  0.00    -0.345 OA
BRANCH  43  44
HETATM   44  C   UNK N   1      33.657   8.921  19.753  0.00  0.00     0.214 C 
BRANCH  44  45
HETATM   45  C   UNK N   1      33.249   9.182  21.155  0.00  0.00    -0.034 A 
HETATM   46  C   UNK N   1      32.563   8.177  21.834  0.00  0.00     0.011 A 
HETATM   47  C   UNK N   1      32.011   8.436  23.082  0.00  0.00     0.030 A 
HETATM   48  C   UNK N   1      32.171   9.692  23.667  0.00  0.00     0.034 A 
HETATM   49  C   UNK N   1      32.916  10.682  23.015  0.00  0.00     0.030 A 
HETATM   50  C   UNK N   1      33.468  10.424  21.765  0.00  0.00     0.011 A 
BRANCH  48  51
HETATM   51  N   UNK N   1      31.261  10.081  24.668  0.00  0.00    -0.328 N 
HETATM   52  C   UNK N   1      31.601   9.864  25.968  0.00  0.00     0.218 C 
HETATM   53  C   UNK N   1      30.687  10.277  27.061  0.00  0.00     0.117 C 
HETATM   54  O   UNK N   1      32.674   9.345  26.254  0.00  0.00    -0.274 OA
HETATM   55  H   UNK N   1      30.402  10.501  24.434  0.00  0.00     0.169 HD
ENDBRANCH  48  51
ENDBRANCH  44  45
ENDBRANCH  43  44
ENDBRANCH  40  43
ENDBRANCH   3  35
TORSDOF 12
ENDMDL
MODEL 7
REMARK VINA RESULT:      -8.6      2.711     14.533
REMARK  12 active torsions:
REMARK  status: ('A' for Active; 'I' for Inactive)
REMARK    1  A    between atoms: C_2  and  C_4 
REMARK    2  A    between atoms: C_4  and  C_5 
REMARK    3  A    between atoms: C_5  and  N_6 
REMARK    4  A    between atoms: C_5  and  C_11 
REMARK       I    between atoms: C_8  and  N_9 
REMARK       I    between atoms: C_8  and  N_10 
REMARK       I    between atoms: C_11  and  N_13 
REMARK    5  A    between atoms: N_13  and  C_14 
REMARK    6  A    between atoms: C_14  and  C_15 
REMARK       I    between atoms: C_15  and  N_17 
REMARK    7  A    between atoms: C_20  and  C_23 
REMARK    8  A    between atoms: C_25  and  C_30 
REMARK    9  A    between atoms: C_35  and  O_36 
REMARK   10  A    between atoms: O_36  and  C_37 
REMARK   11  A    between atoms: C_37  and  C_38 
REMARK   12  A    between atoms: C_41  and  N_42 
REMARK       I    between atoms: N_42  and  C_43 
ROOT
HETATM    1  C   UNK N   1      26.860  17.783   4.392  0.00  0.00     0.034 A 
HETATM    2  C   UNK N   1      27.797  17.050   5.029  0.00  0.00     0.059 A 
HETATM    3  C   UNK N   1      28.878  17.831   5.160  0.00  0.00     0.062 A 
HETATM    4  N   UNK N   1      28.623  19.044   4.609  0.00  0.00    -0.298 N 
ATOM      5  HN  UNK N   1      29.264  19.835   4.557  1.00  0.00     0.187 HD
HETATM    6  N   UNK N   1      27.376  19.005   4.148  0.00  0.00    -0.300 N 
HETATM    7  C   UNK N   1      26.723  20.103   3.454  0.00  0.00     0.177 C 
ENDROOT
BRANCH   1   8
HETATM    8  C   UNK N   1      25.537  17.171   4.023  0.00  0.00     0.040 C 
HETATM    9  C   UNK N   1      25.571  15.723   4.595  0.00  0.00     0.030 C 
HETATM   10  C   UNK N   1      24.864  15.674   5.942  0.00  0.00     0.126 C 
HETATM   11  N   UNK N   1      23.513  15.809   5.515  0.00  0.00    -0.351 N 
HETATM   12  C   UNK N   1      22.901  14.642   5.129  0.00  0.00     0.237 C 
HETATM   13  C   UNK N   1      23.119  17.114   4.980  0.00  0.00     0.126 C 
HETATM   14  O   UNK N   1      23.325  13.567   5.533  0.00  0.00    -0.272 OA
HETATM   15  C   UNK N   1      24.348  17.989   4.590  0.00  0.00     0.030 C 
BRANCH  12  16
HETATM   16  C   UNK N   1      21.853  14.619   4.076  0.00  0.00     0.225 C 
BRANCH  16  17
HETATM   17  N   UNK N   1      22.499  14.317   2.821  0.00  0.00    -0.351 N 
HETATM   18  C   UNK N   1      21.971  14.682   1.629  0.00  0.00     0.241 C 
HETATM   19  O   UNK N   1      22.653  14.560   0.621  0.00  0.00    -0.271 OA
HETATM   20  H   UNK N   1      23.352  13.827   2.833  0.00  0.00     0.163 HD
BRANCH  18  21
HETATM   21  C   UNK N   1      20.550  15.209   1.528  0.00  0.00     0.192 C 
BRANCH  21  22
HETATM   22  C   UNK N   1      19.675  14.328   0.645  0.00  0.00     0.039 C 
BRANCH  22  23
HETATM   23  C   UNK N   1      19.412  12.972   1.280  0.00  0.00    -0.020 C 
HETATM   24  C   UNK N   1      20.227  11.930   0.548  0.00  0.00     0.009 C 
HETATM   25  C   UNK N   1      17.947  12.585   1.207  0.00  0.00     0.009 C 
ENDBRANCH  22  23
ENDBRANCH  21  22
BRANCH  21  26
HETATM   26  N   UNK N   1      20.501  16.578   1.058  0.00  0.00    -0.214 N 
HETATM   27  C   UNK N   1      20.009  17.526   1.786  0.00  0.00     0.666 C 
HETATM   28  N   UNK N   1      19.523  17.261   3.092  0.00  0.00    -0.235 N 
HETATM   29  N   UNK N   1      20.017  18.852   1.307  0.00  0.00    -0.235 N 
HETATM   30  H   UNK N   1      19.670  17.477   4.041  0.00  0.00     0.174 HD
HETATM   31  H   UNK N   1      18.766  16.636   3.025  0.00  0.00     0.174 HD
HETATM   32  H   UNK N   1      20.480  19.378   0.615  0.00  0.00     0.174 HD
HETATM   33  H   UNK N   1      19.379  19.411   1.807  0.00  0.00     0.174 HD
ATOM     34  HN  UNK N   1      20.864  16.800   0.131  1.00  0.00     0.178 HD
ENDBRANCH  21  26
ENDBRANCH  18  21
ENDBRANCH  16  17
ENDBRANCH  12  16
ENDBRANCH   1   8
BRANCH   3  35
HETATM   35  C   UNK N   1      30.100  17.326   5.808  0.00  0.00     0.016 A 
HETATM   36  C   UNK N   1      31.263  16.982   5.036  0.00  0.00     0.071 A 
HETATM   37 Cl   UNK N   1      31.370  17.108   3.258  0.00  0.00    -0.081 Cl
HETATM   38  C   UNK N   1      32.388  16.472   5.674  0.00  0.00     0.090 A 
HETATM   39 Cl   UNK N   1      33.806  16.057   4.693  0.00  0.00    -0.080 Cl
HETATM   40  C   UNK N   1      32.377  16.289   7.069  0.00  0.00     0.092 A 
HETATM   41  C   UNK N   1      31.265  16.673   7.821  0.00  0.00     0.039 A 
HETATM   42  C   UNK N   1      30.130  17.183   7.195  0.00  0.00     0.018 A 
BRANCH  40  43
HETATM   43  O   UNK N   1      33.395  15.676   7.694  0.00  0.00    -0.345 OA
BRANCH  43  44
HETATM   44  C   UNK N   1      34.255  16.436   8.453  0.00  0.00     0.214 C 
BRANCH  44  45
HETATM   45  C   UNK N   1      34.666  15.772   9.713  0.00  0.00    -0.034 A 
HETATM   46  C   UNK N   1      35.348  16.533  10.661  0.00  0.00     0.011 A 
HETATM   47  C   UNK N   1      35.903  15.917  11.775  0.00  0.00     0.030 A 
HETATM   48  C   UNK N   1      35.750  14.543  11.961  0.00  0.00     0.034 A 
HETATM   49  C   UNK N   1      35.009  13.788  11.043  0.00  0.00     0.030 A 
HETATM   50  C   UNK N   1      34.453  14.404   9.927  0.00  0.00     0.011 A 
BRANCH  48  51
HETATM   51  N   UNK N   1      36.663  13.878  12.801  0.00  0.00    -0.328 N 
HETATM   52  C   UNK N   1      36.210  13.393  13.989  0.00  0.00     0.218 C 
HETATM   53  C   UNK N   1      37.128  12.666  14.900  0.00  0.00     0.117 C 
HETATM   54  O   UNK N   1      35.036  13.534  14.314  0.00  0.00    -0.274 OA
HETATM   55  H   UNK N   1      37.604  13.765  12.535  0.00  0.00     0.169 HD
ENDBRANCH  48  51
ENDBRANCH  44  45
ENDBRANCH  43  44
ENDBRANCH  40  43
ENDBRANCH   3  35
TORSDOF 12
ENDMDL
MODEL 8
REMARK VINA RESULT:      -8.6      2.795     14.334
REMARK  12 active torsions:
REMARK  status: ('A' for Active; 'I' for Inactive)
REMARK    1  A    between atoms: C_2  and  C_4 
REMARK    2  A    between atoms: C_4  and  C_5 
REMARK    3  A    between atoms: C_5  and  N_6 
REMARK    4  A    between atoms: C_5  and  C_11 
REMARK       I    between atoms: C_8  and  N_9 
REMARK       I    between atoms: C_8  and  N_10 
REMARK       I    between atoms: C_11  and  N_13 
REMARK    5  A    between atoms: N_13  and  C_14 
REMARK    6  A    between atoms: C_14  and  C_15 
REMARK       I    between atoms: C_15  and  N_17 
REMARK    7  A    between atoms: C_20  and  C_23 
REMARK    8  A    between atoms: C_25  and  C_30 
REMARK    9  A    between atoms: C_35  and  O_36 
REMARK   10  A    between atoms: O_36  and  C_37 
REMARK   11  A    between atoms: C_37  and  C_38 
REMARK   12  A    between atoms: C_41  and  N_42 
REMARK       I    between atoms: N_42  and  C_43 
ROOT
HETATM    1  C   UNK N   1      26.949  17.413   4.561  0.00  0.00     0.034 A 
HETATM    2  C   UNK N   1      27.986  16.751   5.114  0.00  0.00     0.059 A 
HETATM    3  C   UNK N   1      29.023  17.599   5.134  0.00  0.00     0.062 A 
HETATM    4  N   UNK N   1      28.641  18.785   4.597  0.00  0.00    -0.298 N 
ATOM      5  HN  UNK N   1      29.224  19.613   4.476  1.00  0.00     0.187 HD
HETATM    6  N   UNK N   1      27.362  18.661   4.256  0.00  0.00    -0.300 N 
HETATM    7  C   UNK N   1      26.579  19.704   3.615  0.00  0.00     0.177 C 
ENDROOT
BRANCH   1   8
HETATM    8  C   UNK N   1      25.639  16.715   4.324  0.00  0.00     0.040 C 
HETATM    9  C   UNK N   1      25.786  15.312   4.984  0.00  0.00     0.030 C 
HETATM   10  C   UNK N   1      25.175  15.319   6.377  0.00  0.00     0.126 C 
HETATM   11  N   UNK N   1      23.793  15.359   6.038  0.00  0.00    -0.351 N 
HETATM   12  C   UNK N   1      23.219  14.142   5.771  0.00  0.00     0.237 C 
HETATM   13  C   UNK N   1      23.296  16.606   5.450  0.00  0.00     0.126 C 
HETATM   14  O   UNK N   1      23.725  13.117   6.211  0.00  0.00    -0.272 OA
HETATM   15  C   UNK N   1      24.448  17.511   4.921  0.00  0.00     0.030 C 
BRANCH  12  16
HETATM   16  C   UNK N   1      22.106  13.997   4.797  0.00  0.00     0.225 C 
BRANCH  16  17
HETATM   17  N   UNK N   1      20.872  14.258   5.499  0.00  0.00    -0.351 N 
HETATM   18  C   UNK N   1      19.862  14.971   4.947  0.00  0.00     0.241 C 
HETATM   19  O   UNK N   1      18.781  15.000   5.517  0.00  0.00    -0.271 OA
HETATM   20  H   UNK N   1      20.762  13.906   6.411  0.00  0.00     0.163 HD
BRANCH  18  21
HETATM   21  C   UNK N   1      20.064  15.750   3.659  0.00  0.00     0.192 C 
BRANCH  21  22
HETATM   22  C   UNK N   1      19.773  17.236   3.837  0.00  0.00     0.039 C 
BRANCH  22  23
HETATM   23  C   UNK N   1      20.808  18.103   3.138  0.00  0.00    -0.020 C 
HETATM   24  C   UNK N   1      21.108  19.297   4.016  0.00  0.00     0.009 C 
HETATM   25  C   UNK N   1      20.317  18.599   1.791  0.00  0.00     0.009 C 
ENDBRANCH  22  23
ENDBRANCH  21  22
BRANCH  21  26
HETATM   26  N   UNK N   1      19.274  15.223   2.565  0.00  0.00    -0.214 N 
HETATM   27  C   UNK N   1      19.817  14.872   1.447  0.00  0.00     0.666 C 
HETATM   28  N   UNK N   1      21.221  14.964   1.260  0.00  0.00    -0.235 N 
HETATM   29  N   UNK N   1      19.018  14.324   0.422  0.00  0.00    -0.235 N 
HETATM   30  H   UNK N   1      22.024  14.423   1.084  0.00  0.00     0.174 HD
HETATM   31  H   UNK N   1      21.486  15.908   1.332  0.00  0.00     0.174 HD
HETATM   32  H   UNK N   1      18.128  13.911   0.328  0.00  0.00     0.174 HD
HETATM   33  H   UNK N   1      19.480  14.366  -0.446  0.00  0.00     0.174 HD
ATOM     34  HN  UNK N   1      18.265  15.125   2.681  1.00  0.00     0.178 HD
ENDBRANCH  21  26
ENDBRANCH  18  21
ENDBRANCH  16  17
ENDBRANCH  12  16
ENDBRANCH   1   8
BRANCH   3  35
HETATM   35  C   UNK N   1      30.329  17.181   5.669  0.00  0.00     0.016 A 
HETATM   36  C   UNK N   1      31.378  16.726   4.798  0.00  0.00     0.071 A 
HETATM   37 Cl   UNK N   1      31.237  16.604   3.022  0.00  0.00    -0.081 Cl
HETATM   38  C   UNK N   1      32.587  16.303   5.338  0.00  0.00     0.090 A 
HETATM   39 Cl   UNK N   1      33.862  15.747   4.236  0.00  0.00    -0.080 Cl
HETATM   40  C   UNK N   1      32.773  16.314   6.733  0.00  0.00     0.092 A 
HETATM   41  C   UNK N   1      31.770  16.806   7.572  0.00  0.00     0.039 A 
HETATM   42  C   UNK N   1      30.554  17.232   7.045  0.00  0.00     0.018 A 
BRANCH  40  43
HETATM   43  O   UNK N   1      33.875  15.788   7.288  0.00  0.00    -0.345 OA
BRANCH  43  44
HETATM   44  C   UNK N   1      34.595  16.554   8.177  0.00  0.00     0.214 C 
BRANCH  44  45
HETATM   45  C   UNK N   1      34.914  15.843   9.438  0.00  0.00    -0.034 A 
HETATM   46  C   UNK N   1      35.265  16.607  10.549  0.00  0.00     0.011 A 
HETATM   47  C   UNK N   1      35.738  15.986  11.697  0.00  0.00     0.030 A 
HETATM   48  C   UNK N   1      35.831  14.594  11.748  0.00  0.00     0.034 A 
HETATM   49  C   UNK N   1      35.417  13.821  10.656  0.00  0.00     0.030 A 
HETATM   50  C   UNK N   1      34.944  14.444   9.506  0.00  0.00     0.011 A 
BRANCH  48  51
HETATM   51  N   UNK N   1      36.705  14.019  12.690  0.00  0.00    -0.328 N 
HETATM   52  C   UNK N   1      36.174  13.503  13.831  0.00  0.00     0.218 C 
HETATM   53  C   UNK N   1      37.050  12.866  14.844  0.00  0.00     0.117 C 
HETATM   54  O   UNK N   1      34.964  13.539  14.029  0.00  0.00    -0.274 OA
HETATM   55  H   UNK N   1      37.675  13.990  12.526  0.00  0.00     0.169 HD
ENDBRANCH  48  51
ENDBRANCH  44  45
ENDBRANCH  43  44
ENDBRANCH  40  43
ENDBRANCH   3  35
TORSDOF 12
ENDMDL
MODEL 9
REMARK VINA RESULT:      -8.5      7.391     15.272
REMARK  12 active torsions:
REMARK  status: ('A' for Active; 'I' for Inactive)
REMARK    1  A    between atoms: C_2  and  C_4 
REMARK    2  A    between atoms: C_4  and  C_5 
REMARK    3  A    between atoms: C_5  and  N_6 
REMARK    4  A    between atoms: C_5  and  C_11 
REMARK       I    between atoms: C_8  and  N_9 
REMARK       I    between atoms: C_8  and  N_10 
REMARK       I    between atoms: C_11  and  N_13 
REMARK    5  A    between atoms: N_13  and  C_14 
REMARK    6  A    between atoms: C_14  and  C_15 
REMARK       I    between atoms: C_15  and  N_17 
REMARK    7  A    between atoms: C_20  and  C_23 
REMARK    8  A    between atoms: C_25  and  C_30 
REMARK    9  A    between atoms: C_35  and  O_36 
REMARK   10  A    between atoms: O_36  and  C_37 
REMARK   11  A    between atoms: C_37  and  C_38 
REMARK   12  A    between atoms: C_41  and  N_42 
REMARK       I    between atoms: N_42  and  C_43 
ROOT
HETATM    1  C   UNK N   1      36.427  12.808  11.184  0.00  0.00     0.034 A 
HETATM    2  C   UNK N   1      35.779  12.298  12.253  0.00  0.00     0.059 A 
HETATM    3  C   UNK N   1      36.718  11.863  13.105  0.00  0.00     0.062 A 
HETATM    4  N   UNK N   1      37.945  12.096  12.576  0.00  0.00    -0.298 N 
ATOM      5  HN  UNK N   1      38.843  11.863  12.999  1.00  0.00     0.187 HD
HETATM    6  N   UNK N   1      37.753  12.685  11.399  0.00  0.00    -0.300 N 
HETATM    7  C   UNK N   1      38.821  13.074  10.493  0.00  0.00     0.177 C 
ENDROOT
BRANCH   1   8
HETATM    8  C   UNK N   1      35.656  13.321  10.001  0.00  0.00     0.040 C 
HETATM    9  C   UNK N   1      35.648  12.156   8.967  0.00  0.00     0.030 C 
HETATM   10  C   UNK N   1      34.351  11.367   9.076  0.00  0.00     0.126 C 
HETATM   11  N   UNK N   1      33.447  12.302   8.497  0.00  0.00    -0.351 N 
HETATM   12  C   UNK N   1      33.372  12.275   7.127  0.00  0.00     0.237 C 
HETATM   13  C   UNK N   1      33.165  13.511   9.274  0.00  0.00     0.126 C 
HETATM   14  O   UNK N   1      33.706  11.268   6.516  0.00  0.00    -0.272 OA
HETATM   15  C   UNK N   1      34.219  13.753  10.396  0.00  0.00     0.030 C 
BRANCH  12  16
HETATM   16  C   UNK N   1      33.083  13.499   6.335  0.00  0.00     0.225 C 
BRANCH  16  17
HETATM   17  N   UNK N   1      34.319  13.930   5.727  0.00  0.00    -0.351 N 
HETATM   18  C   UNK N   1      34.877  15.133   5.998  0.00  0.00     0.241 C 
HETATM   19  O   UNK N   1      36.010  15.360   5.596  0.00  0.00    -0.271 OA
HETATM   20  H   UNK N   1      34.771  13.328   5.094  0.00  0.00     0.163 HD
BRANCH  18  21
HETATM   21  C   UNK N   1      34.111  16.201   6.759  0.00  0.00     0.192 C 
BRANCH  21  22
HETATM   22  C   UNK N   1      33.889  17.454   5.920  0.00  0.00     0.039 C 
BRANCH  22  23
HETATM   23  C   UNK N   1      32.617  17.363   5.092  0.00  0.00    -0.020 C 
HETATM   24  C   UNK N   1      31.589  16.574   5.872  0.00  0.00     0.009 C 
HETATM   25  C   UNK N   1      32.854  16.674   3.762  0.00  0.00     0.009 C 
ENDBRANCH  22  23
ENDBRANCH  21  22
BRANCH  21  26
HETATM   26  N   UNK N   1      34.751  16.554   8.009  0.00  0.00    -0.214 N 
HETATM   27  C   UNK N   1      34.071  16.991   9.017  0.00  0.00     0.666 C 
HETATM   28  N   UNK N   1      32.660  17.114   8.943  0.00  0.00    -0.235 N 
HETATM   29  N   UNK N   1      34.728  17.285  10.230  0.00  0.00    -0.235 N 
HETATM   30  H   UNK N   1      31.823  16.780   9.340  0.00  0.00     0.174 HD
HETATM   31  H   UNK N   1      32.437  17.768   8.243  0.00  0.00     0.174 HD
HETATM   32  H   UNK N   1      35.586  17.077  10.667  0.00  0.00     0.174 HD
HETATM   33  H   UNK N   1      34.171  17.860  10.802  0.00  0.00     0.174 HD
ATOM     34  HN  UNK N   1      35.762  16.454   8.097  1.00  0.00     0.178 HD
ENDBRANCH  21  26
ENDBRANCH  18  21
ENDBRANCH  16  17
ENDBRANCH  12  16
ENDBRANCH   1   8
BRANCH   3  35
HETATM   35  C   UNK N   1      36.343  11.232  14.382  0.00  0.00     0.016 A 
HETATM   36  C   UNK N   1      36.053  12.025  15.545  0.00  0.00     0.071 A 
HETATM   37 Cl   UNK N   1      36.114  13.809  15.594  0.00  0.00    -0.081 Cl
HETATM   38  C   UNK N   1      35.740  11.398  16.746  0.00  0.00     0.090 A 
HETATM   39 Cl   UNK N   1      35.386  12.405  18.163  0.00  0.00    -0.080 Cl
HETATM   40  C   UNK N   1      35.718   9.993  16.817  0.00  0.00     0.092 A 
HETATM   41  C   UNK N   1      35.951   9.228  15.672  0.00  0.00     0.039 A 
HETATM   42  C   UNK N   1      36.267   9.842  14.463  0.00  0.00     0.018 A 
BRANCH  40  43
HETATM   43  O   UNK N   1      35.552   9.362  17.989  0.00  0.00    -0.345 OA
BRANCH  43  44
HETATM   44  C   UNK N   1      34.341   8.764  18.248  0.00  0.00     0.214 C 
BRANCH  44  45
HETATM   45  C   UNK N   1      33.875   8.964  19.642  0.00  0.00    -0.034 A 
HETATM   46  C   UNK N   1      32.520   8.783  19.911  0.00  0.00     0.011 A 
HETATM   47  C   UNK N   1      32.008   9.126  21.156  0.00  0.00     0.030 A 
HETATM   48  C   UNK N   1      32.858   9.621  22.146  0.00  0.00     0.034 A 
HETATM   49  C   UNK N   1      34.230   9.742  21.898  0.00  0.00     0.030 A 
HETATM   50  C   UNK N   1      34.743   9.399  20.651  0.00  0.00     0.011 A 
BRANCH  48  51
HETATM   51  N   UNK N   1      32.292  10.370  23.195  0.00  0.00    -0.328 N 
HETATM   52  C   UNK N   1      32.008   9.731  24.363  0.00  0.00     0.218 C 
HETATM   53  C   UNK N   1      31.432  10.480  25.506  0.00  0.00     0.117 C 
HETATM   54  O   UNK N   1      32.241   8.534  24.492  0.00  0.00    -0.274 OA
HETATM   55  H   UNK N   1      32.109  11.331  23.088  0.00  0.00     0.169 HD
ENDBRANCH  48  51
ENDBRANCH  44  45
ENDBRANCH  43  44
ENDBRANCH  40  43
ENDBRANCH   3  35
TORSDOF 12
ENDMDL
