MODEL 1
REMARK VINA RESULT:      -7.2      0.000      0.000
REMARK  13 active torsions:
REMARK  status: ('A' for Active; 'I' for Inactive)
REMARK    1  A    between atoms: C_6  and  C_1 
REMARK    2  A    between atoms: O_30  and  C_1 
REMARK    3  A    between atoms: C_5  and  C_2 
REMARK    4  A    between atoms: S_32  and  C_2 
REMARK    5  A    between atoms: C_12  and  C_5 
REMARK    6  A    between atoms: C_5  and  N_14 
REMARK    7  A    between atoms: C_8  and  O_25 
REMARK    8  A    between atoms: C_9  and  O_26 
REMARK    9  A    between atoms: N_15  and  C_10 
REMARK   10  A    between atoms: O_27  and  C_12 
REMARK   11  A    between atoms: C_13  and  N_24 
REMARK   12  A    between atoms: N_22  and  S_33 
REMARK   13  A    between atoms: S_33  and  O_30 
ROOT
HETATM    1  C   UNK N   1      30.578  17.939   7.733  0.00  0.00     0.180 C 
HETATM    2  C   UNK N   1      29.898  18.059   9.093  0.00  0.00     0.182 C 
HETATM    3  C   UNK N   1      28.491  18.239   8.599  0.00  0.00     0.198 C 
HETATM    4  C   UNK N   1      28.476  17.141   7.532  0.00  0.00     0.262 C 
HETATM    5  O   UNK N   1      29.744  17.158   6.905  0.00  0.00    -0.353 OA
ENDROOT
BRANCH   1   6
HETATM    6  C   UNK N   1      31.970  17.324   7.817  0.00  0.00     0.226 C 
BRANCH   6   7
HETATM    7  O   UNK N   1      32.783  18.093   8.652  0.00  0.00    -0.257 OA
BRANCH   7   8
HETATM    8  S   UNK N   1      34.398  17.821   8.132  0.00  0.00     0.363 S 
HETATM    9  O   UNK N   1      34.533  17.765   6.601  0.00  0.00    -0.175 OA
HETATM   10  O   UNK N   1      35.247  19.034   8.533  0.00  0.00    -0.175 OA
BRANCH   8  11
HETATM   11  N   UNK N   1      35.153  16.410   8.838  0.00  0.00    -0.243 N 
HETATM   12  C   UNK N   1      35.329  16.276  10.108  0.00  0.00     0.150 C 
ATOM     13  HN  UNK N   1      35.466  15.661   8.220  1.00  0.00     0.182 HD
BRANCH  12  14
HETATM   14  C   UNK N   1      35.903  15.000  10.652  0.00  0.00     0.159 C 
BRANCH  14  15
HETATM   15  C   UNK N   1      37.043  14.590   9.726  0.00  0.00     0.103 C 
BRANCH  15  16
HETATM   16  S   UNK N   1      38.038  13.225  10.400  0.00  0.00    -0.180 SA
HETATM   17  H   UNK N   1      38.476  13.256  11.686  0.00  0.00     0.101 HD
ENDBRANCH  15  16
ENDBRANCH  14  15
BRANCH  14  18
HETATM   18  N   UNK N   1      36.411  15.205  12.002  0.00  0.00    -0.419 N 
HETATM   19  H   UNK N   1      35.874  14.900  12.814  0.00  0.00     0.150 HD
HETATM   20  H   UNK N   1      37.315  15.659  12.137  0.00  0.00     0.150 HD
ENDBRANCH  14  18
ENDBRANCH  12  14
BRANCH  12  21
HETATM   21  O   UNK N   1      34.955  17.253  10.963  0.00  0.00    -0.347 OA
HETATM   22  H   UNK N   1      34.051  17.477  11.060  0.00  0.00     0.219 HD
ENDBRANCH  12  21
ENDBRANCH   8  11
ENDBRANCH   7   8
ENDBRANCH   6   7
ENDBRANCH   1   6
BRANCH   2  23
HETATM   23  O   UNK N   1      30.016  16.856   9.807  0.00  0.00    -0.390 OA
HETATM   24  H   UNK N   1      30.407  16.134  10.323  0.00  0.00     0.210 HD
ENDBRANCH   2  23
BRANCH   3  25
HETATM   25  O   UNK N   1      27.538  18.062   9.602  0.00  0.00    -0.388 OA
HETATM   26  H   UNK N   1      27.795  17.987  10.535  0.00  0.00     0.210 HD
ENDBRANCH   3  25
BRANCH   4  27
HETATM   27  N   UNK N   1      27.413  17.292   6.539  0.00  0.00    -0.297 N 
HETATM   28  C   UNK N   1      26.403  16.414   6.299  0.00  0.00     0.188 A 
HETATM   29  N   UNK N   1      25.521  16.909   5.387  0.00  0.00    -0.346 N 
HETATM   30  C   UNK N   1      26.012  18.121   5.076  0.00  0.00     0.122 A 
ATOM     31  HN  UNK N   1      24.681  16.461   5.022  1.00  0.00     0.167 HD
HETATM   32  C   UNK N   1      25.497  19.099   4.243  0.00  0.00     0.131 A 
HETATM   33  C   UNK N   1      27.154  18.344   5.755  0.00  0.00     0.142 A 
HETATM   34  N   UNK N   1      26.190  20.270   4.128  0.00  0.00    -0.337 N 
HETATM   35  C   UNK N   1      27.361  20.470   4.820  0.00  0.00     0.183 A 
ATOM     36  HN  UNK N   1      25.833  21.007   3.518  1.00  0.00     0.168 HD
HETATM   37  N   UNK N   1      27.849  19.502   5.657  0.00  0.00    -0.336 N 
ATOM     38  HN  UNK N   1      28.707  19.648   6.187  1.00  0.00     0.168 HD
BRANCH  32  39
HETATM   39  N   UNK N   1      24.278  18.910   3.560  0.00  0.00    -0.383 N 
HETATM   40  H   UNK N   1      23.409  19.016   4.009  0.00  0.00     0.157 HD
HETATM   41  H   UNK N   1      24.297  18.666   2.607  0.00  0.00     0.157 HD
ENDBRANCH  32  39
ENDBRANCH   4  27
TORSDOF 13
ENDMDL
MODEL 2
REMARK VINA RESULT:      -7.0      2.843      4.757
REMARK  13 active torsions:
REMARK  status: ('A' for Active; 'I' for Inactive)
REMARK    1  A    between atoms: C_6  and  C_1 
REMARK    2  A    between atoms: O_30  and  C_1 
REMARK    3  A    between atoms: C_5  and  C_2 
REMARK    4  A    between atoms: S_32  and  C_2 
REMARK    5  A    between atoms: C_12  and  C_5 
REMARK    6  A    between atoms: C_5  and  N_14 
REMARK    7  A    between atoms: C_8  and  O_25 
REMARK    8  A    between atoms: C_9  and  O_26 
REMARK    9  A    between atoms: N_15  and  C_10 
REMARK   10  A    between atoms: O_27  and  C_12 
REMARK   11  A    between atoms: C_13  and  N_24 
REMARK   12  A    between atoms: N_22  and  S_33 
REMARK   13  A    between atoms: S_33  and  O_30 
ROOT
HETATM    1  C   UNK N   1      33.712  15.677   8.978  0.00  0.00     0.180 C 
HETATM    2  C   UNK N   1      34.668  16.504   8.123  0.00  0.00     0.182 C 
HETATM    3  C   UNK N   1      33.696  16.884   7.043  0.00  0.00     0.198 C 
HETATM    4  C   UNK N   1      32.506  17.269   7.926  0.00  0.00     0.262 C 
HETATM    5  O   UNK N   1      32.470  16.345   8.996  0.00  0.00    -0.353 OA
ENDROOT
BRANCH   1   6
HETATM    6  C   UNK N   1      34.220  15.459  10.397  0.00  0.00     0.226 C 
BRANCH   6   7
HETATM    7  O   UNK N   1      34.874  14.229  10.489  0.00  0.00    -0.257 OA
BRANCH   7   8
HETATM    8  S   UNK N   1      36.479  14.575  10.995  0.00  0.00     0.363 S 
HETATM    9  O   UNK N   1      37.541  13.830  10.167  0.00  0.00    -0.175 OA
HETATM   10  O   UNK N   1      36.768  16.055  10.719  0.00  0.00    -0.175 OA
BRANCH   8  11
HETATM   11  N   UNK N   1      36.770  14.303  12.699  0.00  0.00    -0.243 N 
HETATM   12  C   UNK N   1      35.899  13.757  13.476  0.00  0.00     0.150 C 
ATOM     13  HN  UNK N   1      37.666  14.590  13.094  1.00  0.00     0.182 HD
BRANCH  12  14
HETATM   14  C   UNK N   1      36.248  13.474  14.907  0.00  0.00     0.159 C 
BRANCH  14  15
HETATM   15  C   UNK N   1      36.851  12.073  14.953  0.00  0.00     0.103 C 
BRANCH  15  16
HETATM   16  S   UNK N   1      35.823  10.898  15.884  0.00  0.00    -0.180 SA
HETATM   17  H   UNK N   1      35.783   9.584  15.538  0.00  0.00     0.101 HD
ENDBRANCH  15  16
ENDBRANCH  14  15
BRANCH  14  18
HETATM   18  N   UNK N   1      37.218  14.445  15.397  0.00  0.00    -0.419 N 
HETATM   19  H   UNK N   1      37.285  15.373  14.976  0.00  0.00     0.150 HD
HETATM   20  H   UNK N   1      37.836  14.196  16.169  0.00  0.00     0.150 HD
ENDBRANCH  14  18
ENDBRANCH  12  14
BRANCH  12  21
HETATM   21  O   UNK N   1      34.689  13.386  13.002  0.00  0.00    -0.347 OA
HETATM   22  H   UNK N   1      33.912  13.820  13.294  0.00  0.00     0.219 HD
ENDBRANCH  12  21
ENDBRANCH   8  11
ENDBRANCH   7   8
ENDBRANCH   6   7
ENDBRANCH   1   6
BRANCH   2  23
HETATM   23  O   UNK N   1      35.090  17.644   8.826  0.00  0.00    -0.390 OA
HETATM   24  H   UNK N   1      35.532  18.198   9.488  0.00  0.00     0.210 HD
ENDBRANCH   2  23
BRANCH   3  25
HETATM   25  O   UNK N   1      34.161  17.924   6.238  0.00  0.00    -0.388 OA
HETATM   26  H   UNK N   1      34.981  18.398   6.450  0.00  0.00     0.210 HD
ENDBRANCH   3  25
BRANCH   4  27
HETATM   27  N   UNK N   1      31.225  17.287   7.221  0.00  0.00    -0.297 N 
HETATM   28  C   UNK N   1      31.036  17.113   5.886  0.00  0.00     0.188 A 
HETATM   29  N   UNK N   1      29.711  17.075   5.573  0.00  0.00    -0.346 N 
HETATM   30  C   UNK N   1      29.087  17.223   6.754  0.00  0.00     0.122 A 
ATOM     31  HN  UNK N   1      29.289  16.961   4.651  1.00  0.00     0.167 HD
HETATM   32  C   UNK N   1      27.736  17.202   7.052  0.00  0.00     0.131 A 
HETATM   33  C   UNK N   1      29.994  17.365   7.740  0.00  0.00     0.142 A 
HETATM   34  N   UNK N   1      27.367  17.346   8.359  0.00  0.00    -0.337 N 
HETATM   35  C   UNK N   1      28.311  17.504   9.347  0.00  0.00     0.183 A 
ATOM     36  HN  UNK N   1      26.377  17.337   8.605  1.00  0.00     0.168 HD
HETATM   37  N   UNK N   1      29.645  17.502   9.041  0.00  0.00    -0.336 N 
ATOM     38  HN  UNK N   1      30.352  17.601   9.769  1.00  0.00     0.168 HD
BRANCH  32  39
HETATM   39  N   UNK N   1      26.768  17.005   6.046  0.00  0.00    -0.383 N 
HETATM   40  H   UNK N   1      26.051  17.658   5.880  0.00  0.00     0.157 HD
HETATM   41  H   UNK N   1      26.811  16.191   5.494  0.00  0.00     0.157 HD
ENDBRANCH  32  39
ENDBRANCH   4  27
TORSDOF 13
ENDMDL
MODEL 3
REMARK VINA RESULT:      -7.0      3.885      9.717
REMARK  13 active torsions:
REMARK  status: ('A' for Active; 'I' for Inactive)
REMARK    1  A    between atoms: C_6  and  C_1 
REMARK    2  A    between atoms: O_30  and  C_1 
REMARK    3  A    between atoms: C_5  and  C_2 
REMARK    4  A    between atoms: S_32  and  C_2 
REMARK    5  A    between atoms: C_12  and  C_5 
REMARK    6  A    between atoms: C_5  and  N_14 
REMARK    7  A    between atoms: C_8  and  O_25 
REMARK    8  A    between atoms: C_9  and  O_26 
REMARK    9  A    between atoms: N_15  and  C_10 
REMARK   10  A    between atoms: O_27  and  C_12 
REMARK   11  A    between atoms: C_13  and  N_24 
REMARK   12  A    between atoms: N_22  and  S_33 
REMARK   13  A    between atoms: S_33  and  O_30 
ROOT
HETATM    1  C   UNK N   1      34.742  14.069   8.150  0.00  0.00     0.180 C 
HETATM    2  C   UNK N   1      33.416  13.327   8.000  0.00  0.00     0.182 C 
HETATM    3  C   UNK N   1      33.675  12.245   9.009  0.00  0.00     0.198 C 
HETATM    4  C   UNK N   1      34.251  13.109  10.134  0.00  0.00     0.262 C 
HETATM    5  O   UNK N   1      35.063  14.094   9.523  0.00  0.00    -0.353 OA
ENDROOT
BRANCH   1   6
HETATM    6  C   UNK N   1      34.698  15.483   7.588  0.00  0.00     0.226 C 
BRANCH   6   7
HETATM    7  O   UNK N   1      34.507  16.404   8.620  0.00  0.00    -0.257 OA
BRANCH   7   8
HETATM    8  S   UNK N   1      34.153  17.906   7.865  0.00  0.00     0.363 S 
HETATM    9  O   UNK N   1      35.065  19.048   8.347  0.00  0.00    -0.175 OA
HETATM   10  O   UNK N   1      34.473  17.786   6.370  0.00  0.00    -0.175 OA
BRANCH   8  11
HETATM   11  N   UNK N   1      32.480  18.400   7.995  0.00  0.00    -0.243 N 
HETATM   12  C   UNK N   1      31.619  17.760   8.709  0.00  0.00     0.150 C 
ATOM     13  HN  UNK N   1      32.173  19.227   7.484  1.00  0.00     0.182 HD
BRANCH  12  14
HETATM   14  C   UNK N   1      30.221  18.290   8.846  0.00  0.00     0.159 C 
BRANCH  14  15
HETATM   15  C   UNK N   1      29.378  17.613   7.770  0.00  0.00     0.103 C 
BRANCH  15  16
HETATM   16  S   UNK N   1      28.134  18.727   7.050  0.00  0.00    -0.180 SA
HETATM   17  H   UNK N   1      27.108  18.234   6.306  0.00  0.00     0.101 HD
ENDBRANCH  15  16
ENDBRANCH  14  15
BRANCH  14  18
HETATM   18  N   UNK N   1      29.685  17.978  10.164  0.00  0.00    -0.419 N 
HETATM   19  H   UNK N   1      28.694  18.105  10.368  0.00  0.00     0.150 HD
HETATM   20  H   UNK N   1      30.309  17.628  10.892  0.00  0.00     0.150 HD
ENDBRANCH  14  18
ENDBRANCH  12  14
BRANCH  12  21
HETATM   21  O   UNK N   1      31.973  16.643   9.381  0.00  0.00    -0.347 OA
HETATM   22  H   UNK N   1      32.567  16.028   8.998  0.00  0.00     0.219 HD
ENDBRANCH  12  21
ENDBRANCH   8  11
ENDBRANCH   7   8
ENDBRANCH   6   7
ENDBRANCH   1   6
BRANCH   2  23
HETATM   23  O   UNK N   1      32.351  14.141   8.416  0.00  0.00    -0.390 OA
HETATM   24  H   UNK N   1      31.501  14.410   8.798  0.00  0.00     0.210 HD
ENDBRANCH   2  23
BRANCH   3  25
HETATM   25  O   UNK N   1      32.519  11.551   9.368  0.00  0.00    -0.388 OA
HETATM   26  H   UNK N   1      32.537  10.597   9.541  0.00  0.00     0.210 HD
ENDBRANCH   3  25
BRANCH   4  27
HETATM   27  N   UNK N   1      35.019  12.357  11.126  0.00  0.00    -0.297 N 
HETATM   28  C   UNK N   1      35.357  11.042  11.058  0.00  0.00     0.188 A 
HETATM   29  N   UNK N   1      36.169  10.683  12.091  0.00  0.00    -0.346 N 
HETATM   30  C   UNK N   1      36.329  11.817  12.795  0.00  0.00     0.122 A 
ATOM     31  HN  UNK N   1      36.564   9.764  12.286  1.00  0.00     0.167 HD
HETATM   32  C   UNK N   1      37.102  12.063  13.916  0.00  0.00     0.131 A 
HETATM   33  C   UNK N   1      35.628  12.817  12.225  0.00  0.00     0.142 A 
HETATM   34  N   UNK N   1      37.111  13.332  14.421  0.00  0.00    -0.337 N 
HETATM   35  C   UNK N   1      36.375  14.333  13.831  0.00  0.00     0.183 A 
ATOM     36  HN  UNK N   1      37.670  13.539  15.249  1.00  0.00     0.168 HD
HETATM   37  N   UNK N   1      35.631  14.081  12.710  0.00  0.00    -0.336 N 
ATOM     38  HN  UNK N   1      35.097  14.821  12.256  1.00  0.00     0.168 HD
BRANCH  32  39
HETATM   39  N   UNK N   1      37.884  11.047  14.502  0.00  0.00    -0.383 N 
HETATM   40  H   UNK N   1      38.265  10.313  13.969  0.00  0.00     0.157 HD
HETATM   41  H   UNK N   1      38.054  11.073  15.471  0.00  0.00     0.157 HD
ENDBRANCH  32  39
ENDBRANCH   4  27
TORSDOF 13
ENDMDL
MODEL 4
REMARK VINA RESULT:      -6.9      2.000      2.753
REMARK  13 active torsions:
REMARK  status: ('A' for Active; 'I' for Inactive)
REMARK    1  A    between atoms: C_6  and  C_1 
REMARK    2  A    between atoms: O_30  and  C_1 
REMARK    3  A    between atoms: C_5  and  C_2 
REMARK    4  A    between atoms: S_32  and  C_2 
REMARK    5  A    between atoms: C_12  and  C_5 
REMARK    6  A    between atoms: C_5  and  N_14 
REMARK    7  A    between atoms: C_8  and  O_25 
REMARK    8  A    between atoms: C_9  and  O_26 
REMARK    9  A    between atoms: N_15  and  C_10 
REMARK   10  A    between atoms: O_27  and  C_12 
REMARK   11  A    between atoms: C_13  and  N_24 
REMARK   12  A    between atoms: N_22  and  S_33 
REMARK   13  A    between atoms: S_33  and  O_30 
ROOT
HETATM    1  C   UNK N   1      32.336  16.370   6.518  0.00  0.00     0.180 C 
HETATM    2  C   UNK N   1      31.708  15.174   5.810  0.00  0.00     0.182 C 
HETATM    3  C   UNK N   1      30.270  15.514   6.076  0.00  0.00     0.198 C 
HETATM    4  C   UNK N   1      30.316  17.006   5.735  0.00  0.00     0.262 C 
HETATM    5  O   UNK N   1      31.548  17.502   6.224  0.00  0.00    -0.353 OA
ENDROOT
BRANCH   1   6
HETATM    6  C   UNK N   1      33.784  16.610   6.109  0.00  0.00     0.226 C 
BRANCH   6   7
HETATM    7  O   UNK N   1      34.153  17.925   6.398  0.00  0.00    -0.257 OA
BRANCH   7   8
HETATM    8  S   UNK N   1      34.450  17.981   8.089  0.00  0.00     0.363 S 
HETATM    9  O   UNK N   1      35.380  19.138   8.495  0.00  0.00    -0.175 OA
HETATM   10  O   UNK N   1      33.131  18.301   8.803  0.00  0.00    -0.175 OA
BRANCH   8  11
HETATM   11  N   UNK N   1      35.050  16.483   8.764  0.00  0.00    -0.243 N 
HETATM   12  C   UNK N   1      35.281  16.329  10.022  0.00  0.00     0.150 C 
ATOM     13  HN  UNK N   1      35.225  15.699   8.135  1.00  0.00     0.182 HD
BRANCH  12  14
HETATM   14  C   UNK N   1      35.711  14.990  10.544  0.00  0.00     0.159 C 
BRANCH  14  15
HETATM   15  C   UNK N   1      36.671  14.396   9.518  0.00  0.00     0.103 C 
BRANCH  15  16
HETATM   16  S   UNK N   1      36.326  12.645   9.166  0.00  0.00    -0.180 SA
HETATM   17  H   UNK N   1      37.226  11.883   8.490  0.00  0.00     0.101 HD
ENDBRANCH  15  16
ENDBRANCH  14  15
BRANCH  14  18
HETATM   18  N   UNK N   1      36.386  15.136  11.827  0.00  0.00    -0.419 N 
HETATM   19  H   UNK N   1      37.307  14.725  11.982  0.00  0.00     0.150 HD
HETATM   20  H   UNK N   1      35.932  15.655  12.579  0.00  0.00     0.150 HD
ENDBRANCH  14  18
ENDBRANCH  12  14
BRANCH  12  21
HETATM   21  O   UNK N   1      35.090  17.348  10.888  0.00  0.00    -0.347 OA
HETATM   22  H   UNK N   1      35.210  18.235  10.610  0.00  0.00     0.219 HD
ENDBRANCH  12  21
ENDBRANCH   8  11
ENDBRANCH   7   8
ENDBRANCH   6   7
ENDBRANCH   1   6
BRANCH   2  23
HETATM   23  O   UNK N   1      31.977  15.225   4.433  0.00  0.00    -0.390 OA
HETATM   24  H   UNK N   1      31.862  15.393   3.485  0.00  0.00     0.210 HD
ENDBRANCH   2  23
BRANCH   3  25
HETATM   25  O   UNK N   1      29.384  14.783   5.283  0.00  0.00    -0.388 OA
HETATM   26  H   UNK N   1      29.604  13.889   4.975  0.00  0.00     0.210 HD
ENDBRANCH   3  25
BRANCH   4  27
HETATM   27  N   UNK N   1      29.201  17.776   6.284  0.00  0.00    -0.297 N 
HETATM   28  C   UNK N   1      28.811  17.815   7.586  0.00  0.00     0.188 A 
HETATM   29  N   UNK N   1      27.808  18.717   7.777  0.00  0.00    -0.346 N 
HETATM   30  C   UNK N   1      27.595  19.239   6.556  0.00  0.00     0.122 A 
ATOM     31  HN  UNK N   1      27.328  18.943   8.647  1.00  0.00     0.167 HD
HETATM   32  C   UNK N   1      26.731  20.244   6.161  0.00  0.00     0.131 A 
HETATM   33  C   UNK N   1      28.419  18.664   5.659  0.00  0.00     0.142 A 
HETATM   34  N   UNK N   1      26.737  20.611   4.845  0.00  0.00    -0.337 N 
HETATM   35  C   UNK N   1      27.577  20.000   3.944  0.00  0.00     0.183 A 
ATOM     36  HN  UNK N   1      26.107  21.348   4.527  1.00  0.00     0.168 HD
HETATM   37  N   UNK N   1      28.442  19.021   4.353  0.00  0.00    -0.336 N 
ATOM     38  HN  UNK N   1      29.080  18.574   3.696  1.00  0.00     0.168 HD
BRANCH  32  39
HETATM   39  N   UNK N   1      25.894  20.897   7.089  0.00  0.00    -0.383 N 
HETATM   40  H   UNK N   1      25.186  20.417   7.576  0.00  0.00     0.157 HD
HETATM   41  H   UNK N   1      26.021  21.859   7.254  0.00  0.00     0.157 HD
ENDBRANCH  32  39
ENDBRANCH   4  27
TORSDOF 13
ENDMDL
MODEL 5
REMARK VINA RESULT:      -6.8      2.741      4.040
REMARK  13 active torsions:
REMARK  status: ('A' for Active; 'I' for Inactive)
REMARK    1  A    between atoms: C_6  and  C_1 
REMARK    2  A    between atoms: O_30  and  C_1 
REMARK    3  A    between atoms: C_5  and  C_2 
REMARK    4  A    between atoms: S_32  and  C_2 
REMARK    5  A    between atoms: C_12  and  C_5 
REMARK    6  A    between atoms: C_5  and  N_14 
REMARK    7  A    between atoms: C_8  and  O_25 
REMARK    8  A    between atoms: C_9  and  O_26 
REMARK    9  A    between atoms: N_15  and  C_10 
REMARK   10  A    between atoms: O_27  and  C_12 
REMARK   11  A    between atoms: C_13  and  N_24 
REMARK   12  A    between atoms: N_22  and  S_33 
REMARK   13  A    between atoms: S_33  and  O_30 
ROOT
HETATM    1  C   UNK N   1      30.693  18.330   8.267  0.00  0.00     0.180 C 
HETATM    2  C   UNK N   1      29.856  18.098   9.521  0.00  0.00     0.182 C 
HETATM    3  C   UNK N   1      28.502  18.161   8.875  0.00  0.00     0.198 C 
HETATM    4  C   UNK N   1      28.788  17.288   7.650  0.00  0.00     0.262 C 
HETATM    5  O   UNK N   1      30.098  17.604   7.215  0.00  0.00    -0.353 OA
ENDROOT
BRANCH   1   6
HETATM    6  C   UNK N   1      32.150  17.919   8.440  0.00  0.00     0.226 C 
BRANCH   6   7
HETATM    7  O   UNK N   1      32.370  16.673   7.849  0.00  0.00    -0.257 OA
BRANCH   7   8
HETATM    8  S   UNK N   1      33.844  16.808   6.977  0.00  0.00     0.363 S 
HETATM    9  O   UNK N   1      34.467  18.212   7.069  0.00  0.00    -0.175 OA
HETATM   10  O   UNK N   1      34.885  15.899   7.642  0.00  0.00    -0.175 OA
BRANCH   8  11
HETATM   11  N   UNK N   1      33.734  16.325   5.300  0.00  0.00    -0.243 N 
HETATM   12  C   UNK N   1      32.866  16.821   4.487  0.00  0.00     0.150 C 
ATOM     13  HN  UNK N   1      34.384  15.620   4.950  1.00  0.00     0.182 HD
BRANCH  12  14
HETATM   14  C   UNK N   1      32.886  16.426   3.040  0.00  0.00     0.159 C 
BRANCH  14  15
HETATM   15  C   UNK N   1      32.692  14.914   2.985  0.00  0.00     0.103 C 
BRANCH  15  16
HETATM   16  S   UNK N   1      30.988  14.412   3.373  0.00  0.00    -0.180 SA
HETATM   17  H   UNK N   1      30.690  13.825   4.563  0.00  0.00     0.101 HD
ENDBRANCH  15  16
ENDBRANCH  14  15
BRANCH  14  18
HETATM   18  N   UNK N   1      31.810  17.089   2.315  0.00  0.00    -0.419 N 
HETATM   19  H   UNK N   1      30.857  17.088   2.680  0.00  0.00     0.150 HD
HETATM   20  H   UNK N   1      32.012  17.561   1.433  0.00  0.00     0.150 HD
ENDBRANCH  14  18
ENDBRANCH  12  14
BRANCH  12  21
HETATM   21  O   UNK N   1      31.968  17.736   4.912  0.00  0.00    -0.347 OA
HETATM   22  H   UNK N   1      32.256  18.527   5.323  0.00  0.00     0.219 HD
ENDBRANCH  12  21
ENDBRANCH   8  11
ENDBRANCH   7   8
ENDBRANCH   6   7
ENDBRANCH   1   6
BRANCH   2  23
HETATM   23  O   UNK N   1      30.094  16.813  10.036  0.00  0.00    -0.390 OA
HETATM   24  H   UNK N   1      30.548  16.067  10.457  0.00  0.00     0.210 HD
ENDBRANCH   2  23
BRANCH   3  25
HETATM   25  O   UNK N   1      27.487  17.665   9.694  0.00  0.00    -0.388 OA
HETATM   26  H   UNK N   1      27.084  16.798   9.528  0.00  0.00     0.210 HD
ENDBRANCH   3  25
BRANCH   4  27
HETATM   27  N   UNK N   1      27.831  17.464   6.558  0.00  0.00    -0.297 N 
HETATM   28  C   UNK N   1      27.042  16.500   6.014  0.00  0.00     0.188 A 
HETATM   29  N   UNK N   1      26.186  17.021   5.091  0.00  0.00    -0.346 N 
HETATM   30  C   UNK N   1      26.465  18.336   5.087  0.00  0.00     0.122 A 
ATOM     31  HN  UNK N   1      25.493  16.525   4.531  1.00  0.00     0.167 HD
HETATM   32  C   UNK N   1      25.865  19.366   4.385  0.00  0.00     0.131 A 
HETATM   33  C   UNK N   1      27.461  18.599   5.955  0.00  0.00     0.142 A 
HETATM   34  N   UNK N   1      26.327  20.635   4.592  0.00  0.00    -0.337 N 
HETATM   35  C   UNK N   1      27.355  20.878   5.473  0.00  0.00     0.183 A 
ATOM     36  HN  UNK N   1      25.904  21.413   4.085  1.00  0.00     0.168 HD
HETATM   37  N   UNK N   1      27.926  19.851   6.176  0.00  0.00    -0.336 N 
ATOM     38  HN  UNK N   1      28.677  20.024   6.843  1.00  0.00     0.168 HD
BRANCH  32  39
HETATM   39  N   UNK N   1      24.787  19.125   3.509  0.00  0.00    -0.383 N 
HETATM   40  H   UNK N   1      24.151  19.833   3.261  0.00  0.00     0.157 HD
HETATM   41  H   UNK N   1      24.668  18.222   3.135  0.00  0.00     0.157 HD
ENDBRANCH  32  39
ENDBRANCH   4  27
TORSDOF 13
ENDMDL
MODEL 6
REMARK VINA RESULT:      -6.8      3.841     10.568
REMARK  13 active torsions:
REMARK  status: ('A' for Active; 'I' for Inactive)
REMARK    1  A    between atoms: C_6  and  C_1 
REMARK    2  A    between atoms: O_30  and  C_1 
REMARK    3  A    between atoms: C_5  and  C_2 
REMARK    4  A    between atoms: S_32  and  C_2 
REMARK    5  A    between atoms: C_12  and  C_5 
REMARK    6  A    between atoms: C_5  and  N_14 
REMARK    7  A    between atoms: C_8  and  O_25 
REMARK    8  A    between atoms: C_9  and  O_26 
REMARK    9  A    between atoms: N_15  and  C_10 
REMARK   10  A    between atoms: O_27  and  C_12 
REMARK   11  A    between atoms: C_13  and  N_24 
REMARK   12  A    between atoms: N_22  and  S_33 
REMARK   13  A    between atoms: S_33  and  O_30 
ROOT
HETATM    1  C   UNK N   1      35.059  14.968  10.168  0.00  0.00     0.180 C 
HETATM    2  C   UNK N   1      35.751  15.788  11.252  0.00  0.00     0.182 C 
HETATM    3  C   UNK N   1      35.727  14.750  12.337  0.00  0.00     0.198 C 
HETATM    4  C   UNK N   1      36.179  13.542  11.512  0.00  0.00     0.262 C 
HETATM    5  O   UNK N   1      35.557  13.651  10.246  0.00  0.00    -0.353 OA
ENDROOT
BRANCH   1   6
HETATM    6  C   UNK N   1      35.270  15.534   8.769  0.00  0.00     0.226 C 
BRANCH   6   7
HETATM    7  O   UNK N   1      34.039  15.835   8.183  0.00  0.00    -0.257 OA
BRANCH   7   8
HETATM    8  S   UNK N   1      34.019  17.537   7.951  0.00  0.00     0.363 S 
HETATM    9  O   UNK N   1      34.994  18.279   8.882  0.00  0.00    -0.175 OA
HETATM   10  O   UNK N   1      34.550  17.841   6.544  0.00  0.00    -0.175 OA
BRANCH   8  11
HETATM   11  N   UNK N   1      32.431  18.260   8.069  0.00  0.00    -0.243 N 
HETATM   12  C   UNK N   1      31.441  17.677   8.653  0.00  0.00     0.150 C 
ATOM     13  HN  UNK N   1      32.281  19.182   7.658  1.00  0.00     0.182 HD
BRANCH  12  14
HETATM   14  C   UNK N   1      30.131  18.394   8.795  0.00  0.00     0.159 C 
BRANCH  14  15
HETATM   15  C   UNK N   1      29.066  17.512   8.152  0.00  0.00     0.103 C 
BRANCH  15  16
HETATM   16  S   UNK N   1      29.221  17.434   6.342  0.00  0.00    -0.180 SA
HETATM   17  H   UNK N   1      28.857  18.490   5.567  0.00  0.00     0.101 HD
ENDBRANCH  15  16
ENDBRANCH  14  15
BRANCH  14  18
HETATM   18  N   UNK N   1      29.815  18.603  10.203  0.00  0.00    -0.419 N 
HETATM   19  H   UNK N   1      29.746  19.546  10.587  0.00  0.00     0.150 HD
HETATM   20  H   UNK N   1      29.661  17.798  10.810  0.00  0.00     0.150 HD
ENDBRANCH  14  18
ENDBRANCH  12  14
BRANCH  12  21
HETATM   21  O   UNK N   1      31.586  16.445   9.188  0.00  0.00    -0.347 OA
HETATM   22  H   UNK N   1      32.393  15.980   9.095  0.00  0.00     0.219 HD
ENDBRANCH  12  21
ENDBRANCH   8  11
ENDBRANCH   7   8
ENDBRANCH   6   7
ENDBRANCH   1   6
BRANCH   2  23
HETATM   23  O   UNK N   1      37.074  16.076  10.878  0.00  0.00    -0.390 OA
HETATM   24  H   UNK N   1      37.826  16.426  10.377  0.00  0.00     0.210 HD
ENDBRANCH   2  23
BRANCH   3  25
HETATM   25  O   UNK N   1      36.578  15.056  13.399  0.00  0.00    -0.388 OA
HETATM   26  H   UNK N   1      37.538  15.123  13.273  0.00  0.00     0.210 HD
ENDBRANCH   3  25
BRANCH   4  27
HETATM   27  N   UNK N   1      35.864  12.252  12.126  0.00  0.00    -0.297 N 
HETATM   28  C   UNK N   1      34.834  11.430  11.793  0.00  0.00     0.188 A 
HETATM   29  N   UNK N   1      34.892  10.256  12.482  0.00  0.00    -0.346 N 
HETATM   30  C   UNK N   1      35.992  10.375  13.245  0.00  0.00     0.122 A 
ATOM     31  HN  UNK N   1      34.247   9.468  12.431  1.00  0.00     0.167 HD
HETATM   32  C   UNK N   1      36.575   9.463  14.107  0.00  0.00     0.131 A 
HETATM   33  C   UNK N   1      36.566  11.577  13.043  0.00  0.00     0.142 A 
HETATM   34  N   UNK N   1      37.726   9.832  14.745  0.00  0.00    -0.337 N 
HETATM   35  C   UNK N   1      38.287  11.070  14.533  0.00  0.00     0.183 A 
ATOM     36  HN  UNK N   1      38.175   9.179  15.387  1.00  0.00     0.168 HD
HETATM   37  N   UNK N   1      37.710  11.955  13.662  0.00  0.00    -0.336 N 
ATOM     38  HN  UNK N   1      38.127  12.868  13.486  1.00  0.00     0.168 HD
BRANCH  32  39
HETATM   39  N   UNK N   1      36.023   8.180  14.298  0.00  0.00    -0.383 N 
HETATM   40  H   UNK N   1      36.040   7.733  15.175  0.00  0.00     0.157 HD
HETATM   41  H   UNK N   1      35.609   7.719  13.534  0.00  0.00     0.157 HD
ENDBRANCH  32  39
ENDBRANCH   4  27
TORSDOF 13
ENDMDL
MODEL 7
REMARK VINA RESULT:      -6.7      3.129      9.840
REMARK  13 active torsions:
REMARK  status: ('A' for Active; 'I' for Inactive)
REMARK    1  A    between atoms: C_6  and  C_1 
REMARK    2  A    between atoms: O_30  and  C_1 
REMARK    3  A    between atoms: C_5  and  C_2 
REMARK    4  A    between atoms: S_32  and  C_2 
REMARK    5  A    between atoms: C_12  and  C_5 
REMARK    6  A    between atoms: C_5  and  N_14 
REMARK    7  A    between atoms: C_8  and  O_25 
REMARK    8  A    between atoms: C_9  and  O_26 
REMARK    9  A    between atoms: N_15  and  C_10 
REMARK   10  A    between atoms: O_27  and  C_12 
REMARK   11  A    between atoms: C_13  and  N_24 
REMARK   12  A    between atoms: N_22  and  S_33 
REMARK   13  A    between atoms: S_33  and  O_30 
ROOT
HETATM    1  C   UNK N   1      32.897  16.331   7.558  0.00  0.00     0.180 C 
HETATM    2  C   UNK N   1      33.619  17.673   7.635  0.00  0.00     0.182 C 
HETATM    3  C   UNK N   1      34.321  17.449   8.943  0.00  0.00     0.198 C 
HETATM    4  C   UNK N   1      34.821  16.023   8.698  0.00  0.00     0.262 C 
HETATM    5  O   UNK N   1      33.792  15.338   8.008  0.00  0.00    -0.353 OA
ENDROOT
BRANCH   1   6
HETATM    6  C   UNK N   1      32.401  16.003   6.155  0.00  0.00     0.226 C 
BRANCH   6   7
HETATM    7  O   UNK N   1      32.110  17.180   5.463  0.00  0.00    -0.257 OA
BRANCH   7   8
HETATM    8  S   UNK N   1      30.969  16.755   4.251  0.00  0.00     0.363 S 
HETATM    9  O   UNK N   1      31.597  16.644   2.850  0.00  0.00    -0.175 OA
HETATM   10  O   UNK N   1      30.459  15.338   4.539  0.00  0.00    -0.175 OA
BRANCH   8  11
HETATM   11  N   UNK N   1      29.569  17.802   4.182  0.00  0.00    -0.243 N 
HETATM   12  C   UNK N   1      28.840  18.058   5.214  0.00  0.00     0.150 C 
ATOM     13  HN  UNK N   1      29.319  18.227   3.289  1.00  0.00     0.182 HD
BRANCH  12  14
HETATM   14  C   UNK N   1      27.706  19.034   5.103  0.00  0.00     0.159 C 
BRANCH  14  15
HETATM   15  C   UNK N   1      27.796  19.964   6.309  0.00  0.00     0.103 C 
BRANCH  15  16
HETATM   16  S   UNK N   1      26.498  21.238   6.309  0.00  0.00    -0.180 SA
HETATM   17  H   UNK N   1      26.807  22.543   6.536  0.00  0.00     0.101 HD
ENDBRANCH  15  16
ENDBRANCH  14  15
BRANCH  14  18
HETATM   18  N   UNK N   1      27.818  19.807   3.873  0.00  0.00    -0.419 N 
HETATM   19  H   UNK N   1      27.480  20.769   3.828  0.00  0.00     0.150 HD
HETATM   20  H   UNK N   1      28.238  19.381   3.046  0.00  0.00     0.150 HD
ENDBRANCH  14  18
ENDBRANCH  12  14
BRANCH  12  21
HETATM   21  O   UNK N   1      29.117  17.495   6.410  0.00  0.00    -0.347 OA
HETATM   22  H   UNK N   1      28.651  16.734   6.696  0.00  0.00     0.219 HD
ENDBRANCH  12  21
ENDBRANCH   8  11
ENDBRANCH   7   8
ENDBRANCH   6   7
ENDBRANCH   1   6
BRANCH   2  23
HETATM   23  O   UNK N   1      34.550  17.788   6.591  0.00  0.00    -0.390 OA
HETATM   24  H   UNK N   1      34.934  17.757   5.702  0.00  0.00     0.210 HD
ENDBRANCH   2  23
BRANCH   3  25
HETATM   25  O   UNK N   1      35.343  18.371   9.174  0.00  0.00    -0.388 OA
HETATM   26  H   UNK N   1      35.208  19.320   9.026  0.00  0.00     0.210 HD
ENDBRANCH   3  25
BRANCH   4  27
HETATM   27  N   UNK N   1      35.185  15.302   9.917  0.00  0.00    -0.297 N 
HETATM   28  C   UNK N   1      34.375  15.055  10.981  0.00  0.00     0.188 A 
HETATM   29  N   UNK N   1      34.991  14.263  11.902  0.00  0.00    -0.346 N 
HETATM   30  C   UNK N   1      36.203  14.023  11.373  0.00  0.00     0.122 A 
ATOM     31  HN  UNK N   1      34.618  13.931  12.791  1.00  0.00     0.167 HD
HETATM   32  C   UNK N   1      37.234  13.229  11.844  0.00  0.00     0.131 A 
HETATM   33  C   UNK N   1      36.325  14.658  10.191  0.00  0.00     0.142 A 
HETATM   34  N   UNK N   1      38.365  13.132  11.083  0.00  0.00    -0.337 N 
HETATM   35  C   UNK N   1      38.472  13.800   9.886  0.00  0.00     0.183 A 
ATOM     36  HN  UNK N   1      39.141  12.555  11.409  1.00  0.00     0.168 HD
HETATM   37  N   UNK N   1      37.436  14.566   9.422  0.00  0.00    -0.336 N 
ATOM     38  HN  UNK N   1      37.500  15.052   8.528  1.00  0.00     0.168 HD
BRANCH  32  39
HETATM   39  N   UNK N   1      37.114  12.515  13.053  0.00  0.00    -0.383 N 
HETATM   40  H   UNK N   1      37.112  12.968  13.926  0.00  0.00     0.157 HD
HETATM   41  H   UNK N   1      37.029  11.534  13.023  0.00  0.00     0.157 HD
ENDBRANCH  32  39
ENDBRANCH   4  27
TORSDOF 13
ENDMDL
MODEL 8
REMARK VINA RESULT:      -6.6      6.746     11.628
REMARK  13 active torsions:
REMARK  status: ('A' for Active; 'I' for Inactive)
REMARK    1  A    between atoms: C_6  and  C_1 
REMARK    2  A    between atoms: O_30  and  C_1 
REMARK    3  A    between atoms: C_5  and  C_2 
REMARK    4  A    between atoms: S_32  and  C_2 
REMARK    5  A    between atoms: C_12  and  C_5 
REMARK    6  A    between atoms: C_5  and  N_14 
REMARK    7  A    between atoms: C_8  and  O_25 
REMARK    8  A    between atoms: C_9  and  O_26 
REMARK    9  A    between atoms: N_15  and  C_10 
REMARK   10  A    between atoms: O_27  and  C_12 
REMARK   11  A    between atoms: C_13  and  N_24 
REMARK   12  A    between atoms: N_22  and  S_33 
REMARK   13  A    between atoms: S_33  and  O_30 
ROOT
HETATM    1  C   UNK N   1      36.729  11.624  12.755  0.00  0.00     0.180 C 
HETATM    2  C   UNK N   1      35.362  11.293  12.163  0.00  0.00     0.182 C 
HETATM    3  C   UNK N   1      34.720  10.775  13.418  0.00  0.00     0.198 C 
HETATM    4  C   UNK N   1      35.187  11.864  14.386  0.00  0.00     0.262 C 
HETATM    5  O   UNK N   1      36.516  12.191  14.029  0.00  0.00    -0.353 OA
ENDROOT
BRANCH   1   6
HETATM    6  C   UNK N   1      37.541  12.571  11.880  0.00  0.00     0.226 C 
BRANCH   6   7
HETATM    7  O   UNK N   1      37.718  12.017  10.611  0.00  0.00    -0.257 OA
BRANCH   7   8
HETATM    8  S   UNK N   1      37.592  13.319   9.497  0.00  0.00     0.363 S 
HETATM    9  O   UNK N   1      38.743  14.331   9.626  0.00  0.00    -0.175 OA
HETATM   10  O   UNK N   1      37.750  12.760   8.077  0.00  0.00    -0.175 OA
BRANCH   8  11
HETATM   11  N   UNK N   1      36.061  14.164   9.549  0.00  0.00    -0.243 N 
HETATM   12  C   UNK N   1      35.908  15.292  10.153  0.00  0.00     0.150 C 
ATOM     13  HN  UNK N   1      35.255  13.746   9.083  1.00  0.00     0.182 HD
BRANCH  12  14
HETATM   14  C   UNK N   1      34.589  16.004  10.082  0.00  0.00     0.159 C 
BRANCH  14  15
HETATM   15  C   UNK N   1      34.308  16.282   8.609  0.00  0.00     0.103 C 
BRANCH  15  16
HETATM   16  S   UNK N   1      34.372  18.054   8.206  0.00  0.00    -0.180 SA
HETATM   17  H   UNK N   1      33.501  18.595   7.312  0.00  0.00     0.101 HD
ENDBRANCH  15  16
ENDBRANCH  14  15
BRANCH  14  18
HETATM   18  N   UNK N   1      33.530  15.172  10.639  0.00  0.00    -0.419 N 
HETATM   19  H   UNK N   1      32.633  15.578  10.906  0.00  0.00     0.150 HD
HETATM   20  H   UNK N   1      33.688  14.172  10.764  0.00  0.00     0.150 HD
ENDBRANCH  14  18
ENDBRANCH  12  14
BRANCH  12  21
HETATM   21  O   UNK N   1      36.939  15.869  10.807  0.00  0.00    -0.347 OA
HETATM   22  H   UNK N   1      37.704  16.143  10.339  0.00  0.00     0.219 HD
ENDBRANCH  12  21
ENDBRANCH   8  11
ENDBRANCH   7   8
ENDBRANCH   6   7
ENDBRANCH   1   6
BRANCH   2  23
HETATM   23  O   UNK N   1      34.720  12.464  11.731  0.00  0.00    -0.390 OA
HETATM   24  H   UNK N   1      34.517  13.405  11.614  0.00  0.00     0.210 HD
ENDBRANCH   2  23
BRANCH   3  25
HETATM   25  O   UNK N   1      33.332  10.672  13.313  0.00  0.00    -0.388 OA
HETATM   26  H   UNK N   1      32.894  10.625  12.448  0.00  0.00     0.210 HD
ENDBRANCH   3  25
BRANCH   4  27
HETATM   27  N   UNK N   1      35.116  11.478  15.795  0.00  0.00    -0.297 N 
HETATM   28  C   UNK N   1      35.084  10.209  16.283  0.00  0.00     0.188 A 
HETATM   29  N   UNK N   1      35.132  10.198  17.644  0.00  0.00    -0.346 N 
HETATM   30  C   UNK N   1      35.203  11.497  17.982  0.00  0.00     0.122 A 
ATOM     31  HN  UNK N   1      35.117   9.389  18.264  1.00  0.00     0.167 HD
HETATM   32  C   UNK N   1      35.332  12.082  19.229  0.00  0.00     0.131 A 
HETATM   33  C   UNK N   1      35.178  12.265  16.875  0.00  0.00     0.142 A 
HETATM   34  N   UNK N   1      35.416  13.445  19.291  0.00  0.00    -0.337 N 
HETATM   35  C   UNK N   1      35.374  14.208  18.148  0.00  0.00     0.183 A 
ATOM     36  HN  UNK N   1      35.509  13.901  20.199  1.00  0.00     0.168 HD
HETATM   37  N   UNK N   1      35.266  13.615  16.919  0.00  0.00    -0.336 N 
ATOM     38  HN  UNK N   1      35.252  14.172  16.065  1.00  0.00     0.168 HD
BRANCH  32  39
HETATM   39  N   UNK N   1      35.411  11.300  20.400  0.00  0.00    -0.383 N 
HETATM   40  H   UNK N   1      35.935  10.468  20.434  0.00  0.00     0.157 HD
HETATM   41  H   UNK N   1      34.928  11.595  21.205  0.00  0.00     0.157 HD
ENDBRANCH  32  39
ENDBRANCH   4  27
TORSDOF 13
ENDMDL
MODEL 9
REMARK VINA RESULT:      -6.6      3.549      5.840
REMARK  13 active torsions:
REMARK  status: ('A' for Active; 'I' for Inactive)
REMARK    1  A    between atoms: C_6  and  C_1 
REMARK    2  A    between atoms: O_30  and  C_1 
REMARK    3  A    between atoms: C_5  and  C_2 
REMARK    4  A    between atoms: S_32  and  C_2 
REMARK    5  A    between atoms: C_12  and  C_5 
REMARK    6  A    between atoms: C_5  and  N_14 
REMARK    7  A    between atoms: C_8  and  O_25 
REMARK    8  A    between atoms: C_9  and  O_26 
REMARK    9  A    between atoms: N_15  and  C_10 
REMARK   10  A    between atoms: O_27  and  C_12 
REMARK   11  A    between atoms: C_13  and  N_24 
REMARK   12  A    between atoms: N_22  and  S_33 
REMARK   13  A    between atoms: S_33  and  O_30 
ROOT
HETATM    1  C   UNK N   1      26.669  18.481   4.423  0.00  0.00     0.180 C 
HETATM    2  C   UNK N   1      26.776  19.801   3.666  0.00  0.00     0.182 C 
HETATM    3  C   UNK N   1      25.444  19.746   2.975  0.00  0.00     0.198 C 
HETATM    4  C   UNK N   1      24.584  19.306   4.163  0.00  0.00     0.262 C 
HETATM    5  O   UNK N   1      25.346  18.368   4.899  0.00  0.00    -0.353 OA
ENDROOT
BRANCH   1   6
HETATM    6  C   UNK N   1      27.659  18.375   5.576  0.00  0.00     0.226 C 
BRANCH   6   7
HETATM    7  O   UNK N   1      27.187  17.475   6.533  0.00  0.00    -0.257 OA
BRANCH   7   8
HETATM    8  S   UNK N   1      28.178  17.683   7.920  0.00  0.00     0.363 S 
HETATM    9  O   UNK N   1      28.294  19.154   8.358  0.00  0.00    -0.175 OA
HETATM   10  O   UNK N   1      27.497  16.997   9.111  0.00  0.00    -0.175 OA
BRANCH   8  11
HETATM   11  N   UNK N   1      29.777  16.989   7.772  0.00  0.00    -0.243 N 
HETATM   12  C   UNK N   1      30.655  17.055   8.714  0.00  0.00     0.150 C 
ATOM     13  HN  UNK N   1      30.026  16.513   6.905  1.00  0.00     0.182 HD
BRANCH  12  14
HETATM   14  C   UNK N   1      31.976  16.361   8.553  0.00  0.00     0.159 C 
BRANCH  14  15
HETATM   15  C   UNK N   1      33.049  17.444   8.507  0.00  0.00     0.103 C 
BRANCH  15  16
HETATM   16  S   UNK N   1      34.595  16.935   9.317  0.00  0.00    -0.180 SA
HETATM   17  H   UNK N   1      34.572  16.136  10.417  0.00  0.00     0.101 HD
ENDBRANCH  15  16
ENDBRANCH  14  15
BRANCH  14  18
HETATM   18  N   UNK N   1      32.222  15.469   9.679  0.00  0.00    -0.419 N 
HETATM   19  H   UNK N   1      31.697  15.567  10.548  0.00  0.00     0.150 HD
HETATM   20  H   UNK N   1      32.928  14.737   9.596  0.00  0.00     0.150 HD
ENDBRANCH  14  18
ENDBRANCH  12  14
BRANCH  12  21
HETATM   21  O   UNK N   1      30.380  17.699   9.869  0.00  0.00    -0.347 OA
HETATM   22  H   UNK N   1      29.579  18.176   9.967  0.00  0.00     0.219 HD
ENDBRANCH  12  21
ENDBRANCH   8  11
ENDBRANCH   7   8
ENDBRANCH   6   7
ENDBRANCH   1   6
BRANCH   2  23
HETATM   23  O   UNK N   1      26.818  20.879   4.565  0.00  0.00    -0.390 OA
HETATM   24  H   UNK N   1      26.980  21.765   4.922  0.00  0.00     0.210 HD
ENDBRANCH   2  23
BRANCH   3  25
HETATM   25  O   UNK N   1      25.065  20.974   2.430  0.00  0.00    -0.388 OA
HETATM   26  H   UNK N   1      25.725  21.598   2.087  0.00  0.00     0.210 HD
ENDBRANCH   3  25
BRANCH   4  27
HETATM   27  N   UNK N   1      23.294  18.731   3.782  0.00  0.00    -0.297 N 
HETATM   28  C   UNK N   1      22.837  17.492   4.104  0.00  0.00     0.188 A 
HETATM   29  N   UNK N   1      21.553  17.312   3.688  0.00  0.00    -0.346 N 
HETATM   30  C   UNK N   1      21.228  18.479   3.105  0.00  0.00     0.122 A 
ATOM     31  HN  UNK N   1      20.972  16.481   3.793  1.00  0.00     0.167 HD
HETATM   32  C   UNK N   1      20.028  18.890   2.553  0.00  0.00     0.131 A 
HETATM   33  C   UNK N   1      22.277  19.324   3.148  0.00  0.00     0.142 A 
HETATM   34  N   UNK N   1      19.956  20.158   2.049  0.00  0.00    -0.337 N 
HETATM   35  C   UNK N   1      21.044  20.998   2.091  0.00  0.00     0.183 A 
ATOM     36  HN  UNK N   1      19.084  20.485   1.634  1.00  0.00     0.168 HD
HETATM   37  N   UNK N   1      22.220  20.585   2.658  0.00  0.00    -0.336 N 
ATOM     38  HN  UNK N   1      23.027  21.207   2.710  1.00  0.00     0.168 HD
BRANCH  32  39
HETATM   39  N   UNK N   1      18.900  18.044   2.540  0.00  0.00    -0.383 N 
HETATM   40  H   UNK N   1      18.213  18.084   3.243  0.00  0.00     0.157 HD
HETATM   41  H   UNK N   1      18.798  17.394   1.808  0.00  0.00     0.157 HD
ENDBRANCH  32  39
ENDBRANCH   4  27
TORSDOF 13
ENDMDL
