MODEL 1
REMARK VINA RESULT:      -5.8      0.000      0.000
REMARK  10 active torsions:
REMARK  status: ('A' for Active; 'I' for Inactive)
REMARK    1  A    between atoms: C_2  and  C_3 
REMARK    2  A    between atoms: C_2  and  C_20 
REMARK    3  A    between atoms: C_3  and  C_4 
REMARK    4  A    between atoms: C_4  and  C_5 
REMARK    5  A    between atoms: C_5  and  C_6 
REMARK    6  A    between atoms: C_6  and  C_8 
REMARK    7  A    between atoms: C_8  and  C_9 
REMARK    8  A    between atoms: C_9  and  C_10 
REMARK    9  A    between atoms: C_20  and  C_21 
REMARK   10  A    between atoms: C_21  and  O_22 
ROOT
HETATM    1  C   UNK N   1      26.456  24.654  -7.491  0.00  0.00     0.007 C 
ENDROOT
BRANCH   1   2
HETATM    2  C   UNK N   1      25.920  23.735  -6.453  0.00  0.00    -0.062 C 
HETATM    3  C   UNK N   1      25.685  22.317  -6.845  0.00  0.00     0.048 C 
BRANCH   2   4
HETATM    4  C   UNK N   1      25.628  24.091  -5.188  0.00  0.00     0.007 C 
BRANCH   4   5
HETATM    5  C   UNK N   1      26.584  24.065  -4.064  0.00  0.00     0.001 C 
BRANCH   5   6
HETATM    6  C   UNK N   1      27.801  24.629  -4.093  0.00  0.00     0.006 C 
BRANCH   6   7
HETATM    7  C   UNK N   1      29.088  23.925  -4.296  0.00  0.00    -0.064 C 
HETATM    8  C   UNK N   1      29.291  22.967  -5.435  0.00  0.00     0.048 C 
BRANCH   7   9
HETATM    9  C   UNK N   1      30.075  24.165  -3.425  0.00  0.00     0.005 C 
BRANCH   9  10
HETATM   10  C   UNK N   1      30.805  23.080  -2.694  0.00  0.00     0.192 C 
BRANCH  10  11
HETATM   11  O   UNK N   1      30.367  23.021  -1.369  0.00  0.00    -0.397 OA
HETATM   12  H   UNK N   1      29.611  22.760  -0.820  0.00  0.00     0.209 HD
ENDBRANCH  10  11
ENDBRANCH   9  10
ENDBRANCH   7   9
ENDBRANCH   6   7
ENDBRANCH   5   6
ENDBRANCH   4   5
ENDBRANCH   2   4
ENDBRANCH   1   2
BRANCH   1  13
HETATM   13  C   UNK N   1      26.100  25.938  -7.597  0.00  0.00     0.009 C 
BRANCH  13  14
HETATM   14  C   UNK N   1      26.800  27.062  -6.917  0.00  0.00    -0.041 C 
HETATM   15  C   UNK N   1      26.160  27.697  -5.899  0.00  0.00    -0.009 C 
HETATM   16  C   UNK N   1      24.760  27.313  -5.504  0.00  0.00     0.052 C 
HETATM   17  C   UNK N   1      26.843  28.762  -5.128  0.00  0.00     0.155 C 
HETATM   18  O   UNK N   1      26.231  29.429  -4.309  0.00  0.00    -0.293 OA
HETATM   19  C   UNK N   1      28.311  28.961  -5.298  0.00  0.00     0.084 C 
HETATM   20  C   UNK N   1      28.640  28.848  -6.770  0.00  0.00     0.021 C 
HETATM   21  C   UNK N   1      28.208  27.497  -7.362  0.00  0.00    -0.019 C 
HETATM   22  C   UNK N   1      29.221  26.425  -6.994  0.00  0.00     0.020 C 
HETATM   23  C   UNK N   1      28.245  27.704  -8.868  0.00  0.00     0.020 C 
ENDBRANCH  13  14
ENDBRANCH   1  13
TORSDOF 10
ENDMDL
MODEL 2
REMARK VINA RESULT:      -5.7      1.287      2.149
REMARK  10 active torsions:
REMARK  status: ('A' for Active; 'I' for Inactive)
REMARK    1  A    between atoms: C_2  and  C_3 
REMARK    2  A    between atoms: C_2  and  C_20 
REMARK    3  A    between atoms: C_3  and  C_4 
REMARK    4  A    between atoms: C_4  and  C_5 
REMARK    5  A    between atoms: C_5  and  C_6 
REMARK    6  A    between atoms: C_6  and  C_8 
REMARK    7  A    between atoms: C_8  and  C_9 
REMARK    8  A    between atoms: C_9  and  C_10 
REMARK    9  A    between atoms: C_20  and  C_21 
REMARK   10  A    between atoms: C_21  and  O_22 
ROOT
HETATM    1  C   UNK N   1      27.614  26.342  -7.977  0.00  0.00     0.007 C 
ENDROOT
BRANCH   1   2
HETATM    2  C   UNK N   1      26.835  25.115  -8.290  0.00  0.00    -0.062 C 
HETATM    3  C   UNK N   1      25.819  25.204  -9.375  0.00  0.00     0.048 C 
BRANCH   2   4
HETATM    4  C   UNK N   1      26.979  23.932  -7.663  0.00  0.00     0.007 C 
BRANCH   4   5
HETATM    5  C   UNK N   1      26.964  23.750  -6.197  0.00  0.00     0.001 C 
BRANCH   5   6
HETATM    6  C   UNK N   1      28.062  23.733  -5.427  0.00  0.00     0.006 C 
BRANCH   6   7
HETATM    7  C   UNK N   1      28.110  23.976  -3.966  0.00  0.00    -0.064 C 
HETATM    8  C   UNK N   1      26.936  24.545  -3.222  0.00  0.00     0.048 C 
BRANCH   7   9
HETATM    9  C   UNK N   1      29.243  23.677  -3.321  0.00  0.00     0.005 C 
BRANCH   9  10
HETATM   10  C   UNK N   1      29.273  22.966  -2.003  0.00  0.00     0.192 C 
BRANCH  10  11
HETATM   11  O   UNK N   1      30.558  23.026  -1.459  0.00  0.00    -0.397 OA
HETATM   12  H   UNK N   1      31.383  23.535  -1.489  0.00  0.00     0.209 HD
ENDBRANCH  10  11
ENDBRANCH   9  10
ENDBRANCH   7   9
ENDBRANCH   6   7
ENDBRANCH   5   6
ENDBRANCH   4   5
ENDBRANCH   2   4
ENDBRANCH   1   2
BRANCH   1  13
HETATM   13  C   UNK N   1      27.069  27.458  -7.485  0.00  0.00     0.009 C 
BRANCH  13  14
HETATM   14  C   UNK N   1      27.207  27.909  -6.072  0.00  0.00    -0.041 C 
HETATM   15  C   UNK N   1      26.183  27.661  -5.214  0.00  0.00    -0.009 C 
HETATM   16  C   UNK N   1      24.918  26.999  -5.686  0.00  0.00     0.052 C 
HETATM   17  C   UNK N   1      26.304  28.007  -3.778  0.00  0.00     0.155 C 
HETATM   18  O   UNK N   1      25.342  27.916  -3.032  0.00  0.00    -0.293 OA
HETATM   19  C   UNK N   1      27.636  28.388  -3.227  0.00  0.00     0.084 C 
HETATM   20  C   UNK N   1      28.319  29.300  -4.222  0.00  0.00     0.021 C 
HETATM   21  C   UNK N   1      28.476  28.644  -5.602  0.00  0.00    -0.019 C 
HETATM   22  C   UNK N   1      29.654  27.683  -5.586  0.00  0.00     0.020 C 
HETATM   23  C   UNK N   1      28.800  29.792  -6.544  0.00  0.00     0.020 C 
ENDBRANCH  13  14
ENDBRANCH   1  13
TORSDOF 10
ENDMDL
MODEL 3
REMARK VINA RESULT:      -5.6     21.933     26.799
REMARK  10 active torsions:
REMARK  status: ('A' for Active; 'I' for Inactive)
REMARK    1  A    between atoms: C_2  and  C_3 
REMARK    2  A    between atoms: C_2  and  C_20 
REMARK    3  A    between atoms: C_3  and  C_4 
REMARK    4  A    between atoms: C_4  and  C_5 
REMARK    5  A    between atoms: C_5  and  C_6 
REMARK    6  A    between atoms: C_6  and  C_8 
REMARK    7  A    between atoms: C_8  and  C_9 
REMARK    8  A    between atoms: C_9  and  C_10 
REMARK    9  A    between atoms: C_20  and  C_21 
REMARK   10  A    between atoms: C_21  and  O_22 
ROOT
HETATM    1  C   UNK N   1      34.500  10.292  15.165  0.00  0.00     0.007 C 
ENDROOT
BRANCH   1   2
HETATM    2  C   UNK N   1      34.583   9.862  13.744  0.00  0.00    -0.062 C 
HETATM    3  C   UNK N   1      35.436   8.683  13.431  0.00  0.00     0.048 C 
BRANCH   2   4
HETATM    4  C   UNK N   1      33.948  10.465  12.721  0.00  0.00     0.007 C 
BRANCH   4   5
HETATM    5  C   UNK N   1      34.620  11.102  11.571  0.00  0.00     0.001 C 
BRANCH   5   6
HETATM    6  C   UNK N   1      34.939  12.403  11.507  0.00  0.00     0.006 C 
BRANCH   6   7
HETATM    7  C   UNK N   1      35.995  13.085  12.290  0.00  0.00    -0.064 C 
HETATM    8  C   UNK N   1      37.178  12.339  12.836  0.00  0.00     0.048 C 
BRANCH   7   9
HETATM    9  C   UNK N   1      35.861  14.399  12.504  0.00  0.00     0.005 C 
BRANCH   9  10
HETATM   10  C   UNK N   1      35.733  15.401  11.398  0.00  0.00     0.192 C 
BRANCH  10  11
HETATM   11  O   UNK N   1      36.990  15.921  11.080  0.00  0.00    -0.397 OA
HETATM   12  H   UNK N   1      37.523  16.245  10.337  0.00  0.00     0.209 HD
ENDBRANCH  10  11
ENDBRANCH   9  10
ENDBRANCH   7   9
ENDBRANCH   6   7
ENDBRANCH   5   6
ENDBRANCH   4   5
ENDBRANCH   2   4
ENDBRANCH   1   2
BRANCH   1  13
HETATM   13  C   UNK N   1      35.570  10.539  15.927  0.00  0.00     0.009 C 
BRANCH  13  14
HETATM   14  C   UNK N   1      35.518  11.200  17.260  0.00  0.00    -0.041 C 
HETATM   15  C   UNK N   1      35.399  12.554  17.304  0.00  0.00    -0.009 C 
HETATM   16  C   UNK N   1      35.376  13.371  16.042  0.00  0.00     0.052 C 
HETATM   17  C   UNK N   1      35.252  13.254  18.601  0.00  0.00     0.155 C 
HETATM   18  O   UNK N   1      35.284  14.474  18.657  0.00  0.00    -0.293 OA
HETATM   19  C   UNK N   1      34.977  12.463  19.834  0.00  0.00     0.084 C 
HETATM   20  C   UNK N   1      35.846  11.225  19.807  0.00  0.00     0.021 C 
HETATM   21  C   UNK N   1      35.604  10.369  18.554  0.00  0.00    -0.019 C 
HETATM   22  C   UNK N   1      34.337   9.547  18.726  0.00  0.00     0.020 C 
HETATM   23  C   UNK N   1      36.792   9.423  18.494  0.00  0.00     0.020 C 
ENDBRANCH  13  14
ENDBRANCH   1  13
TORSDOF 10
ENDMDL
MODEL 4
REMARK VINA RESULT:      -5.5     10.773     14.859
REMARK  10 active torsions:
REMARK  status: ('A' for Active; 'I' for Inactive)
REMARK    1  A    between atoms: C_2  and  C_3 
REMARK    2  A    between atoms: C_2  and  C_20 
REMARK    3  A    between atoms: C_3  and  C_4 
REMARK    4  A    between atoms: C_4  and  C_5 
REMARK    5  A    between atoms: C_5  and  C_6 
REMARK    6  A    between atoms: C_6  and  C_8 
REMARK    7  A    between atoms: C_8  and  C_9 
REMARK    8  A    between atoms: C_9  and  C_10 
REMARK    9  A    between atoms: C_20  and  C_21 
REMARK   10  A    between atoms: C_21  and  O_22 
ROOT
HETATM    1  C   UNK N   1      28.910  17.486   6.339  0.00  0.00     0.007 C 
ENDROOT
BRANCH   1   2
HETATM    2  C   UNK N   1      28.251  18.682   6.927  0.00  0.00    -0.062 C 
HETATM    3  C   UNK N   1      28.197  18.778   8.412  0.00  0.00     0.048 C 
BRANCH   2   4
HETATM    4  C   UNK N   1      27.695  19.680   6.215  0.00  0.00     0.007 C 
BRANCH   4   5
HETATM    5  C   UNK N   1      28.040  20.011   4.817  0.00  0.00     0.001 C 
BRANCH   5   6
HETATM    6  C   UNK N   1      27.191  19.907   3.785  0.00  0.00     0.006 C 
BRANCH   6   7
HETATM    7  C   UNK N   1      26.046  18.972   3.683  0.00  0.00    -0.064 C 
HETATM    8  C   UNK N   1      26.240  17.483   3.690  0.00  0.00     0.048 C 
BRANCH   7   9
HETATM    9  C   UNK N   1      24.819  19.497   3.579  0.00  0.00     0.005 C 
BRANCH   9  10
HETATM   10  C   UNK N   1      24.539  20.793   2.881  0.00  0.00     0.192 C 
BRANCH  10  11
HETATM   11  O   UNK N   1      23.179  21.098   2.972  0.00  0.00    -0.397 OA
HETATM   12  H   UNK N   1      22.386  20.926   3.503  0.00  0.00     0.209 HD
ENDBRANCH  10  11
ENDBRANCH   9  10
ENDBRANCH   7   9
ENDBRANCH   6   7
ENDBRANCH   5   6
ENDBRANCH   4   5
ENDBRANCH   2   4
ENDBRANCH   1   2
BRANCH   1  13
HETATM   13  C   UNK N   1      29.961  16.874   6.893  0.00  0.00     0.009 C 
BRANCH  13  14
HETATM   14  C   UNK N   1      31.346  16.927   6.348  0.00  0.00    -0.041 C 
HETATM   15  C   UNK N   1      32.312  17.521   7.098  0.00  0.00    -0.009 C 
HETATM   16  C   UNK N   1      31.984  18.158   8.420  0.00  0.00     0.052 C 
HETATM   17  C   UNK N   1      33.723  17.522   6.646  0.00  0.00     0.155 C 
HETATM   18  O   UNK N   1      34.568  18.170   7.242  0.00  0.00    -0.293 OA
HETATM   19  C   UNK N   1      34.125  16.655   5.501  0.00  0.00     0.084 C 
HETATM   20  C   UNK N   1      33.053  16.745   4.437  0.00  0.00     0.021 C 
HETATM   21  C   UNK N   1      31.671  16.331   4.966  0.00  0.00    -0.019 C 
HETATM   22  C   UNK N   1      31.572  14.815   5.020  0.00  0.00     0.020 C 
HETATM   23  C   UNK N   1      30.688  16.844   3.926  0.00  0.00     0.020 C 
ENDBRANCH  13  14
ENDBRANCH   1  13
TORSDOF 10
ENDMDL
MODEL 5
REMARK VINA RESULT:      -5.5      1.592      2.901
REMARK  10 active torsions:
REMARK  status: ('A' for Active; 'I' for Inactive)
REMARK    1  A    between atoms: C_2  and  C_3 
REMARK    2  A    between atoms: C_2  and  C_20 
REMARK    3  A    between atoms: C_3  and  C_4 
REMARK    4  A    between atoms: C_4  and  C_5 
REMARK    5  A    between atoms: C_5  and  C_6 
REMARK    6  A    between atoms: C_6  and  C_8 
REMARK    7  A    between atoms: C_8  and  C_9 
REMARK    8  A    between atoms: C_9  and  C_10 
REMARK    9  A    between atoms: C_20  and  C_21 
REMARK   10  A    between atoms: C_21  and  O_22 
ROOT
HETATM    1  C   UNK N   1      25.026  26.338  -5.552  0.00  0.00     0.007 C 
ENDROOT
BRANCH   1   2
HETATM    2  C   UNK N   1      25.687  25.008  -5.610  0.00  0.00    -0.062 C 
HETATM    3  C   UNK N   1      25.867  24.387  -6.951  0.00  0.00     0.048 C 
BRANCH   2   4
HETATM    4  C   UNK N   1      26.131  24.323  -4.539  0.00  0.00     0.007 C 
BRANCH   4   5
HETATM    5  C   UNK N   1      27.549  24.018  -4.262  0.00  0.00     0.001 C 
BRANCH   5   6
HETATM    6  C   UNK N   1      28.530  24.933  -4.249  0.00  0.00     0.006 C 
BRANCH   6   7
HETATM    7  C   UNK N   1      29.857  24.784  -3.609  0.00  0.00    -0.064 C 
HETATM    8  C   UNK N   1      30.920  25.837  -3.742  0.00  0.00     0.048 C 
BRANCH   7   9
HETATM    9  C   UNK N   1      30.088  23.670  -2.904  0.00  0.00     0.005 C 
BRANCH   9  10
HETATM   10  C   UNK N   1      31.180  22.701  -3.238  0.00  0.00     0.192 C 
BRANCH  10  11
HETATM   11  O   UNK N   1      31.687  22.133  -2.067  0.00  0.00    -0.397 OA
HETATM   12  H   UNK N   1      31.645  22.197  -1.099  0.00  0.00     0.209 HD
ENDBRANCH  10  11
ENDBRANCH   9  10
ENDBRANCH   7   9
ENDBRANCH   6   7
ENDBRANCH   5   6
ENDBRANCH   4   5
ENDBRANCH   2   4
ENDBRANCH   1   2
BRANCH   1  13
HETATM   13  C   UNK N   1      25.603  27.470  -5.964  0.00  0.00     0.009 C 
BRANCH  13  14
HETATM   14  C   UNK N   1      26.913  27.975  -5.466  0.00  0.00    -0.041 C 
HETATM   15  C   UNK N   1      27.987  27.912  -6.298  0.00  0.00    -0.009 C 
HETATM   16  C   UNK N   1      27.871  27.298  -7.666  0.00  0.00     0.052 C 
HETATM   17  C   UNK N   1      29.291  28.481  -5.888  0.00  0.00     0.155 C 
HETATM   18  O   UNK N   1      30.289  28.306  -6.568  0.00  0.00    -0.293 OA
HETATM   19  C   UNK N   1      29.363  29.347  -4.675  0.00  0.00     0.084 C 
HETATM   20  C   UNK N   1      28.505  28.726  -3.596  0.00  0.00     0.021 C 
HETATM   21  C   UNK N   1      27.046  28.546  -4.042  0.00  0.00    -0.019 C 
HETATM   22  C   UNK N   1      26.309  29.872  -3.946  0.00  0.00     0.020 C 
HETATM   23  C   UNK N   1      26.446  27.583  -3.030  0.00  0.00     0.020 C 
ENDBRANCH  13  14
ENDBRANCH   1  13
TORSDOF 10
ENDMDL
MODEL 6
REMARK VINA RESULT:      -5.5      2.661      5.478
REMARK  10 active torsions:
REMARK  status: ('A' for Active; 'I' for Inactive)
REMARK    1  A    between atoms: C_2  and  C_3 
REMARK    2  A    between atoms: C_2  and  C_20 
REMARK    3  A    between atoms: C_3  and  C_4 
REMARK    4  A    between atoms: C_4  and  C_5 
REMARK    5  A    between atoms: C_5  and  C_6 
REMARK    6  A    between atoms: C_6  and  C_8 
REMARK    7  A    between atoms: C_8  and  C_9 
REMARK    8  A    between atoms: C_9  and  C_10 
REMARK    9  A    between atoms: C_20  and  C_21 
REMARK   10  A    between atoms: C_21  and  O_22 
ROOT
HETATM    1  C   UNK N   1      27.643  28.311  -6.991  0.00  0.00     0.007 C 
ENDROOT
BRANCH   1   2
HETATM    2  C   UNK N   1      27.849  29.330  -5.929  0.00  0.00    -0.062 C 
HETATM    3  C   UNK N   1      29.037  30.219  -6.049  0.00  0.00     0.048 C 
BRANCH   2   4
HETATM    4  C   UNK N   1      27.043  29.504  -4.864  0.00  0.00     0.007 C 
BRANCH   4   5
HETATM    5  C   UNK N   1      27.265  28.904  -3.533  0.00  0.00     0.001 C 
BRANCH   5   6
HETATM    6  C   UNK N   1      27.725  29.578  -2.468  0.00  0.00     0.006 C 
BRANCH   6   7
HETATM    7  C   UNK N   1      29.116  29.567  -1.959  0.00  0.00    -0.064 C 
HETATM    8  C   UNK N   1      30.222  28.875  -2.702  0.00  0.00     0.048 C 
BRANCH   7   9
HETATM    9  C   UNK N   1      29.361  30.193  -0.802  0.00  0.00     0.005 C 
BRANCH   9  10
HETATM   10  C   UNK N   1      28.311  30.435   0.238  0.00  0.00     0.192 C 
BRANCH  10  11
HETATM   11  O   UNK N   1      28.734  29.926   1.468  0.00  0.00    -0.397 OA
HETATM   12  H   UNK N   1      28.404  29.571   2.309  0.00  0.00     0.209 HD
ENDBRANCH  10  11
ENDBRANCH   9  10
ENDBRANCH   7   9
ENDBRANCH   6   7
ENDBRANCH   5   6
ENDBRANCH   4   5
ENDBRANCH   2   4
ENDBRANCH   1   2
BRANCH   1  13
HETATM   13  C   UNK N   1      28.090  27.054  -6.907  0.00  0.00     0.009 C 
BRANCH  13  14
HETATM   14  C   UNK N   1      27.525  26.020  -5.996  0.00  0.00    -0.041 C 
HETATM   15  C   UNK N   1      28.314  25.538  -4.999  0.00  0.00    -0.009 C 
HETATM   16  C   UNK N   1      29.739  25.995  -4.851  0.00  0.00     0.052 C 
HETATM   17  C   UNK N   1      27.774  24.577  -4.011  0.00  0.00     0.155 C 
HETATM   18  O   UNK N   1      28.511  24.036  -3.201  0.00  0.00    -0.293 OA
HETATM   19  C   UNK N   1      26.304  24.333  -3.953  0.00  0.00     0.084 C 
HETATM   20  C   UNK N   1      25.781  24.242  -5.370  0.00  0.00     0.021 C 
HETATM   21  C   UNK N   1      26.086  25.507  -6.187  0.00  0.00    -0.019 C 
HETATM   22  C   UNK N   1      25.094  26.602  -5.830  0.00  0.00     0.020 C 
HETATM   23  C   UNK N   1      25.858  25.099  -7.634  0.00  0.00     0.020 C 
ENDBRANCH  13  14
ENDBRANCH   1  13
TORSDOF 10
ENDMDL
MODEL 7
REMARK VINA RESULT:      -5.4      1.600      3.553
REMARK  10 active torsions:
REMARK  status: ('A' for Active; 'I' for Inactive)
REMARK    1  A    between atoms: C_2  and  C_3 
REMARK    2  A    between atoms: C_2  and  C_20 
REMARK    3  A    between atoms: C_3  and  C_4 
REMARK    4  A    between atoms: C_4  and  C_5 
REMARK    5  A    between atoms: C_5  and  C_6 
REMARK    6  A    between atoms: C_6  and  C_8 
REMARK    7  A    between atoms: C_8  and  C_9 
REMARK    8  A    between atoms: C_9  and  C_10 
REMARK    9  A    between atoms: C_20  and  C_21 
REMARK   10  A    between atoms: C_21  and  O_22 
ROOT
HETATM    1  C   UNK N   1      29.999  28.262  -6.655  0.00  0.00     0.007 C 
ENDROOT
BRANCH   1   2
HETATM    2  C   UNK N   1      30.361  26.830  -6.820  0.00  0.00    -0.062 C 
HETATM    3  C   UNK N   1      30.197  26.230  -8.173  0.00  0.00     0.048 C 
BRANCH   2   4
HETATM    4  C   UNK N   1      30.821  26.036  -5.835  0.00  0.00     0.007 C 
BRANCH   4   5
HETATM    5  C   UNK N   1      30.347  26.067  -4.437  0.00  0.00     0.001 C 
BRANCH   5   6
HETATM    6  C   UNK N   1      29.126  25.675  -4.044  0.00  0.00     0.006 C 
BRANCH   6   7
HETATM    7  C   UNK N   1      28.561  24.312  -4.173  0.00  0.00    -0.064 C 
HETATM    8  C   UNK N   1      27.288  24.054  -4.927  0.00  0.00     0.048 C 
BRANCH   7   9
HETATM    9  C   UNK N   1      29.220  23.305  -3.588  0.00  0.00     0.005 C 
BRANCH   9  10
HETATM   10  C   UNK N   1      29.181  23.047  -2.113  0.00  0.00     0.192 C 
BRANCH  10  11
HETATM   11  O   UNK N   1      30.478  23.057  -1.594  0.00  0.00    -0.397 OA
HETATM   12  H   UNK N   1      31.076  23.569  -1.027  0.00  0.00     0.209 HD
ENDBRANCH  10  11
ENDBRANCH   9  10
ENDBRANCH   7   9
ENDBRANCH   6   7
ENDBRANCH   5   6
ENDBRANCH   4   5
ENDBRANCH   2   4
ENDBRANCH   1   2
BRANCH   1  13
HETATM   13  C   UNK N   1      28.769  28.742  -6.861  0.00  0.00     0.009 C 
BRANCH  13  14
HETATM   14  C   UNK N   1      27.651  28.638  -5.882  0.00  0.00    -0.041 C 
HETATM   15  C   UNK N   1      26.673  27.723  -6.116  0.00  0.00    -0.009 C 
HETATM   16  C   UNK N   1      26.687  26.873  -7.357  0.00  0.00     0.052 C 
HETATM   17  C   UNK N   1      25.588  27.514  -5.130  0.00  0.00     0.155 C 
HETATM   18  O   UNK N   1      24.635  26.797  -5.394  0.00  0.00    -0.293 OA
HETATM   19  C   UNK N   1      25.704  28.121  -3.772  0.00  0.00     0.084 C 
HETATM   20  C   UNK N   1      26.246  29.524  -3.924  0.00  0.00     0.021 C 
HETATM   21  C   UNK N   1      27.603  29.551  -4.644  0.00  0.00    -0.019 C 
HETATM   22  C   UNK N   1      28.710  29.167  -3.674  0.00  0.00     0.020 C 
HETATM   23  C   UNK N   1      27.799  31.003  -5.051  0.00  0.00     0.020 C 
ENDBRANCH  13  14
ENDBRANCH   1  13
TORSDOF 10
ENDMDL
MODEL 8
REMARK VINA RESULT:      -5.3     20.039     25.135
REMARK  10 active torsions:
REMARK  status: ('A' for Active; 'I' for Inactive)
REMARK    1  A    between atoms: C_2  and  C_3 
REMARK    2  A    between atoms: C_2  and  C_20 
REMARK    3  A    between atoms: C_3  and  C_4 
REMARK    4  A    between atoms: C_4  and  C_5 
REMARK    5  A    between atoms: C_5  and  C_6 
REMARK    6  A    between atoms: C_6  and  C_8 
REMARK    7  A    between atoms: C_8  and  C_9 
REMARK    8  A    between atoms: C_9  and  C_10 
REMARK    9  A    between atoms: C_20  and  C_21 
REMARK   10  A    between atoms: C_21  and  O_22 
ROOT
HETATM    1  C   UNK N   1      36.171  13.608  14.484  0.00  0.00     0.007 C 
ENDROOT
BRANCH   1   2
HETATM    2  C   UNK N   1      35.807  13.762  13.050  0.00  0.00    -0.062 C 
HETATM    3  C   UNK N   1      35.083  12.636  12.400  0.00  0.00     0.048 C 
BRANCH   2   4
HETATM    4  C   UNK N   1      36.089  14.843  12.298  0.00  0.00     0.007 C 
BRANCH   4   5
HETATM    5  C   UNK N   1      35.104  15.582  11.483  0.00  0.00     0.001 C 
BRANCH   5   6
HETATM    6  C   UNK N   1      35.421  16.367  10.443  0.00  0.00     0.006 C 
BRANCH   6   7
HETATM    7  C   UNK N   1      34.775  16.359   9.110  0.00  0.00    -0.064 C 
HETATM    8  C   UNK N   1      35.133  15.339   8.067  0.00  0.00     0.048 C 
BRANCH   7   9
HETATM    9  C   UNK N   1      33.858  17.299   8.856  0.00  0.00     0.005 C 
BRANCH   9  10
HETATM   10  C   UNK N   1      34.134  18.506   8.013  0.00  0.00     0.192 C 
BRANCH  10  11
HETATM   11  O   UNK N   1      35.259  19.177   8.498  0.00  0.00    -0.397 OA
HETATM   12  H   UNK N   1      36.172  19.413   8.269  0.00  0.00     0.209 HD
ENDBRANCH  10  11
ENDBRANCH   9  10
ENDBRANCH   7   9
ENDBRANCH   6   7
ENDBRANCH   5   6
ENDBRANCH   4   5
ENDBRANCH   2   4
ENDBRANCH   1   2
BRANCH   1  13
HETATM   13  C   UNK N   1      35.279  13.386  15.453  0.00  0.00     0.009 C 
BRANCH  13  14
HETATM   14  C   UNK N   1      35.403  12.313  16.479  0.00  0.00    -0.041 C 
HETATM   15  C   UNK N   1      35.322  12.663  17.791  0.00  0.00    -0.009 C 
HETATM   16  C   UNK N   1      35.166  14.102  18.200  0.00  0.00     0.052 C 
HETATM   17  C   UNK N   1      35.348  11.627  18.849  0.00  0.00     0.155 C 
HETATM   18  O   UNK N   1      35.415  11.941  20.027  0.00  0.00    -0.293 OA
HETATM   19  C   UNK N   1      35.206  10.191  18.472  0.00  0.00     0.084 C 
HETATM   20  C   UNK N   1      36.036   9.941  17.232  0.00  0.00     0.021 C 
HETATM   21  C   UNK N   1      35.625  10.848  16.062  0.00  0.00    -0.019 C 
HETATM   22  C   UNK N   1      34.370  10.302  15.402  0.00  0.00     0.020 C 
HETATM   23  C   UNK N   1      36.775  10.750  15.072  0.00  0.00     0.020 C 
ENDBRANCH  13  14
ENDBRANCH   1  13
TORSDOF 10
ENDMDL
MODEL 9
REMARK VINA RESULT:      -5.2     11.676     15.163
REMARK  10 active torsions:
REMARK  status: ('A' for Active; 'I' for Inactive)
REMARK    1  A    between atoms: C_2  and  C_3 
REMARK    2  A    between atoms: C_2  and  C_20 
REMARK    3  A    between atoms: C_3  and  C_4 
REMARK    4  A    between atoms: C_4  and  C_5 
REMARK    5  A    between atoms: C_5  and  C_6 
REMARK    6  A    between atoms: C_6  and  C_8 
REMARK    7  A    between atoms: C_8  and  C_9 
REMARK    8  A    between atoms: C_9  and  C_10 
REMARK    9  A    between atoms: C_20  and  C_21 
REMARK   10  A    between atoms: C_21  and  O_22 
ROOT
HETATM    1  C   UNK N   1      27.810  19.558   7.152  0.00  0.00     0.007 C 
ENDROOT
BRANCH   1   2
HETATM    2  C   UNK N   1      27.477  20.440   6.003  0.00  0.00    -0.062 C 
HETATM    3  C   UNK N   1      26.693  21.674   6.288  0.00  0.00     0.048 C 
BRANCH   2   4
HETATM    4  C   UNK N   1      27.827  20.202   4.725  0.00  0.00     0.007 C 
BRANCH   4   5
HETATM    5  C   UNK N   1      26.896  19.767   3.664  0.00  0.00     0.001 C 
BRANCH   5   6
HETATM    6  C   UNK N   1      25.816  19.001   3.874  0.00  0.00     0.006 C 
BRANCH   6   7
HETATM    7  C   UNK N   1      25.812  17.540   4.120  0.00  0.00    -0.064 C 
HETATM    8  C   UNK N   1      25.172  16.949   5.344  0.00  0.00     0.048 C 
BRANCH   7   9
HETATM    9  C   UNK N   1      26.407  16.754   3.216  0.00  0.00     0.005 C 
BRANCH   9  10
HETATM   10  C   UNK N   1      25.721  15.592   2.563  0.00  0.00     0.192 C 
BRANCH  10  11
HETATM   11  O   UNK N   1      25.963  15.609   1.188  0.00  0.00    -0.397 OA
HETATM   12  H   UNK N   1      25.595  15.918   0.345  0.00  0.00     0.209 HD
ENDBRANCH  10  11
ENDBRANCH   9  10
ENDBRANCH   7   9
ENDBRANCH   6   7
ENDBRANCH   5   6
ENDBRANCH   4   5
ENDBRANCH   2   4
ENDBRANCH   1   2
BRANCH   1  13
HETATM   13  C   UNK N   1      28.079  18.255   7.030  0.00  0.00     0.009 C 
BRANCH  13  14
HETATM   14  C   UNK N   1      29.402  17.639   7.329  0.00  0.00    -0.041 C 
HETATM   15  C   UNK N   1      30.117  17.115   6.298  0.00  0.00    -0.009 C 
HETATM   16  C   UNK N   1      29.566  17.105   4.899  0.00  0.00     0.052 C 
HETATM   17  C   UNK N   1      31.476  16.572   6.525  0.00  0.00     0.155 C 
HETATM   18  O   UNK N   1      32.066  15.976   5.636  0.00  0.00    -0.293 OA
HETATM   19  C   UNK N   1      32.161  16.830   7.824  0.00  0.00     0.084 C 
HETATM   20  C   UNK N   1      31.150  16.660   8.936  0.00  0.00     0.021 C 
HETATM   21  C   UNK N   1      29.939  17.592   8.771  0.00  0.00    -0.019 C 
HETATM   22  C   UNK N   1      30.300  18.994   9.235  0.00  0.00     0.020 C 
HETATM   23  C   UNK N   1      28.884  17.028   9.709  0.00  0.00     0.020 C 
ENDBRANCH  13  14
ENDBRANCH   1  13
TORSDOF 10
ENDMDL
