MODEL 1
REMARK VINA RESULT:      -6.5      0.000      0.000
REMARK WARNING: 32 MAX_TORS EXCEEDED!!!
REMARK  77 active torsions:
REMARK  status: ('A' for Active; 'I' for Inactive)
REMARK    1  A    between atoms: C_9  and  C_1 
REMARK    2  A    between atoms: C_17  and  C_1 
REMARK    3  A    between atoms: C_10  and  C_2 
REMARK    4  A    between atoms: C_18  and  C_2 
REMARK    5  A    between atoms: C_11  and  C_3 
REMARK    6  A    between atoms: C_19  and  C_3 
REMARK    7  A    between atoms: C_12  and  C_4 
REMARK    8  A    between atoms: C_20  and  C_4 
REMARK    9  A    between atoms: C_13  and  C_5 
REMARK   10  A    between atoms: C_29  and  C_5 
REMARK   11  A    between atoms: C_14  and  C_6 
REMARK   12  A    between atoms: C_30  and  C_6 
REMARK   13  A    between atoms: C_15  and  C_7 
REMARK   14  A    between atoms: C_31  and  C_7 
REMARK   15  A    between atoms: C_16  and  C_8 
REMARK   16  A    between atoms: C_32  and  C_8 
REMARK   17  A    between atoms: N_81  and  C_9 
REMARK   18  A    between atoms: N_82  and  C_10 
REMARK   19  A    between atoms: N_85  and  C_11 
REMARK   20  A    between atoms: N_87  and  C_12 
REMARK   21  A    between atoms: N_83  and  C_13 
REMARK   22  A    between atoms: N_84  and  C_14 
REMARK   23  A    between atoms: N_89  and  C_15 
REMARK   24  A    between atoms: N_91  and  C_16 
REMARK   25  A    between atoms: N_93  and  C_17 
REMARK   26  A    between atoms: N_94  and  C_18 
REMARK   27  A    between atoms: N_95  and  C_19 
REMARK   28  A    between atoms: N_96  and  C_20 
REMARK   29  A    between atoms: O_119  and  C_29 
REMARK   30  A    between atoms: O_120  and  C_30 
REMARK   31  A    between atoms: O_121  and  C_31 
REMARK   32  A    between atoms: O_122  and  C_32 
REMARK   33  A    between atoms: C_37  and  C_33 
REMARK   34  A    between atoms: O_119  and  C_33 
REMARK   35  A    between atoms: C_38  and  C_34 
REMARK   36  A    between atoms: O_120  and  C_34 
REMARK   37  A    between atoms: C_39  and  C_35 
REMARK   38  A    between atoms: O_121  and  C_35 
REMARK   39  A    between atoms: C_40  and  C_36 
REMARK   40  A    between atoms: O_122  and  C_36 
REMARK   41  A    between atoms: O_123  and  C_37 
REMARK   42  A    between atoms: O_124  and  C_38 
REMARK   43  A    between atoms: O_123  and  C_39 
REMARK   44  A    between atoms: O_124  and  C_40 
REMARK   45  A    between atoms: C_58  and  C_47 
REMARK   46  A    between atoms: O_99  and  C_47 
REMARK   47  A    between atoms: C_59  and  C_48 
REMARK   48  A    between atoms: O_100  and  C_48 
REMARK   49  A    between atoms: C_53  and  C_49 
REMARK   50  A    between atoms: O_125  and  C_49 
REMARK   51  A    between atoms: C_53  and  C_50 
REMARK   52  A    between atoms: O_126  and  C_50 
REMARK   53  A    between atoms: C_74  and  C_51 
REMARK   54  A    between atoms: C_75  and  C_52 
REMARK   55  A    between atoms: N_80  and  C_53 
REMARK   56  A    between atoms: N_97  and  C_54 
REMARK   57  A    between atoms: N_98  and  C_55 
REMARK   58  A    between atoms: O_127  and  C_56 
REMARK   59  A    between atoms: O_128  and  C_57 
REMARK   60  A    between atoms: N_81  and  C_60 
REMARK   61  A    between atoms: N_82  and  C_61 
REMARK   62  A    between atoms: N_83  and  C_62 
REMARK   63  A    between atoms: N_84  and  C_63 
REMARK   64  A    between atoms: C_64  and  O_101 
REMARK   65  A    between atoms: O_102  and  C_65 
REMARK   66  A    between atoms: C_70  and  O_107 
REMARK   67  A    between atoms: O_108  and  C_71 
REMARK   68  A    between atoms: C_72  and  O_109 
REMARK   69  A    between atoms: O_110  and  C_73 
REMARK   70  A    between atoms: O_111  and  C_74 
REMARK   71  A    between atoms: O_112  and  C_75 
REMARK   72  A    between atoms: C_76  and  O_127 
REMARK   73  A    between atoms: O_128  and  C_77 
REMARK   74  A    between atoms: O_113  and  C_78 
REMARK   75  A    between atoms: O_125  and  C_78 
REMARK   76  A    between atoms: O_114  and  C_79 
REMARK   77  A    between atoms: O_126  and  C_79 
ROOT
HETATM    1  C   UNK N   1      29.900  16.703   5.446  0.00  0.00     0.123 C 
ENDROOT
BRANCH   1   2
HETATM    2  C   UNK N   1      31.155  17.170   6.221  0.00  0.00     0.206 C 
BRANCH   2   3
HETATM    3  O   UNK N   1      32.256  17.458   5.428  0.00  0.00    -0.315 OA
BRANCH   3   4
HETATM    4  C   UNK N   1      33.566  17.103   5.591  0.00  0.00     0.258 C 
HETATM    5  N   UNK N   1      34.115  16.091   5.005  0.00  0.00    -0.350 N 
ATOM      6  HN  UNK N   1      35.080  15.878   5.256  1.00  0.00     0.163 HD
BRANCH   5   7
HETATM    7  C   UNK N   1      33.488  15.232   4.026  0.00  0.00     0.126 C 
BRANCH   7   8
HETATM    8  C   UNK N   1      33.336  13.809   4.562  0.00  0.00     0.046 C 
BRANCH   8   9
HETATM    9  C   UNK N   1      32.055  13.643   5.379  0.00  0.00     0.169 C 
BRANCH   9  10
HETATM   10  O   UNK N   1      32.250  12.753   6.437  0.00  0.00    -0.389 OA
BRANCH  10  11
HETATM   11  C   UNK N   1      33.374  13.215   7.129  0.00  0.00     0.193 C 
BRANCH  11  12
HETATM   12  C   UNK N   1      32.941  14.323   8.084  0.00  0.00     0.193 C 
BRANCH  12  13
HETATM   13  O   UNK N   1      33.912  15.327   8.132  0.00  0.00    -0.387 OA
BRANCH  13  14
HETATM   14  C   UNK N   1      33.877  15.817   9.439  0.00  0.00     0.193 C 
BRANCH  14  15
HETATM   15  C   UNK N   1      35.071  15.278  10.213  0.00  0.00     0.193 C 
BRANCH  15  16
HETATM   16  O   UNK N   1      34.623  14.524  11.306  0.00  0.00    -0.389 OA
BRANCH  16  17
HETATM   17  C   UNK N   1      34.930  13.189  11.023  0.00  0.00     0.169 C 
BRANCH  17  18
HETATM   18  C   UNK N   1      36.431  13.002  10.858  0.00  0.00     0.046 C 
BRANCH  18  19
HETATM   19  C   UNK N   1      37.015  12.760  12.234  0.00  0.00     0.122 C 
BRANCH  19  20
HETATM   20  N   UNK N   1      36.819  13.879  13.116  0.00  0.00    -0.385 N 
HETATM   21  H   UNK N   1      36.781  14.777  12.715  0.00  0.00     0.159 HD
BRANCH  20  22
HETATM   22  C   UNK N   1      36.676  13.778  14.527  0.00  0.00     0.114 A 
HETATM   23  C   UNK N   1      35.740  13.123  15.198  0.00  0.00     0.114 A 
HETATM   24  C   UNK N   1      36.059  13.782  16.459  0.00  0.00     0.252 A 
HETATM   25  C   UNK N   1      37.086  14.511  15.747  0.00  0.00     0.252 A 
HETATM   26  O   UNK N   1      35.438  13.968  17.494  0.00  0.00    -0.281 OA
HETATM   27  O   UNK N   1      37.596  15.597  15.962  0.00  0.00    -0.281 OA
BRANCH  23  28
HETATM   28  N   UNK N   1      34.621  12.435  14.713  0.00  0.00    -0.385 N 
HETATM   29  H   UNK N   1      33.804  12.909  14.434  0.00  0.00     0.159 HD
BRANCH  28  30
HETATM   30  C   UNK N   1      34.722  11.015  14.639  0.00  0.00     0.121 C 
BRANCH  30  31
HETATM   31  C   UNK N   1      33.914  10.548  13.417  0.00  0.00     0.050 C 
BRANCH  31  32
HETATM   32  C   UNK N   1      34.702   9.659  12.457  0.00  0.00     0.274 C 
BRANCH  32  33
HETATM   33  N   UNK N   1      33.847   8.907  11.546  0.00  0.00     0.091 N 
HETATM   34  C   UNK N   1      34.630   7.754  11.069  0.00  0.00     0.302 C 
HETATM   35  C   UNK N   1      34.280   7.275   9.665  0.00  0.00     0.302 C 
HETATM   36  N   UNK N   1      32.945   7.680   9.263  0.00  0.00     0.091 N 
HETATM   37  C   UNK N   1      32.848   9.138   9.227  0.00  0.00     0.302 C 
HETATM   38  C   UNK N   1      33.253   9.812  10.539  0.00  0.00     0.302 C 
BRANCH  36  39
HETATM   39  C   UNK N   1      31.884   6.958   9.993  0.00  0.00     0.274 C 
BRANCH  39  40
HETATM   40  C   UNK N   1      30.474   7.525   9.807  0.00  0.00     0.050 C 
BRANCH  40  41
HETATM   41  C   UNK N   1      29.365   6.586  10.260  0.00  0.00     0.123 C 
BRANCH  41  42
HETATM   42  N   UNK N   1      28.343   6.305   9.262  0.00  0.00    -0.370 N 
HETATM   43  C   UNK N   1      28.268   5.162   8.672  0.00  0.00     0.146 C 
ATOM     44  HN  UNK N   1      27.669   7.031   9.024  1.00  0.00     0.161 HD
BRANCH  43  45
HETATM   45  C   UNK N   1      27.051   4.739   8.009  0.00  0.00     0.019 A 
HETATM   46  C   UNK N   1      26.714   3.451   7.579  0.00  0.00     0.052 A 
HETATM   47  C   UNK N   1      25.368   3.190   7.195  0.00  0.00     0.106 A 
HETATM   48  C   UNK N   1      24.396   4.230   7.292  0.00  0.00     0.073 A 
HETATM   49  C   UNK N   1      24.778   5.497   7.771  0.00  0.00     0.075 A 
HETATM   50  C   UNK N   1      26.086   5.687   8.094  0.00  0.00     0.052 A 
BRANCH  47  51
HETATM   51  N   UNK N   1      24.985   1.875   6.796  0.00  0.00    -0.116 N 
HETATM   52  O   UNK N   1      25.792   1.139   6.304  0.00  0.00    -0.532 OA
HETATM   53  O   UNK N   1      23.854   1.518   6.900  0.00  0.00    -0.532 OA
ENDBRANCH  47  51
BRANCH  49  54
HETATM   54  O   UNK N   1      23.892   6.513   8.001  0.00  0.00    -0.318 OA
BRANCH  54  55
HETATM   55  C   UNK N   1      23.634   7.594   7.120  0.00  0.00     0.298 C 
HETATM   56  C   UNK N   1      22.665   7.177   5.987  0.00  0.00     0.205 C 
HETATM   57  C   UNK N   1      22.533   8.328   4.957  0.00  0.00     0.183 C 
HETATM   58  C   UNK N   1      23.918   8.875   4.521  0.00  0.00     0.180 C 
HETATM   59  C   UNK N   1      25.043   8.118   5.231  0.00  0.00     0.179 C 
HETATM   60  O   UNK N   1      24.831   8.242   6.635  0.00  0.00    -0.348 OA
BRANCH  56  61
HETATM   61  O   UNK N   1      21.415   6.828   6.502  0.00  0.00    -0.388 OA
HETATM   62  H   UNK N   1      20.632   6.850   5.931  0.00  0.00     0.210 HD
ENDBRANCH  56  61
BRANCH  57  63
HETATM   63  O   UNK N   1      21.784   9.377   5.497  0.00  0.00    -0.390 OA
HETATM   64  H   UNK N   1      21.650  10.026   6.206  0.00  0.00     0.210 HD
ENDBRANCH  57  63
BRANCH  58  65
HETATM   65  O   UNK N   1      24.059   8.818   3.131  0.00  0.00    -0.390 OA
HETATM   66  H   UNK N   1      24.050   9.492   2.434  0.00  0.00     0.210 HD
ENDBRANCH  58  65
BRANCH  59  67
HETATM   67  C   UNK N   1      26.401   8.714   4.865  0.00  0.00     0.198 C 
BRANCH  67  68
HETATM   68  O   UNK N   1      26.908   8.135   3.699  0.00  0.00    -0.398 OA
HETATM   69  H   UNK N   1      27.303   8.389   2.850  0.00  0.00     0.209 HD
ENDBRANCH  67  68
ENDBRANCH  59  67
ENDBRANCH  54  55
ENDBRANCH  49  54
ENDBRANCH  43  45
BRANCH  43  70
HETATM   70  O   UNK N   1      29.165   4.192   8.940  0.00  0.00    -0.346 OA
HETATM   71  H   UNK N   1      29.366   3.425   9.438  0.00  0.00     0.219 HD
ENDBRANCH  43  70
ENDBRANCH  41  42
ENDBRANCH  40  41
ENDBRANCH  39  40
ENDBRANCH  36  39
ENDBRANCH  32  33
ENDBRANCH  31  32
ENDBRANCH  30  31
ENDBRANCH  28  30
ENDBRANCH  23  28
ENDBRANCH  20  22
ENDBRANCH  19  20
ENDBRANCH  18  19
ENDBRANCH  17  18
ENDBRANCH  16  17
ENDBRANCH  15  16
ENDBRANCH  14  15
ENDBRANCH  13  14
ENDBRANCH  12  13
ENDBRANCH  11  12
ENDBRANCH  10  11
ENDBRANCH   9  10
ENDBRANCH   8   9
ENDBRANCH   7   8
ENDBRANCH   5   7
BRANCH   4  72
HETATM   72  O   UNK N   1      34.332  17.861   6.399  0.00  0.00    -0.327 OA
HETATM   73  H   UNK N   1      34.230  18.782   6.532  0.00  0.00     0.221 HD
ENDBRANCH   4  72
ENDBRANCH   3   4
ENDBRANCH   2   3
ENDBRANCH   1   2
BRANCH   1  74
HETATM   74  C   UNK N   1      28.588  16.765   6.229  0.00  0.00     0.206 C 
BRANCH  74  75
HETATM   75  O   UNK N   1      28.733  17.422   7.428  0.00  0.00    -0.315 OA
BRANCH  75  76
HETATM   76  C   UNK N   1      28.061  18.577   7.621  0.00  0.00     0.258 C 
HETATM   77  N   UNK N   1      27.904  19.402   6.642  0.00  0.00    -0.350 N 
ATOM     78  HN  UNK N   1      28.348  19.202   5.747  1.00  0.00     0.163 HD
BRANCH  77  79
HETATM   79  C   UNK N   1      27.111  20.604   6.784  0.00  0.00     0.126 C 
BRANCH  79  80
HETATM   80  C   UNK N   1      26.749  21.161   5.410  0.00  0.00     0.046 C 
BRANCH  80  81
HETATM   81  C   UNK N   1      27.167  20.192   4.320  0.00  0.00     0.169 C 
BRANCH  81  82
HETATM   82  O   UNK N   1      26.086  19.368   3.988  0.00  0.00    -0.389 OA
BRANCH  82  83
HETATM   83  C   UNK N   1      25.287  20.122   3.121  0.00  0.00     0.193 C 
BRANCH  83  84
HETATM   84  C   UNK N   1      23.817  19.891   3.428  0.00  0.00     0.193 C 
BRANCH  84  85
HETATM   85  O   UNK N   1      23.085  21.014   3.036  0.00  0.00    -0.387 OA
BRANCH  85  86
HETATM   86  C   UNK N   1      22.000  20.530   2.304  0.00  0.00     0.193 C 
BRANCH  86  87
HETATM   87  C   UNK N   1      20.702  20.666   3.098  0.00  0.00     0.193 C 
BRANCH  87  88
HETATM   88  O   UNK N   1      19.811  19.637   2.770  0.00  0.00    -0.389 OA
BRANCH  88  89
HETATM   89  C   UNK N   1      20.453  18.886   1.779  0.00  0.00     0.169 C 
BRANCH  89  90
HETATM   90  C   UNK N   1      20.054  17.424   1.915  0.00  0.00     0.046 C 
BRANCH  90  91
HETATM   91  C   UNK N   1      19.573  17.131   3.333  0.00  0.00     0.122 C 
BRANCH  91  92
HETATM   92  N   UNK N   1      20.695  17.209   4.223  0.00  0.00    -0.385 N 
HETATM   93  H   UNK N   1      21.579  17.467   3.873  0.00  0.00     0.159 HD
BRANCH  92  94
HETATM   94  C   UNK N   1      20.547  16.920   5.597  0.00  0.00     0.114 A 
HETATM   95  C   UNK N   1      20.470  15.727   6.173  0.00  0.00     0.114 A 
HETATM   96  C   UNK N   1      20.661  16.289   7.516  0.00  0.00     0.252 A 
HETATM   97  C   UNK N   1      20.771  17.594   6.884  0.00  0.00     0.252 A 
HETATM   98  O   UNK N   1      20.866  15.842   8.633  0.00  0.00    -0.281 OA
HETATM   99  O   UNK N   1      21.133  18.705   7.239  0.00  0.00    -0.281 OA
BRANCH  95 100
HETATM  100  N   UNK N   1      20.493  14.459   5.555  0.00  0.00    -0.385 N 
HETATM  101  H   UNK N   1      21.351  13.983   5.467  0.00  0.00     0.159 HD
BRANCH 100 102
HETATM  102  C   UNK N   1      19.300  13.845   5.052  0.00  0.00     0.121 C 
BRANCH 102 103
HETATM  103  C   UNK N   1      19.594  12.400   4.710  0.00  0.00     0.050 C 
BRANCH 103 104
HETATM  104  C   UNK N   1      20.773  12.363   3.750  0.00  0.00     0.274 C 
BRANCH 104 105
HETATM  105  N   UNK N   1      20.470  11.664   2.496  0.00  0.00     0.091 N 
HETATM  106  C   UNK N   1      21.618  10.956   1.906  0.00  0.00     0.302 C 
HETATM  107  C   UNK N   1      22.476  11.785   0.931  0.00  0.00     0.302 C 
HETATM  108  N   UNK N   1      22.295  13.228   1.077  0.00  0.00     0.091 N 
HETATM  109  C   UNK N   1      20.880  13.609   0.978  0.00  0.00     0.302 C 
HETATM  110  C   UNK N   1      19.874  12.597   1.545  0.00  0.00     0.302 C 
BRANCH 108 111
HETATM  111  C   UNK N   1      22.897  13.701   2.323  0.00  0.00     0.274 C 
BRANCH 111 112
HETATM  112  C   UNK N   1      23.024  15.216   2.342  0.00  0.00     0.050 C 
BRANCH 112 113
HETATM  113  C   UNK N   1      23.667  15.695   3.632  0.00  0.00     0.123 C 
BRANCH 113 114
HETATM  114  N   UNK N   1      24.877  16.456   3.394  0.00  0.00    -0.370 N 
HETATM  115  C   UNK N   1      26.061  15.945   3.385  0.00  0.00     0.146 C 
ATOM    116  HN  UNK N   1      24.786  17.457   3.222  1.00  0.00     0.161 HD
BRANCH 115 117
HETATM  117  C   UNK N   1      26.304  14.520   3.654  0.00  0.00     0.019 A 
HETATM  118  C   UNK N   1      26.646  13.629   2.621  0.00  0.00     0.052 A 
HETATM  119  C   UNK N   1      26.775  12.253   2.873  0.00  0.00     0.106 A 
HETATM  120  C   UNK N   1      26.554  11.798   4.163  0.00  0.00     0.073 A 
HETATM  121  C   UNK N   1      26.145  12.668   5.173  0.00  0.00     0.075 A 
HETATM  122  C   UNK N   1      26.011  14.024   4.915  0.00  0.00     0.052 A 
BRANCH 119 123
HETATM  123  N   UNK N   1      26.971  11.309   1.821  0.00  0.00    -0.116 N 
HETATM  124  O   UNK N   1      26.263  10.349   1.741  0.00  0.00    -0.532 OA
HETATM  125  O   UNK N   1      27.731  11.546   0.934  0.00  0.00    -0.532 OA
ENDBRANCH 119 123
BRANCH 121 126
HETATM  126  O   UNK N   1      25.625  12.177   6.306  0.00  0.00    -0.318 OA
BRANCH 126 127
HETATM  127  C   UNK N   1      24.682  12.946   6.972  0.00  0.00     0.298 C 
HETATM  128  C   UNK N   1      23.262  12.273   6.998  0.00  0.00     0.205 C 
HETATM  129  C   UNK N   1      22.436  13.038   8.000  0.00  0.00     0.183 C 
HETATM  130  C   UNK N   1      23.075  12.911   9.397  0.00  0.00     0.180 C 
HETATM  131  C   UNK N   1      24.618  12.701   9.309  0.00  0.00     0.179 C 
HETATM  132  O   UNK N   1      25.192  13.391   8.226  0.00  0.00    -0.348 OA
BRANCH 128 133
HETATM  133  O   UNK N   1      23.337  10.920   7.350  0.00  0.00    -0.388 OA
HETATM  134  H   UNK N   1      23.272   9.963   7.205  0.00  0.00     0.210 HD
ENDBRANCH 128 133
BRANCH 129 135
HETATM  135  O   UNK N   1      21.104  12.613   8.000  0.00  0.00    -0.390 OA
HETATM  136  H   UNK N   1      20.744  12.110   8.747  0.00  0.00     0.210 HD
ENDBRANCH 129 135
BRANCH 130 137
HETATM  137  O   UNK N   1      22.536  11.823  10.091  0.00  0.00    -0.390 OA
HETATM  138  H   UNK N   1      21.618  11.554  10.250  0.00  0.00     0.210 HD
ENDBRANCH 130 137
BRANCH 131 139
HETATM  139  C   UNK N   1      25.298  13.129  10.601  0.00  0.00     0.198 C 
BRANCH 139 140
HETATM  140  O   UNK N   1      24.879  12.320  11.660  0.00  0.00    -0.398 OA
HETATM  141  H   UNK N   1      24.829  12.030  12.585  0.00  0.00     0.209 HD
ENDBRANCH 139 140
ENDBRANCH 131 139
ENDBRANCH 126 127
ENDBRANCH 121 126
ENDBRANCH 115 117
BRANCH 115 142
HETATM  142  O   UNK N   1      27.106  16.725   3.048  0.00  0.00    -0.346 OA
HETATM  143  H   UNK N   1      27.934  17.139   3.195  0.00  0.00     0.219 HD
ENDBRANCH 115 142
ENDBRANCH 113 114
ENDBRANCH 112 113
ENDBRANCH 111 112
ENDBRANCH 108 111
ENDBRANCH 104 105
ENDBRANCH 103 104
ENDBRANCH 102 103
ENDBRANCH 100 102
ENDBRANCH  95 100
ENDBRANCH  92  94
ENDBRANCH  91  92
ENDBRANCH  90  91
ENDBRANCH  89  90
ENDBRANCH  88  89
ENDBRANCH  87  88
ENDBRANCH  86  87
ENDBRANCH  85  86
ENDBRANCH  84  85
ENDBRANCH  83  84
ENDBRANCH  82  83
ENDBRANCH  81  82
ENDBRANCH  80  81
ENDBRANCH  79  80
ENDBRANCH  77  79
BRANCH  76 144
HETATM  144  O   UNK N   1      27.491  18.824   8.820  0.00  0.00    -0.327 OA
HETATM  145  H   UNK N   1      26.630  19.155   8.986  0.00  0.00     0.221 HD
ENDBRANCH  76 144
ENDBRANCH  75  76
ENDBRANCH  74  75
ENDBRANCH   1  74
BRANCH   1 146
HETATM  146  N   UNK N   1      29.760  17.555   4.280  0.00  0.00    -0.422 N 
HETATM  147  H   UNK N   1      29.537  18.550   4.264  0.00  0.00     0.150 HD
HETATM  148  H   UNK N   1      29.902  17.110   3.374  0.00  0.00     0.150 HD
ENDBRANCH   1 146
TORSDOF 77
ENDMDL
MODEL 2
REMARK VINA RESULT:      -6.3      3.468      9.313
REMARK WARNING: 32 MAX_TORS EXCEEDED!!!
REMARK  77 active torsions:
REMARK  status: ('A' for Active; 'I' for Inactive)
REMARK    1  A    between atoms: C_9  and  C_1 
REMARK    2  A    between atoms: C_17  and  C_1 
REMARK    3  A    between atoms: C_10  and  C_2 
REMARK    4  A    between atoms: C_18  and  C_2 
REMARK    5  A    between atoms: C_11  and  C_3 
REMARK    6  A    between atoms: C_19  and  C_3 
REMARK    7  A    between atoms: C_12  and  C_4 
REMARK    8  A    between atoms: C_20  and  C_4 
REMARK    9  A    between atoms: C_13  and  C_5 
REMARK   10  A    between atoms: C_29  and  C_5 
REMARK   11  A    between atoms: C_14  and  C_6 
REMARK   12  A    between atoms: C_30  and  C_6 
REMARK   13  A    between atoms: C_15  and  C_7 
REMARK   14  A    between atoms: C_31  and  C_7 
REMARK   15  A    between atoms: C_16  and  C_8 
REMARK   16  A    between atoms: C_32  and  C_8 
REMARK   17  A    between atoms: N_81  and  C_9 
REMARK   18  A    between atoms: N_82  and  C_10 
REMARK   19  A    between atoms: N_85  and  C_11 
REMARK   20  A    between atoms: N_87  and  C_12 
REMARK   21  A    between atoms: N_83  and  C_13 
REMARK   22  A    between atoms: N_84  and  C_14 
REMARK   23  A    between atoms: N_89  and  C_15 
REMARK   24  A    between atoms: N_91  and  C_16 
REMARK   25  A    between atoms: N_93  and  C_17 
REMARK   26  A    between atoms: N_94  and  C_18 
REMARK   27  A    between atoms: N_95  and  C_19 
REMARK   28  A    between atoms: N_96  and  C_20 
REMARK   29  A    between atoms: O_119  and  C_29 
REMARK   30  A    between atoms: O_120  and  C_30 
REMARK   31  A    between atoms: O_121  and  C_31 
REMARK   32  A    between atoms: O_122  and  C_32 
REMARK   33  A    between atoms: C_37  and  C_33 
REMARK   34  A    between atoms: O_119  and  C_33 
REMARK   35  A    between atoms: C_38  and  C_34 
REMARK   36  A    between atoms: O_120  and  C_34 
REMARK   37  A    between atoms: C_39  and  C_35 
REMARK   38  A    between atoms: O_121  and  C_35 
REMARK   39  A    between atoms: C_40  and  C_36 
REMARK   40  A    between atoms: O_122  and  C_36 
REMARK   41  A    between atoms: O_123  and  C_37 
REMARK   42  A    between atoms: O_124  and  C_38 
REMARK   43  A    between atoms: O_123  and  C_39 
REMARK   44  A    between atoms: O_124  and  C_40 
REMARK   45  A    between atoms: C_58  and  C_47 
REMARK   46  A    between atoms: O_99  and  C_47 
REMARK   47  A    between atoms: C_59  and  C_48 
REMARK   48  A    between atoms: O_100  and  C_48 
REMARK   49  A    between atoms: C_53  and  C_49 
REMARK   50  A    between atoms: O_125  and  C_49 
REMARK   51  A    between atoms: C_53  and  C_50 
REMARK   52  A    between atoms: O_126  and  C_50 
REMARK   53  A    between atoms: C_74  and  C_51 
REMARK   54  A    between atoms: C_75  and  C_52 
REMARK   55  A    between atoms: N_80  and  C_53 
REMARK   56  A    between atoms: N_97  and  C_54 
REMARK   57  A    between atoms: N_98  and  C_55 
REMARK   58  A    between atoms: O_127  and  C_56 
REMARK   59  A    between atoms: O_128  and  C_57 
REMARK   60  A    between atoms: N_81  and  C_60 
REMARK   61  A    between atoms: N_82  and  C_61 
REMARK   62  A    between atoms: N_83  and  C_62 
REMARK   63  A    between atoms: N_84  and  C_63 
REMARK   64  A    between atoms: C_64  and  O_101 
REMARK   65  A    between atoms: O_102  and  C_65 
REMARK   66  A    between atoms: C_70  and  O_107 
REMARK   67  A    between atoms: O_108  and  C_71 
REMARK   68  A    between atoms: C_72  and  O_109 
REMARK   69  A    between atoms: O_110  and  C_73 
REMARK   70  A    between atoms: O_111  and  C_74 
REMARK   71  A    between atoms: O_112  and  C_75 
REMARK   72  A    between atoms: C_76  and  O_127 
REMARK   73  A    between atoms: O_128  and  C_77 
REMARK   74  A    between atoms: O_113  and  C_78 
REMARK   75  A    between atoms: O_125  and  C_78 
REMARK   76  A    between atoms: O_114  and  C_79 
REMARK   77  A    between atoms: O_126  and  C_79 
ROOT
HETATM    1  C   UNK N   1      30.339  16.949   5.699  0.00  0.00     0.123 C 
ENDROOT
BRANCH   1   2
HETATM    2  C   UNK N   1      31.666  17.538   6.233  0.00  0.00     0.206 C 
BRANCH   2   3
HETATM    3  O   UNK N   1      32.272  16.794   7.235  0.00  0.00    -0.315 OA
BRANCH   3   4
HETATM    4  C   UNK N   1      32.292  17.003   8.587  0.00  0.00     0.258 C 
HETATM    5  N   UNK N   1      32.867  16.208   9.427  0.00  0.00    -0.350 N 
ATOM      6  HN  UNK N   1      32.757  16.423  10.418  1.00  0.00     0.163 HD
BRANCH   5   7
HETATM    7  C   UNK N   1      33.653  15.041   9.095  0.00  0.00     0.126 C 
BRANCH   7   8
HETATM    8  C   UNK N   1      32.760  13.814   8.909  0.00  0.00     0.046 C 
BRANCH   8   9
HETATM    9  C   UNK N   1      33.551  12.512   9.024  0.00  0.00     0.169 C 
BRANCH   9  10
HETATM   10  O   UNK N   1      32.695  11.410   9.063  0.00  0.00    -0.389 OA
BRANCH  10  11
HETATM   11  C   UNK N   1      33.434  10.329   8.572  0.00  0.00     0.193 C 
BRANCH  11  12
HETATM   12  C   UNK N   1      33.472  10.413   7.049  0.00  0.00     0.193 C 
BRANCH  12  13
HETATM   13  O   UNK N   1      32.175  10.392   6.531  0.00  0.00    -0.387 OA
BRANCH  13  14
HETATM   14  C   UNK N   1      32.287  10.877   5.226  0.00  0.00     0.193 C 
BRANCH  14  15
HETATM   15  C   UNK N   1      33.395  11.918   5.168  0.00  0.00     0.193 C 
BRANCH  15  16
HETATM   16  O   UNK N   1      32.908  13.093   4.579  0.00  0.00    -0.389 OA
BRANCH  16  17
HETATM   17  C   UNK N   1      33.399  14.157   5.344  0.00  0.00     0.169 C 
BRANCH  17  18
HETATM   18  C   UNK N   1      33.837  15.308   4.450  0.00  0.00     0.046 C 
BRANCH  18  19
HETATM   19  C   UNK N   1      33.200  15.100   3.092  0.00  0.00     0.122 C 
BRANCH  19  20
HETATM   20  N   UNK N   1      34.175  14.857   2.063  0.00  0.00    -0.385 N 
HETATM   21  H   UNK N   1      34.609  15.637   1.649  0.00  0.00     0.159 HD
BRANCH  20  22
HETATM   22  C   UNK N   1      34.555  13.566   1.601  0.00  0.00     0.114 A 
HETATM   23  C   UNK N   1      35.439  12.743   2.146  0.00  0.00     0.114 A 
HETATM   24  C   UNK N   1      35.511  11.896   0.961  0.00  0.00     0.252 A 
HETATM   25  C   UNK N   1      34.548  12.782   0.345  0.00  0.00     0.252 A 
HETATM   26  O   UNK N   1      36.339  11.105   0.540  0.00  0.00    -0.281 OA
HETATM   27  O   UNK N   1      34.331  13.043  -0.826  0.00  0.00    -0.281 OA
BRANCH  23  28
HETATM   28  N   UNK N   1      36.274  12.947   3.251  0.00  0.00    -0.385 N 
HETATM   29  H   UNK N   1      35.949  12.829   4.173  0.00  0.00     0.159 HD
BRANCH  28  30
HETATM   30  C   UNK N   1      37.620  13.332   2.977  0.00  0.00     0.121 C 
BRANCH  30  31
HETATM   31  C   UNK N   1      38.278  13.722   4.311  0.00  0.00     0.050 C 
BRANCH  31  32
HETATM   32  C   UNK N   1      37.283  14.113   5.401  0.00  0.00     0.274 C 
BRANCH  32  33
HETATM   33  N   UNK N   1      37.685  13.660   6.729  0.00  0.00     0.091 N 
HETATM   34  C   UNK N   1      39.154  13.755   6.791  0.00  0.00     0.302 C 
HETATM   35  C   UNK N   1      39.826  12.733   7.699  0.00  0.00     0.302 C 
HETATM   36  N   UNK N   1      38.919  12.207   8.704  0.00  0.00     0.091 N 
HETATM   37  C   UNK N   1      37.807  11.507   8.062  0.00  0.00     0.302 C 
HETATM   38  C   UNK N   1      37.056  12.358   7.036  0.00  0.00     0.302 C 
BRANCH  36  39
HETATM   39  C   UNK N   1      38.573  13.201   9.739  0.00  0.00     0.274 C 
BRANCH  39  40
HETATM   40  C   UNK N   1      37.608  12.699  10.816  0.00  0.00     0.050 C 
BRANCH  40  41
HETATM   41  C   UNK N   1      36.806  13.804  11.491  0.00  0.00     0.123 C 
BRANCH  41  42
HETATM   42  N   UNK N   1      36.755  13.735  12.944  0.00  0.00    -0.370 N 
HETATM   43  C   UNK N   1      35.666  13.452  13.571  0.00  0.00     0.146 C 
ATOM     44  HN  UNK N   1      37.603  13.916  13.479  1.00  0.00     0.161 HD
BRANCH  43  45
HETATM   45  C   UNK N   1      35.690  12.987  14.943  0.00  0.00     0.019 A 
HETATM   46  C   UNK N   1      35.622  13.756  16.110  0.00  0.00     0.052 A 
HETATM   47  C   UNK N   1      35.389  13.098  17.351  0.00  0.00     0.106 A 
HETATM   48  C   UNK N   1      35.192  11.685  17.368  0.00  0.00     0.073 A 
HETATM   49  C   UNK N   1      35.227  10.962  16.161  0.00  0.00     0.075 A 
HETATM   50  C   UNK N   1      35.484  11.650  15.015  0.00  0.00     0.052 A 
BRANCH  47  51
HETATM   51  N   UNK N   1      35.270  13.861  18.549  0.00  0.00    -0.116 N 
HETATM   52  O   UNK N   1      35.137  13.307  19.603  0.00  0.00    -0.532 OA
HETATM   53  O   UNK N   1      35.250  15.051  18.507  0.00  0.00    -0.532 OA
ENDBRANCH  47  51
BRANCH  49  54
HETATM   54  O   UNK N   1      34.939   9.627  16.074  0.00  0.00    -0.318 OA
BRANCH  54  55
HETATM   55  C   UNK N   1      35.859   8.609  15.717  0.00  0.00     0.298 C 
HETATM   56  C   UNK N   1      37.212   8.793  16.447  0.00  0.00     0.205 C 
HETATM   57  C   UNK N   1      38.242   7.765  15.914  0.00  0.00     0.183 C 
HETATM   58  C   UNK N   1      38.286   7.741  14.363  0.00  0.00     0.180 C 
HETATM   59  C   UNK N   1      37.296   8.753  13.781  0.00  0.00     0.179 C 
HETATM   60  O   UNK N   1      36.002   8.435  14.290  0.00  0.00    -0.348 OA
BRANCH  56  61
HETATM   61  O   UNK N   1      37.056   8.667  17.829  0.00  0.00    -0.388 OA
HETATM   62  H   UNK N   1      37.829   8.715  18.411  0.00  0.00     0.210 HD
ENDBRANCH  56  61
BRANCH  57  63
HETATM   63  O   UNK N   1      37.928   6.483  16.375  0.00  0.00    -0.390 OA
HETATM   64  H   UNK N   1      37.357   5.700  16.333  0.00  0.00     0.210 HD
ENDBRANCH  57  63
BRANCH  58  65
HETATM   65  O   UNK N   1      39.586   7.971  13.901  0.00  0.00    -0.390 OA
HETATM   66  H   UNK N   1      40.461   7.697  14.214  0.00  0.00     0.210 HD
ENDBRANCH  58  65
BRANCH  59  67
HETATM   67  C   UNK N   1      37.280   8.668  12.257  0.00  0.00     0.198 C 
BRANCH  67  68
HETATM   68  O   UNK N   1      38.375   9.337  11.703  0.00  0.00    -0.398 OA
HETATM   69  H   UNK N   1      38.590  10.160  11.237  0.00  0.00     0.209 HD
ENDBRANCH  67  68
ENDBRANCH  59  67
ENDBRANCH  54  55
ENDBRANCH  49  54
ENDBRANCH  43  45
BRANCH  43  70
HETATM   70  O   UNK N   1      34.520  13.242  12.894  0.00  0.00    -0.346 OA
HETATM   71  H   UNK N   1      33.763  12.702  12.780  0.00  0.00     0.219 HD
ENDBRANCH  43  70
ENDBRANCH  41  42
ENDBRANCH  40  41
ENDBRANCH  39  40
ENDBRANCH  36  39
ENDBRANCH  32  33
ENDBRANCH  31  32
ENDBRANCH  30  31
ENDBRANCH  28  30
ENDBRANCH  23  28
ENDBRANCH  20  22
ENDBRANCH  19  20
ENDBRANCH  18  19
ENDBRANCH  17  18
ENDBRANCH  16  17
ENDBRANCH  15  16
ENDBRANCH  14  15
ENDBRANCH  13  14
ENDBRANCH  12  13
ENDBRANCH  11  12
ENDBRANCH  10  11
ENDBRANCH   9  10
ENDBRANCH   8   9
ENDBRANCH   7   8
ENDBRANCH   5   7
BRANCH   4  72
HETATM   72  O   UNK N   1      31.689  18.106   9.067  0.00  0.00    -0.327 OA
HETATM   73  H   UNK N   1      32.026  18.654   9.748  0.00  0.00     0.221 HD
ENDBRANCH   4  72
ENDBRANCH   3   4
ENDBRANCH   2   3
ENDBRANCH   1   2
BRANCH   1  74
HETATM   74  C   UNK N   1      29.142  17.081   6.641  0.00  0.00     0.206 C 
BRANCH  74  75
HETATM   75  O   UNK N   1      29.259  18.164   7.478  0.00  0.00    -0.315 OA
BRANCH  75  76
HETATM   76  C   UNK N   1      28.219  19.019   7.584  0.00  0.00     0.258 C 
HETATM   77  N   UNK N   1      27.891  19.762   6.583  0.00  0.00    -0.350 N 
ATOM     78  HN  UNK N   1      28.464  19.743   5.740  1.00  0.00     0.163 HD
BRANCH  77  79
HETATM   79  C   UNK N   1      26.727  20.620   6.625  0.00  0.00     0.126 C 
BRANCH  79  80
HETATM   80  C   UNK N   1      26.439  21.186   5.238  0.00  0.00     0.046 C 
BRANCH  80  81
HETATM   81  C   UNK N   1      26.951  20.242   4.165  0.00  0.00     0.169 C 
BRANCH  81  82
HETATM   82  O   UNK N   1      25.873  19.561   3.590  0.00  0.00    -0.389 OA
BRANCH  82  83
HETATM   83  C   UNK N   1      25.073  20.546   2.998  0.00  0.00     0.193 C 
BRANCH  83  84
HETATM   84  C   UNK N   1      23.607  20.164   3.101  0.00  0.00     0.193 C 
BRANCH  84  85
HETATM   85  O   UNK N   1      22.826  21.319   3.027  0.00  0.00    -0.387 OA
BRANCH  85  86
HETATM   86  C   UNK N   1      21.668  20.958   2.336  0.00  0.00     0.193 C 
BRANCH  86  87
HETATM   87  C   UNK N   1      20.591  20.464   3.300  0.00  0.00     0.193 C 
BRANCH  87  88
HETATM   88  O   UNK N   1      19.843  19.432   2.720  0.00  0.00    -0.389 OA
BRANCH  88  89
HETATM   89  C   UNK N   1      20.378  19.256   1.439  0.00  0.00     0.169 C 
BRANCH  89  90
HETATM   90  C   UNK N   1      20.375  17.775   1.089  0.00  0.00     0.046 C 
BRANCH  90  91
HETATM   91  C   UNK N   1      20.143  16.931   2.338  0.00  0.00     0.122 C 
BRANCH  91  92
HETATM   92  N   UNK N   1      21.306  17.016   3.172  0.00  0.00    -0.385 N 
HETATM   93  H   UNK N   1      22.165  17.301   2.783  0.00  0.00     0.159 HD
BRANCH  92  94
HETATM   94  C   UNK N   1      21.236  16.694   4.545  0.00  0.00     0.114 A 
HETATM   95  C   UNK N   1      21.373  15.500   5.108  0.00  0.00     0.114 A 
HETATM   96  C   UNK N   1      21.491  16.074   6.454  0.00  0.00     0.252 A 
HETATM   97  C   UNK N   1      21.366  17.384   5.836  0.00  0.00     0.252 A 
HETATM   98  O   UNK N   1      21.790  15.658   7.562  0.00  0.00    -0.281 OA
HETATM   99  O   UNK N   1      21.541  18.537   6.198  0.00  0.00    -0.281 OA
BRANCH  95 100
HETATM  100  N   UNK N   1      21.599  14.259   4.474  0.00  0.00    -0.385 N 
HETATM  101  H   UNK N   1      22.462  13.803   4.606  0.00  0.00     0.159 HD
BRANCH 100 102
HETATM  102  C   UNK N   1      20.606  13.647   3.643  0.00  0.00     0.121 C 
BRANCH 102 103
HETATM  103  C   UNK N   1      21.180  13.439   2.258  0.00  0.00     0.050 C 
BRANCH 103 104
HETATM  104  C   UNK N   1      22.693  13.341   2.374  0.00  0.00     0.274 C 
BRANCH 104 105
HETATM  105  N   UNK N   1      23.311  12.638   1.245  0.00  0.00     0.091 N 
HETATM  106  C   UNK N   1      22.731  11.314   0.965  0.00  0.00     0.302 C 
HETATM  107  C   UNK N   1      23.382  10.136   1.715  0.00  0.00     0.302 C 
HETATM  108  N   UNK N   1      24.151  10.545   2.888  0.00  0.00     0.091 N 
HETATM  109  C   UNK N   1      25.154  11.564   2.550  0.00  0.00     0.302 C 
HETATM  110  C   UNK N   1      24.754  12.555   1.448  0.00  0.00     0.302 C 
BRANCH 108 111
HETATM  111  C   UNK N   1      23.261  10.995   3.959  0.00  0.00     0.274 C 
BRANCH 111 112
HETATM  112  C   UNK N   1      22.298   9.898   4.381  0.00  0.00     0.050 C 
BRANCH 112 113
HETATM  113  C   UNK N   1      21.991   9.982   5.867  0.00  0.00     0.123 C 
BRANCH 113 114
HETATM  114  N   UNK N   1      20.999  10.994   6.167  0.00  0.00    -0.370 N 
HETATM  115  C   UNK N   1      21.197  11.985   6.969  0.00  0.00     0.146 C 
ATOM    116  HN  UNK N   1      20.088  10.919   5.716  1.00  0.00     0.161 HD
BRANCH 115 117
HETATM  117  C   UNK N   1      22.463  12.168   7.694  0.00  0.00     0.019 A 
HETATM  118  C   UNK N   1      22.549  11.953   9.081  0.00  0.00     0.052 A 
HETATM  119  C   UNK N   1      23.737  12.229   9.778  0.00  0.00     0.106 A 
HETATM  120  C   UNK N   1      24.819  12.721   9.065  0.00  0.00     0.073 A 
HETATM  121  C   UNK N   1      24.713  13.003   7.703  0.00  0.00     0.075 A 
HETATM  122  C   UNK N   1      23.535  12.736   7.022  0.00  0.00     0.052 A 
BRANCH 119 123
HETATM  123  N   UNK N   1      23.808  12.166  11.202  0.00  0.00    -0.116 N 
HETATM  124  O   UNK N   1      22.810  12.014  11.843  0.00  0.00    -0.532 OA
HETATM  125  O   UNK N   1      24.866  12.109  11.750  0.00  0.00    -0.532 OA
ENDBRANCH 119 123
BRANCH 121 126
HETATM  126  O   UNK N   1      25.638  13.771   7.108  0.00  0.00    -0.318 OA
BRANCH 126 127
HETATM  127  C   UNK N   1      25.503  14.008   5.749  0.00  0.00     0.298 C 
HETATM  128  C   UNK N   1      24.980  15.457   5.437  0.00  0.00     0.205 C 
HETATM  129  C   UNK N   1      25.181  15.686   3.961  0.00  0.00     0.183 C 
HETATM  130  C   UNK N   1      26.686  15.614   3.630  0.00  0.00     0.180 C 
HETATM  131  C   UNK N   1      27.452  14.688   4.624  0.00  0.00     0.179 C 
HETATM  132  O   UNK N   1      26.673  13.596   5.048  0.00  0.00    -0.348 OA
BRANCH 128 133
HETATM  133  O   UNK N   1      25.664  16.426   6.184  0.00  0.00    -0.388 OA
HETATM  134  H   UNK N   1      25.979  16.860   6.992  0.00  0.00     0.210 HD
ENDBRANCH 128 133
BRANCH 129 135
HETATM  135  O   UNK N   1      24.618  16.895   3.546  0.00  0.00    -0.390 OA
HETATM  136  H   UNK N   1      23.923  17.325   4.070  0.00  0.00     0.210 HD
ENDBRANCH 129 135
BRANCH 130 137
HETATM  137  O   UNK N   1      27.268  16.884   3.697  0.00  0.00    -0.390 OA
HETATM  138  H   UNK N   1      27.977  17.294   3.178  0.00  0.00     0.210 HD
ENDBRANCH 130 137
BRANCH 131 139
HETATM  139  C   UNK N   1      28.744  14.179   4.003  0.00  0.00     0.198 C 
BRANCH 139 140
HETATM  140  O   UNK N   1      29.112  14.982   2.921  0.00  0.00    -0.398 OA
HETATM  141  H   UNK N   1      29.718  15.347   2.257  0.00  0.00     0.209 HD
ENDBRANCH 139 140
ENDBRANCH 131 139
ENDBRANCH 126 127
ENDBRANCH 121 126
ENDBRANCH 115 117
BRANCH 115 142
HETATM  142  O   UNK N   1      20.242  12.927   7.092  0.00  0.00    -0.346 OA
HETATM  143  H   UNK N   1      19.775  13.603   7.543  0.00  0.00     0.219 HD
ENDBRANCH 115 142
ENDBRANCH 113 114
ENDBRANCH 112 113
ENDBRANCH 111 112
ENDBRANCH 108 111
ENDBRANCH 104 105
ENDBRANCH 103 104
ENDBRANCH 102 103
ENDBRANCH 100 102
ENDBRANCH  95 100
ENDBRANCH  92  94
ENDBRANCH  91  92
ENDBRANCH  90  91
ENDBRANCH  89  90
ENDBRANCH  88  89
ENDBRANCH  87  88
ENDBRANCH  86  87
ENDBRANCH  85  86
ENDBRANCH  84  85
ENDBRANCH  83  84
ENDBRANCH  82  83
ENDBRANCH  81  82
ENDBRANCH  80  81
ENDBRANCH  79  80
ENDBRANCH  77  79
BRANCH  76 144
HETATM  144  O   UNK N   1      27.481  19.033   8.716  0.00  0.00    -0.327 OA
HETATM  145  H   UNK N   1      26.879  18.379   9.013  0.00  0.00     0.221 HD
ENDBRANCH  76 144
ENDBRANCH  75  76
ENDBRANCH  74  75
ENDBRANCH   1  74
BRANCH   1 146
HETATM  146  N   UNK N   1      30.013  17.644   4.468  0.00  0.00    -0.422 N 
HETATM  147  H   UNK N   1      30.140  17.305   3.515  0.00  0.00     0.150 HD
HETATM  148  H   UNK N   1      29.611  18.575   4.566  0.00  0.00     0.150 HD
ENDBRANCH   1 146
TORSDOF 77
ENDMDL
MODEL 3
REMARK VINA RESULT:      -6.2      4.241      9.290
REMARK WARNING: 32 MAX_TORS EXCEEDED!!!
REMARK  77 active torsions:
REMARK  status: ('A' for Active; 'I' for Inactive)
REMARK    1  A    between atoms: C_9  and  C_1 
REMARK    2  A    between atoms: C_17  and  C_1 
REMARK    3  A    between atoms: C_10  and  C_2 
REMARK    4  A    between atoms: C_18  and  C_2 
REMARK    5  A    between atoms: C_11  and  C_3 
REMARK    6  A    between atoms: C_19  and  C_3 
REMARK    7  A    between atoms: C_12  and  C_4 
REMARK    8  A    between atoms: C_20  and  C_4 
REMARK    9  A    between atoms: C_13  and  C_5 
REMARK   10  A    between atoms: C_29  and  C_5 
REMARK   11  A    between atoms: C_14  and  C_6 
REMARK   12  A    between atoms: C_30  and  C_6 
REMARK   13  A    between atoms: C_15  and  C_7 
REMARK   14  A    between atoms: C_31  and  C_7 
REMARK   15  A    between atoms: C_16  and  C_8 
REMARK   16  A    between atoms: C_32  and  C_8 
REMARK   17  A    between atoms: N_81  and  C_9 
REMARK   18  A    between atoms: N_82  and  C_10 
REMARK   19  A    between atoms: N_85  and  C_11 
REMARK   20  A    between atoms: N_87  and  C_12 
REMARK   21  A    between atoms: N_83  and  C_13 
REMARK   22  A    between atoms: N_84  and  C_14 
REMARK   23  A    between atoms: N_89  and  C_15 
REMARK   24  A    between atoms: N_91  and  C_16 
REMARK   25  A    between atoms: N_93  and  C_17 
REMARK   26  A    between atoms: N_94  and  C_18 
REMARK   27  A    between atoms: N_95  and  C_19 
REMARK   28  A    between atoms: N_96  and  C_20 
REMARK   29  A    between atoms: O_119  and  C_29 
REMARK   30  A    between atoms: O_120  and  C_30 
REMARK   31  A    between atoms: O_121  and  C_31 
REMARK   32  A    between atoms: O_122  and  C_32 
REMARK   33  A    between atoms: C_37  and  C_33 
REMARK   34  A    between atoms: O_119  and  C_33 
REMARK   35  A    between atoms: C_38  and  C_34 
REMARK   36  A    between atoms: O_120  and  C_34 
REMARK   37  A    between atoms: C_39  and  C_35 
REMARK   38  A    between atoms: O_121  and  C_35 
REMARK   39  A    between atoms: C_40  and  C_36 
REMARK   40  A    between atoms: O_122  and  C_36 
REMARK   41  A    between atoms: O_123  and  C_37 
REMARK   42  A    between atoms: O_124  and  C_38 
REMARK   43  A    between atoms: O_123  and  C_39 
REMARK   44  A    between atoms: O_124  and  C_40 
REMARK   45  A    between atoms: C_58  and  C_47 
REMARK   46  A    between atoms: O_99  and  C_47 
REMARK   47  A    between atoms: C_59  and  C_48 
REMARK   48  A    between atoms: O_100  and  C_48 
REMARK   49  A    between atoms: C_53  and  C_49 
REMARK   50  A    between atoms: O_125  and  C_49 
REMARK   51  A    between atoms: C_53  and  C_50 
REMARK   52  A    between atoms: O_126  and  C_50 
REMARK   53  A    between atoms: C_74  and  C_51 
REMARK   54  A    between atoms: C_75  and  C_52 
REMARK   55  A    between atoms: N_80  and  C_53 
REMARK   56  A    between atoms: N_97  and  C_54 
REMARK   57  A    between atoms: N_98  and  C_55 
REMARK   58  A    between atoms: O_127  and  C_56 
REMARK   59  A    between atoms: O_128  and  C_57 
REMARK   60  A    between atoms: N_81  and  C_60 
REMARK   61  A    between atoms: N_82  and  C_61 
REMARK   62  A    between atoms: N_83  and  C_62 
REMARK   63  A    between atoms: N_84  and  C_63 
REMARK   64  A    between atoms: C_64  and  O_101 
REMARK   65  A    between atoms: O_102  and  C_65 
REMARK   66  A    between atoms: C_70  and  O_107 
REMARK   67  A    between atoms: O_108  and  C_71 
REMARK   68  A    between atoms: C_72  and  O_109 
REMARK   69  A    between atoms: O_110  and  C_73 
REMARK   70  A    between atoms: O_111  and  C_74 
REMARK   71  A    between atoms: O_112  and  C_75 
REMARK   72  A    between atoms: C_76  and  O_127 
REMARK   73  A    between atoms: O_128  and  C_77 
REMARK   74  A    between atoms: O_113  and  C_78 
REMARK   75  A    between atoms: O_125  and  C_78 
REMARK   76  A    between atoms: O_114  and  C_79 
REMARK   77  A    between atoms: O_126  and  C_79 
ROOT
HETATM    1  C   UNK N   1      35.877  13.507  12.487  0.00  0.00     0.123 C 
ENDROOT
BRANCH   1   2
HETATM    2  C   UNK N   1      35.833  14.042  13.938  0.00  0.00     0.206 C 
BRANCH   2   3
HETATM    3  O   UNK N   1      34.930  13.398  14.770  0.00  0.00    -0.315 OA
BRANCH   3   4
HETATM    4  C   UNK N   1      35.128  12.359  15.637  0.00  0.00     0.258 C 
HETATM    5  N   UNK N   1      34.491  11.237  15.572  0.00  0.00    -0.350 N 
ATOM      6  HN  UNK N   1      34.667  10.561  16.314  1.00  0.00     0.163 HD
BRANCH   5   7
HETATM    7  C   UNK N   1      33.551  10.851  14.544  0.00  0.00     0.126 C 
BRANCH   7   8
HETATM    8  C   UNK N   1      34.278  10.364  13.291  0.00  0.00     0.046 C 
BRANCH   8   9
HETATM    9  C   UNK N   1      35.462   9.462  13.634  0.00  0.00     0.169 C 
BRANCH   9  10
HETATM   10  O   UNK N   1      36.652  10.190  13.664  0.00  0.00    -0.389 OA
BRANCH  10  11
HETATM   11  C   UNK N   1      37.581   9.443  12.932  0.00  0.00     0.193 C 
BRANCH  11  12
HETATM   12  C   UNK N   1      37.444   9.803  11.456  0.00  0.00     0.193 C 
BRANCH  12  13
HETATM   13  O   UNK N   1      38.251  10.902  11.149  0.00  0.00    -0.387 OA
BRANCH  13  14
HETATM   14  C   UNK N   1      38.187  11.036   9.760  0.00  0.00     0.193 C 
BRANCH  14  15
HETATM   15  C   UNK N   1      39.269  10.179   9.120  0.00  0.00     0.193 C 
BRANCH  15  16
HETATM   16  O   UNK N   1      39.128  10.208   7.725  0.00  0.00    -0.389 OA
BRANCH  16  17
HETATM   17  C   UNK N   1      37.853   9.708   7.442  0.00  0.00     0.169 C 
BRANCH  17  18
HETATM   18  C   UNK N   1      37.275  10.371   6.200  0.00  0.00     0.046 C 
BRANCH  18  19
HETATM   19  C   UNK N   1      37.060   9.290   5.163  0.00  0.00     0.122 C 
BRANCH  19  20
HETATM   20  N   UNK N   1      35.726   8.752   5.202  0.00  0.00    -0.385 N 
HETATM   21  H   UNK N   1      35.623   7.777   5.123  0.00  0.00     0.159 HD
BRANCH  20  22
HETATM   22  C   UNK N   1      34.546   9.533   5.346  0.00  0.00     0.114 A 
HETATM   23  C   UNK N   1      33.677   9.503   6.345  0.00  0.00     0.114 A 
HETATM   24  C   UNK N   1      32.666  10.249   5.604  0.00  0.00     0.252 A 
HETATM   25  C   UNK N   1      33.598  10.292   4.498  0.00  0.00     0.252 A 
HETATM   26  O   UNK N   1      31.455  10.359   5.708  0.00  0.00    -0.281 OA
HETATM   27  O   UNK N   1      33.415  10.393   3.297  0.00  0.00    -0.281 OA
BRANCH  23  28
HETATM   28  N   UNK N   1      33.643   8.662   7.464  0.00  0.00    -0.385 N 
HETATM   29  H   UNK N   1      33.839   7.700   7.393  0.00  0.00     0.159 HD
BRANCH  28  30
HETATM   30  C   UNK N   1      33.312   9.266   8.713  0.00  0.00     0.121 C 
BRANCH  30  31
HETATM   31  C   UNK N   1      34.590   9.907   9.278  0.00  0.00     0.050 C 
BRANCH  31  32
HETATM   32  C   UNK N   1      34.463  11.406   9.546  0.00  0.00     0.274 C 
BRANCH  32  33
HETATM   33  N   UNK N   1      34.443  12.203   8.324  0.00  0.00     0.091 N 
HETATM   34  C   UNK N   1      35.713  12.947   8.272  0.00  0.00     0.302 C 
HETATM   35  C   UNK N   1      35.639  14.295   7.565  0.00  0.00     0.302 C 
HETATM   36  N   UNK N   1      34.514  14.377   6.650  0.00  0.00     0.091 N 
HETATM   37  C   UNK N   1      33.256  14.236   7.384  0.00  0.00     0.302 C 
HETATM   38  C   UNK N   1      33.180  12.968   8.234  0.00  0.00     0.302 C 
BRANCH  36  39
HETATM   39  C   UNK N   1      34.687  13.530   5.454  0.00  0.00     0.274 C 
BRANCH  39  40
HETATM   40  C   UNK N   1      36.009  13.732   4.708  0.00  0.00     0.050 C 
BRANCH  40  41
HETATM   41  C   UNK N   1      36.174  12.835   3.489  0.00  0.00     0.123 C 
BRANCH  41  42
HETATM   42  N   UNK N   1      35.506  13.300   2.281  0.00  0.00    -0.370 N 
HETATM   43  C   UNK N   1      36.168  13.711   1.256  0.00  0.00     0.146 C 
ATOM     44  HN  UNK N   1      34.488  13.300   2.246  1.00  0.00     0.161 HD
BRANCH  43  45
HETATM   45  C   UNK N   1      35.555  13.780  -0.055  0.00  0.00     0.019 A 
HETATM   46  C   UNK N   1      35.872  14.651  -1.103  0.00  0.00     0.052 A 
HETATM   47  C   UNK N   1      35.342  14.384  -2.398  0.00  0.00     0.106 A 
HETATM   48  C   UNK N   1      34.539  13.222  -2.600  0.00  0.00     0.073 A 
HETATM   49  C   UNK N   1      34.285  12.354  -1.522  0.00  0.00     0.075 A 
HETATM   50  C   UNK N   1      34.798  12.685  -0.306  0.00  0.00     0.052 A 
BRANCH  47  51
HETATM   51  N   UNK N   1      35.684  15.229  -3.494  0.00  0.00    -0.116 N 
HETATM   52  O   UNK N   1      36.516  16.081  -3.358  0.00  0.00    -0.532 OA
HETATM   53  O   UNK N   1      35.112  15.132  -4.534  0.00  0.00    -0.532 OA
ENDBRANCH  47  51
BRANCH  49  54
HETATM   54  O   UNK N   1      33.622  11.165  -1.652  0.00  0.00    -0.318 OA
BRANCH  54  55
HETATM   55  C   UNK N   1      32.221  10.987  -1.530  0.00  0.00     0.298 C 
HETATM   56  C   UNK N   1      31.878   9.986  -0.400  0.00  0.00     0.205 C 
HETATM   57  C   UNK N   1      30.356   9.691  -0.400  0.00  0.00     0.183 C 
HETATM   58  C   UNK N   1      29.835   9.343  -1.820  0.00  0.00     0.180 C 
HETATM   59  C   UNK N   1      30.979   9.381  -2.837  0.00  0.00     0.179 C 
HETATM   60  O   UNK N   1      31.566  10.678  -2.781  0.00  0.00    -0.348 OA
BRANCH  56  61
HETATM   61  O   UNK N   1      32.288  10.475   0.842  0.00  0.00    -0.388 OA
HETATM   62  H   UNK N   1      33.126  10.179   1.228  0.00  0.00     0.210 HD
ENDBRANCH  56  61
BRANCH  57  63
HETATM   63  O   UNK N   1      29.650  10.798   0.079  0.00  0.00    -0.390 OA
HETATM   64  H   UNK N   1      29.186  11.631  -0.100  0.00  0.00     0.210 HD
ENDBRANCH  57  63
BRANCH  58  65
HETATM   65  O   UNK N   1      29.190   8.102  -1.820  0.00  0.00    -0.390 OA
HETATM   66  H   UNK N   1      28.357   7.786  -1.435  0.00  0.00     0.210 HD
ENDBRANCH  58  65
BRANCH  59  67
HETATM   67  C   UNK N   1      30.450   9.120  -4.245  0.00  0.00     0.198 C 
BRANCH  67  68
HETATM   68  O   UNK N   1      29.248   9.799  -4.466  0.00  0.00    -0.398 OA
HETATM   69  H   UNK N   1      28.333   9.821  -4.145  0.00  0.00     0.209 HD
ENDBRANCH  67  68
ENDBRANCH  59  67
ENDBRANCH  54  55
ENDBRANCH  49  54
ENDBRANCH  43  45
BRANCH  43  70
HETATM   70  O   UNK N   1      37.516  13.756   1.283  0.00  0.00    -0.346 OA
HETATM   71  H   UNK N   1      38.280  14.198   1.596  0.00  0.00     0.219 HD
ENDBRANCH  43  70
ENDBRANCH  41  42
ENDBRANCH  40  41
ENDBRANCH  39  40
ENDBRANCH  36  39
ENDBRANCH  32  33
ENDBRANCH  31  32
ENDBRANCH  30  31
ENDBRANCH  28  30
ENDBRANCH  23  28
ENDBRANCH  20  22
ENDBRANCH  19  20
ENDBRANCH  18  19
ENDBRANCH  17  18
ENDBRANCH  16  17
ENDBRANCH  15  16
ENDBRANCH  14  15
ENDBRANCH  13  14
ENDBRANCH  12  13
ENDBRANCH  11  12
ENDBRANCH  10  11
ENDBRANCH   9  10
ENDBRANCH   8   9
ENDBRANCH   7   8
ENDBRANCH   5   7
BRANCH   4  72
HETATM   72  O   UNK N   1      36.050  12.510  16.607  0.00  0.00    -0.327 OA
HETATM   73  H   UNK N   1      36.953  12.714  16.467  0.00  0.00     0.221 HD
ENDBRANCH   4  72
ENDBRANCH   3   4
ENDBRANCH   2   3
ENDBRANCH   1   2
BRANCH   1  74
HETATM   74  C   UNK N   1      34.831  14.099  11.542  0.00  0.00     0.206 C 
BRANCH  74  75
HETATM   75  O   UNK N   1      34.711  15.460  11.691  0.00  0.00    -0.315 OA
BRANCH  75  76
HETATM   76  C   UNK N   1      35.124  16.263  10.687  0.00  0.00     0.258 C 
HETATM   77  N   UNK N   1      34.260  16.791   9.889  0.00  0.00    -0.350 N 
ATOM     78  HN  UNK N   1      33.276  16.543   9.985  1.00  0.00     0.163 HD
BRANCH  77  79
HETATM   79  C   UNK N   1      34.653  17.730   8.860  0.00  0.00     0.126 C 
BRANCH  79  80
HETATM   80  C   UNK N   1      33.456  18.082   7.982  0.00  0.00     0.046 C 
BRANCH  80  81
HETATM   81  C   UNK N   1      32.182  17.502   8.569  0.00  0.00     0.169 C 
BRANCH  81  82
HETATM   82  O   UNK N   1      31.187  17.473   7.586  0.00  0.00    -0.389 OA
BRANCH  82  83
HETATM   83  C   UNK N   1      29.971  17.556   8.274  0.00  0.00     0.193 C 
BRANCH  83  84
HETATM   84  C   UNK N   1      28.836  17.839   7.304  0.00  0.00     0.193 C 
BRANCH  84  85
HETATM   85  O   UNK N   1      29.311  17.720   5.996  0.00  0.00    -0.387 OA
BRANCH  85  86
HETATM   86  C   UNK N   1      28.545  18.597   5.227  0.00  0.00     0.193 C 
BRANCH  86  87
HETATM   87  C   UNK N   1      27.517  19.324   6.091  0.00  0.00     0.193 C 
BRANCH  87  88
HETATM   88  O   UNK N   1      26.456  19.794   5.309  0.00  0.00    -0.389 OA
BRANCH  88  89
HETATM   89  C   UNK N   1      26.952  19.854   4.002  0.00  0.00     0.169 C 
BRANCH  89  90
HETATM   90  C   UNK N   1      25.967  20.608   3.121  0.00  0.00     0.046 C 
BRANCH  90  91
HETATM   91  C   UNK N   1      24.803  19.705   2.726  0.00  0.00     0.122 C 
BRANCH  91  92
HETATM   92  N   UNK N   1      23.656  20.068   3.506  0.00  0.00    -0.385 N 
HETATM   93  H   UNK N   1      23.775  20.562   4.350  0.00  0.00     0.159 HD
BRANCH  92  94
HETATM   94  C   UNK N   1      22.354  19.725   3.079  0.00  0.00     0.114 A 
HETATM   95  C   UNK N   1      21.417  19.083   3.764  0.00  0.00     0.114 A 
HETATM   96  C   UNK N   1      20.374  19.427   2.789  0.00  0.00     0.252 A 
HETATM   97  C   UNK N   1      21.395  20.152   2.051  0.00  0.00     0.252 A 
HETATM   98  O   UNK N   1      19.157  19.341   2.739  0.00  0.00    -0.281 OA
HETATM   99  O   UNK N   1      21.398  20.956   1.131  0.00  0.00    -0.281 OA
BRANCH  95 100
HETATM  100  N   UNK N   1      21.496  18.566   5.075  0.00  0.00    -0.385 N 
HETATM  101  H   UNK N   1      21.925  19.106   5.779  0.00  0.00     0.159 HD
BRANCH 100 102
HETATM  102  C   UNK N   1      20.969  17.277   5.409  0.00  0.00     0.121 C 
BRANCH 102 103
HETATM  103  C   UNK N   1      21.046  17.085   6.909  0.00  0.00     0.050 C 
BRANCH 103 104
HETATM  104  C   UNK N   1      21.685  15.734   7.188  0.00  0.00     0.274 C 
BRANCH 104 105
HETATM  105  N   UNK N   1      20.762  14.780   7.814  0.00  0.00     0.091 N 
HETATM  106  C   UNK N   1      21.079  14.461   9.215  0.00  0.00     0.302 C 
HETATM  107  C   UNK N   1      22.034  13.269   9.422  0.00  0.00     0.302 C 
HETATM  108  N   UNK N   1      22.809  12.930   8.230  0.00  0.00     0.091 N 
HETATM  109  C   UNK N   1      21.942  12.706   7.066  0.00  0.00     0.302 C 
HETATM  110  C   UNK N   1      20.676  13.573   6.998  0.00  0.00     0.302 C 
BRANCH 108 111
HETATM  111  C   UNK N   1      23.821  13.952   7.963  0.00  0.00     0.274 C 
BRANCH 111 112
HETATM  112  C   UNK N   1      24.651  13.607   6.737  0.00  0.00     0.050 C 
BRANCH 112 113
HETATM  113  C   UNK N   1      25.707  14.668   6.475  0.00  0.00     0.123 C 
BRANCH 113 114
HETATM  114  N   UNK N   1      25.153  16.007   6.475  0.00  0.00    -0.370 N 
HETATM  115  C   UNK N   1      24.911  16.688   5.406  0.00  0.00     0.146 C 
ATOM    116  HN  UNK N   1      24.942  16.437   7.374  1.00  0.00     0.161 HD
BRANCH 115 117
HETATM  117  C   UNK N   1      25.210  16.172   4.061  0.00  0.00     0.019 A 
HETATM  118  C   UNK N   1      24.218  15.556   3.278  0.00  0.00     0.052 A 
HETATM  119  C   UNK N   1      24.540  14.977   2.039  0.00  0.00     0.106 A 
HETATM  120  C   UNK N   1      25.857  15.027   1.611  0.00  0.00     0.073 A 
HETATM  121  C   UNK N   1      26.854  15.574   2.419  0.00  0.00     0.075 A 
HETATM  122  C   UNK N   1      26.532  16.136   3.645  0.00  0.00     0.052 A 
BRANCH 119 123
HETATM  123  N   UNK N   1      23.591  14.214   1.295  0.00  0.00    -0.116 N 
HETATM  124  O   UNK N   1      23.648  13.020   1.301  0.00  0.00    -0.532 OA
HETATM  125  O   UNK N   1      22.650  14.748   0.792  0.00  0.00    -0.532 OA
ENDBRANCH 119 123
BRANCH 121 126
HETATM  126  O   UNK N   1      28.143  15.324   2.147  0.00  0.00    -0.318 OA
BRANCH 126 127
HETATM  127  C   UNK N   1      28.846  14.522   3.032  0.00  0.00     0.298 C 
HETATM  128  C   UNK N   1      29.249  13.138   2.406  0.00  0.00     0.205 C 
HETATM  129  C   UNK N   1      30.257  12.514   3.337  0.00  0.00     0.183 C 
HETATM  130  C   UNK N   1      31.509  13.412   3.415  0.00  0.00     0.180 C 
HETATM  131  C   UNK N   1      31.161  14.910   3.157  0.00  0.00     0.179 C 
HETATM  132  O   UNK N   1      29.894  15.260   3.656  0.00  0.00    -0.348 OA
BRANCH 128 133
HETATM  133  O   UNK N   1      29.789  13.288   1.123  0.00  0.00    -0.388 OA
HETATM  134  H   UNK N   1      30.151  13.776   0.367  0.00  0.00     0.210 HD
ENDBRANCH 128 133
BRANCH 129 135
HETATM  135  O   UNK N   1      30.578  11.211   2.949  0.00  0.00    -0.390 OA
HETATM  136  H   UNK N   1      31.022  11.040   2.104  0.00  0.00     0.210 HD
ENDBRANCH 129 135
BRANCH 130 137
HETATM  137  O   UNK N   1      32.455  13.023   2.462  0.00  0.00    -0.390 OA
HETATM  138  H   UNK N   1      33.295  13.424   2.190  0.00  0.00     0.210 HD
ENDBRANCH 130 137
BRANCH 131 139
HETATM  139  C   UNK N   1      32.216  15.822   3.765  0.00  0.00     0.198 C 
BRANCH 139 140
HETATM  140  O   UNK N   1      31.756  16.358   4.971  0.00  0.00    -0.398 OA
HETATM  141  H   UNK N   1      31.558  17.065   5.606  0.00  0.00     0.209 HD
ENDBRANCH 139 140
ENDBRANCH 131 139
ENDBRANCH 126 127
ENDBRANCH 121 126
ENDBRANCH 115 117
BRANCH 115 142
HETATM  142  O   UNK N   1      24.297  17.881   5.518  0.00  0.00    -0.346 OA
HETATM  143  H   UNK N   1      23.708  18.495   5.912  0.00  0.00     0.219 HD
ENDBRANCH 115 142
ENDBRANCH 113 114
ENDBRANCH 112 113
ENDBRANCH 111 112
ENDBRANCH 108 111
ENDBRANCH 104 105
ENDBRANCH 103 104
ENDBRANCH 102 103
ENDBRANCH 100 102
ENDBRANCH  95 100
ENDBRANCH  92  94
ENDBRANCH  91  92
ENDBRANCH  90  91
ENDBRANCH  89  90
ENDBRANCH  88  89
ENDBRANCH  87  88
ENDBRANCH  86  87
ENDBRANCH  85  86
ENDBRANCH  84  85
ENDBRANCH  83  84
ENDBRANCH  82  83
ENDBRANCH  81  82
ENDBRANCH  80  81
ENDBRANCH  79  80
ENDBRANCH  77  79
BRANCH  76 144
HETATM  144  O   UNK N   1      36.435  16.568  10.573  0.00  0.00    -0.327 OA
HETATM  145  H   UNK N   1      36.966  17.038  11.185  0.00  0.00     0.221 HD
ENDBRANCH  76 144
ENDBRANCH  75  76
ENDBRANCH  74  75
ENDBRANCH   1  74
BRANCH   1 146
HETATM  146  N   UNK N   1      37.187  13.810  11.944  0.00  0.00    -0.422 N 
HETATM  147  H   UNK N   1      37.518  13.641  10.995  0.00  0.00     0.150 HD
HETATM  148  H   UNK N   1      37.853  14.242  12.585  0.00  0.00     0.150 HD
ENDBRANCH   1 146
TORSDOF 77
ENDMDL
MODEL 4
REMARK VINA RESULT:      -6.1      3.486     12.567
REMARK WARNING: 32 MAX_TORS EXCEEDED!!!
REMARK  77 active torsions:
REMARK  status: ('A' for Active; 'I' for Inactive)
REMARK    1  A    between atoms: C_9  and  C_1 
REMARK    2  A    between atoms: C_17  and  C_1 
REMARK    3  A    between atoms: C_10  and  C_2 
REMARK    4  A    between atoms: C_18  and  C_2 
REMARK    5  A    between atoms: C_11  and  C_3 
REMARK    6  A    between atoms: C_19  and  C_3 
REMARK    7  A    between atoms: C_12  and  C_4 
REMARK    8  A    between atoms: C_20  and  C_4 
REMARK    9  A    between atoms: C_13  and  C_5 
REMARK   10  A    between atoms: C_29  and  C_5 
REMARK   11  A    between atoms: C_14  and  C_6 
REMARK   12  A    between atoms: C_30  and  C_6 
REMARK   13  A    between atoms: C_15  and  C_7 
REMARK   14  A    between atoms: C_31  and  C_7 
REMARK   15  A    between atoms: C_16  and  C_8 
REMARK   16  A    between atoms: C_32  and  C_8 
REMARK   17  A    between atoms: N_81  and  C_9 
REMARK   18  A    between atoms: N_82  and  C_10 
REMARK   19  A    between atoms: N_85  and  C_11 
REMARK   20  A    between atoms: N_87  and  C_12 
REMARK   21  A    between atoms: N_83  and  C_13 
REMARK   22  A    between atoms: N_84  and  C_14 
REMARK   23  A    between atoms: N_89  and  C_15 
REMARK   24  A    between atoms: N_91  and  C_16 
REMARK   25  A    between atoms: N_93  and  C_17 
REMARK   26  A    between atoms: N_94  and  C_18 
REMARK   27  A    between atoms: N_95  and  C_19 
REMARK   28  A    between atoms: N_96  and  C_20 
REMARK   29  A    between atoms: O_119  and  C_29 
REMARK   30  A    between atoms: O_120  and  C_30 
REMARK   31  A    between atoms: O_121  and  C_31 
REMARK   32  A    between atoms: O_122  and  C_32 
REMARK   33  A    between atoms: C_37  and  C_33 
REMARK   34  A    between atoms: O_119  and  C_33 
REMARK   35  A    between atoms: C_38  and  C_34 
REMARK   36  A    between atoms: O_120  and  C_34 
REMARK   37  A    between atoms: C_39  and  C_35 
REMARK   38  A    between atoms: O_121  and  C_35 
REMARK   39  A    between atoms: C_40  and  C_36 
REMARK   40  A    between atoms: O_122  and  C_36 
REMARK   41  A    between atoms: O_123  and  C_37 
REMARK   42  A    between atoms: O_124  and  C_38 
REMARK   43  A    between atoms: O_123  and  C_39 
REMARK   44  A    between atoms: O_124  and  C_40 
REMARK   45  A    between atoms: C_58  and  C_47 
REMARK   46  A    between atoms: O_99  and  C_47 
REMARK   47  A    between atoms: C_59  and  C_48 
REMARK   48  A    between atoms: O_100  and  C_48 
REMARK   49  A    between atoms: C_53  and  C_49 
REMARK   50  A    between atoms: O_125  and  C_49 
REMARK   51  A    between atoms: C_53  and  C_50 
REMARK   52  A    between atoms: O_126  and  C_50 
REMARK   53  A    between atoms: C_74  and  C_51 
REMARK   54  A    between atoms: C_75  and  C_52 
REMARK   55  A    between atoms: N_80  and  C_53 
REMARK   56  A    between atoms: N_97  and  C_54 
REMARK   57  A    between atoms: N_98  and  C_55 
REMARK   58  A    between atoms: O_127  and  C_56 
REMARK   59  A    between atoms: O_128  and  C_57 
REMARK   60  A    between atoms: N_81  and  C_60 
REMARK   61  A    between atoms: N_82  and  C_61 
REMARK   62  A    between atoms: N_83  and  C_62 
REMARK   63  A    between atoms: N_84  and  C_63 
REMARK   64  A    between atoms: C_64  and  O_101 
REMARK   65  A    between atoms: O_102  and  C_65 
REMARK   66  A    between atoms: C_70  and  O_107 
REMARK   67  A    between atoms: O_108  and  C_71 
REMARK   68  A    between atoms: C_72  and  O_109 
REMARK   69  A    between atoms: O_110  and  C_73 
REMARK   70  A    between atoms: O_111  and  C_74 
REMARK   71  A    between atoms: O_112  and  C_75 
REMARK   72  A    between atoms: C_76  and  O_127 
REMARK   73  A    between atoms: O_128  and  C_77 
REMARK   74  A    between atoms: O_113  and  C_78 
REMARK   75  A    between atoms: O_125  and  C_78 
REMARK   76  A    between atoms: O_114  and  C_79 
REMARK   77  A    between atoms: O_126  and  C_79 
ROOT
HETATM    1  C   UNK N   1      24.969  19.954   3.755  0.00  0.00     0.123 C 
ENDROOT
BRANCH   1   2
HETATM    2  C   UNK N   1      23.568  19.353   4.019  0.00  0.00     0.206 C 
BRANCH   2   3
HETATM    3  O   UNK N   1      22.668  19.490   2.972  0.00  0.00    -0.315 OA
BRANCH   3   4
HETATM    4  C   UNK N   1      21.639  20.376   2.814  0.00  0.00     0.258 C 
HETATM    5  N   UNK N   1      20.394  20.032   2.778  0.00  0.00    -0.350 N 
ATOM      6  HN  UNK N   1      19.716  20.768   2.584  1.00  0.00     0.163 HD
BRANCH   5   7
HETATM    7  C   UNK N   1      19.873  18.701   2.988  0.00  0.00     0.126 C 
BRANCH   7   8
HETATM    8  C   UNK N   1      19.968  17.867   1.710  0.00  0.00     0.046 C 
BRANCH   8   9
HETATM    9  C   UNK N   1      20.946  16.703   1.861  0.00  0.00     0.169 C 
BRANCH   9  10
HETATM   10  O   UNK N   1      20.893  15.859   0.750  0.00  0.00    -0.389 OA
BRANCH  10  11
HETATM   11  C   UNK N   1      21.749  14.790   1.035  0.00  0.00     0.193 C 
BRANCH  11  12
HETATM   12  C   UNK N   1      22.577  15.141   2.268  0.00  0.00     0.193 C 
BRANCH  12  13
HETATM   13  O   UNK N   1      23.390  14.063   2.627  0.00  0.00    -0.387 OA
BRANCH  13  14
HETATM   14  C   UNK N   1      23.793  14.321   3.939  0.00  0.00     0.193 C 
BRANCH  14  15
HETATM   15  C   UNK N   1      25.132  15.043   3.924  0.00  0.00     0.193 C 
BRANCH  15  16
HETATM   16  O   UNK N   1      26.010  14.425   4.825  0.00  0.00    -0.389 OA
BRANCH  16  17
HETATM   17  C   UNK N   1      27.174  15.202   4.845  0.00  0.00     0.169 C 
BRANCH  17  18
HETATM   18  C   UNK N   1      27.728  15.384   3.440  0.00  0.00     0.046 C 
BRANCH  18  19
HETATM   19  C   UNK N   1      28.760  14.300   3.212  0.00  0.00     0.122 C 
BRANCH  19  20
HETATM   20  N   UNK N   1      28.878  13.412   4.338  0.00  0.00    -0.385 N 
HETATM   21  H   UNK N   1      29.032  13.813   5.223  0.00  0.00     0.159 HD
BRANCH  20  22
HETATM   22  C   UNK N   1      28.788  11.995   4.261  0.00  0.00     0.114 A 
HETATM   23  C   UNK N   1      27.687  11.257   4.238  0.00  0.00     0.114 A 
HETATM   24  C   UNK N   1      28.407  10.020   4.517  0.00  0.00     0.252 A 
HETATM   25  C   UNK N   1      29.621  10.805   4.548  0.00  0.00     0.252 A 
HETATM   26  O   UNK N   1      28.075   8.936   4.971  0.00  0.00    -0.281 OA
HETATM   27  O   UNK N   1      30.682  10.620   5.119  0.00  0.00    -0.281 OA
BRANCH  23  28
HETATM   28  N   UNK N   1      26.351  11.658   4.360  0.00  0.00    -0.385 N 
HETATM   29  H   UNK N   1      26.071  12.327   5.025  0.00  0.00     0.159 HD
BRANCH  28  30
HETATM   30  C   UNK N   1      25.415  11.050   3.472  0.00  0.00     0.121 C 
BRANCH  30  31
HETATM   31  C   UNK N   1      25.906  11.288   2.035  0.00  0.00     0.050 C 
BRANCH  31  32
HETATM   32  C   UNK N   1      25.080  10.567   0.972  0.00  0.00     0.274 C 
BRANCH  32  33
HETATM   33  N   UNK N   1      23.675  10.424   1.342  0.00  0.00     0.091 N 
HETATM   34  C   UNK N   1      23.391   8.981   1.409  0.00  0.00     0.302 C 
HETATM   35  C   UNK N   1      21.958   8.592   1.065  0.00  0.00     0.302 C 
HETATM   36  N   UNK N   1      21.031   9.697   1.234  0.00  0.00     0.091 N 
HETATM   37  C   UNK N   1      21.381  10.791   0.329  0.00  0.00     0.302 C 
HETATM   38  C   UNK N   1      22.829  11.264   0.468  0.00  0.00     0.302 C 
BRANCH  36  39
HETATM   39  C   UNK N   1      20.811  10.047   2.651  0.00  0.00     0.274 C 
BRANCH  39  40
HETATM   40  C   UNK N   1      19.401  10.543   2.980  0.00  0.00     0.050 C 
BRANCH  40  41
HETATM   41  C   UNK N   1      19.246  12.056   2.915  0.00  0.00     0.123 C 
BRANCH  41  42
HETATM   42  N   UNK N   1      20.051  12.805   3.869  0.00  0.00    -0.370 N 
HETATM   43  C   UNK N   1      19.823  14.047   4.121  0.00  0.00     0.146 C 
ATOM     44  HN  UNK N   1      20.815  12.333   4.351  1.00  0.00     0.161 HD
BRANCH  43  45
HETATM   45  C   UNK N   1      20.326  14.672   5.327  0.00  0.00     0.019 A 
HETATM   46  C   UNK N   1      20.447  16.040   5.596  0.00  0.00     0.052 A 
HETATM   47  C   UNK N   1      20.708  16.454   6.934  0.00  0.00     0.106 A 
HETATM   48  C   UNK N   1      20.800  15.472   7.965  0.00  0.00     0.073 A 
HETATM   49  C   UNK N   1      20.627  14.112   7.650  0.00  0.00     0.075 A 
HETATM   50  C   UNK N   1      20.410  13.784   6.347  0.00  0.00     0.052 A 
BRANCH  47  51
HETATM   51  N   UNK N   1      20.792  17.842   7.244  0.00  0.00    -0.116 N 
HETATM   52  O   UNK N   1      20.347  18.254   8.278  0.00  0.00    -0.532 OA
HETATM   53  O   UNK N   1      21.255  18.610   6.460  0.00  0.00    -0.532 OA
ENDBRANCH  47  51
BRANCH  49  54
HETATM   54  O   UNK N   1      20.588  13.120   8.591  0.00  0.00    -0.318 OA
BRANCH  54  55
HETATM   55  C   UNK N   1      21.717  12.453   9.130  0.00  0.00     0.298 C 
HETATM   56  C   UNK N   1      21.910  12.795  10.628  0.00  0.00     0.205 C 
HETATM   57  C   UNK N   1      23.238  12.183  11.141  0.00  0.00     0.183 C 
HETATM   58  C   UNK N   1      24.426  12.504  10.197  0.00  0.00     0.180 C 
HETATM   59  C   UNK N   1      23.957  13.349   9.010  0.00  0.00     0.179 C 
HETATM   60  O   UNK N   1      22.920  12.628   8.348  0.00  0.00    -0.348 OA
BRANCH  56  61
HETATM   61  O   UNK N   1      20.829  12.341  11.387  0.00  0.00    -0.388 OA
HETATM   62  H   UNK N   1      20.151  11.781  10.979  0.00  0.00     0.210 HD
ENDBRANCH  56  61
BRANCH  57  63
HETATM   63  O   UNK N   1      23.118  10.795  11.257  0.00  0.00    -0.390 OA
HETATM   64  H   UNK N   1      23.070  10.008  11.822  0.00  0.00     0.210 HD
ENDBRANCH  57  63
BRANCH  58  65
HETATM   65  O   UNK N   1      25.461  13.133  10.897  0.00  0.00    -0.390 OA
HETATM   66  H   UNK N   1      26.426  13.122  10.807  0.00  0.00     0.210 HD
ENDBRANCH  58  65
BRANCH  59  67
HETATM   67  C   UNK N   1      25.109  13.593   8.038  0.00  0.00     0.198 C 
BRANCH  67  68
HETATM   68  O   UNK N   1      25.101  12.657   7.000  0.00  0.00    -0.398 OA
HETATM   69  H   UNK N   1      25.659  12.347   6.270  0.00  0.00     0.209 HD
ENDBRANCH  67  68
ENDBRANCH  59  67
ENDBRANCH  54  55
ENDBRANCH  49  54
ENDBRANCH  43  45
BRANCH  43  70
HETATM   70  O   UNK N   1      18.842  14.708   3.475  0.00  0.00    -0.346 OA
HETATM   71  H   UNK N   1      18.618  15.412   2.899  0.00  0.00     0.219 HD
ENDBRANCH  43  70
ENDBRANCH  41  42
ENDBRANCH  40  41
ENDBRANCH  39  40
ENDBRANCH  36  39
ENDBRANCH  32  33
ENDBRANCH  31  32
ENDBRANCH  30  31
ENDBRANCH  28  30
ENDBRANCH  23  28
ENDBRANCH  20  22
ENDBRANCH  19  20
ENDBRANCH  18  19
ENDBRANCH  17  18
ENDBRANCH  16  17
ENDBRANCH  15  16
ENDBRANCH  14  15
ENDBRANCH  13  14
ENDBRANCH  12  13
ENDBRANCH  11  12
ENDBRANCH  10  11
ENDBRANCH   9  10
ENDBRANCH   8   9
ENDBRANCH   7   8
ENDBRANCH   5   7
BRANCH   4  72
HETATM   72  O   UNK N   1      21.940  21.684   2.703  0.00  0.00    -0.327 OA
HETATM   73  H   UNK N   1      22.210  22.238   3.409  0.00  0.00     0.221 HD
ENDBRANCH   4  72
ENDBRANCH   3   4
ENDBRANCH   2   3
ENDBRANCH   1   2
BRANCH   1  74
HETATM   74  C   UNK N   1      26.123  18.952   3.781  0.00  0.00     0.206 C 
BRANCH  74  75
HETATM   75  O   UNK N   1      27.258  19.487   4.343  0.00  0.00    -0.315 OA
BRANCH  75  76
HETATM   76  C   UNK N   1      27.871  18.810   5.339  0.00  0.00     0.258 C 
HETATM   77  N   UNK N   1      27.243  18.578   6.440  0.00  0.00    -0.350 N 
ATOM     78  HN  UNK N   1      26.310  18.967   6.573  1.00  0.00     0.163 HD
BRANCH  77  79
HETATM   79  C   UNK N   1      27.829  17.777   7.493  0.00  0.00     0.126 C 
BRANCH  79  80
HETATM   80  C   UNK N   1      28.172  18.653   8.693  0.00  0.00     0.046 C 
BRANCH  80  81
HETATM   81  C   UNK N   1      29.629  18.471   9.081  0.00  0.00     0.169 C 
BRANCH  81  82
HETATM   82  O   UNK N   1      29.940  17.108   9.098  0.00  0.00    -0.389 OA
BRANCH  82  83
HETATM   83  C   UNK N   1      31.080  16.967   8.299  0.00  0.00     0.193 C 
BRANCH  83  84
HETATM   84  C   UNK N   1      31.963  15.853   8.833  0.00  0.00     0.193 C 
BRANCH  84  85
HETATM   85  O   UNK N   1      33.218  16.375   9.152  0.00  0.00    -0.387 OA
BRANCH  85  86
HETATM   86  C   UNK N   1      33.307  17.598   8.486  0.00  0.00     0.193 C 
BRANCH  86  87
HETATM   87  C   UNK N   1      34.536  17.638   7.580  0.00  0.00     0.193 C 
BRANCH  87  88
HETATM   88  O   UNK N   1      34.176  17.985   6.272  0.00  0.00    -0.389 OA
BRANCH  88  89
HETATM   89  C   UNK N   1      33.750  16.794   5.673  0.00  0.00     0.169 C 
BRANCH  89  90
HETATM   90  C   UNK N   1      32.985  17.116   4.397  0.00  0.00     0.046 C 
BRANCH  90  91
HETATM   91  C   UNK N   1      31.905  16.069   4.144  0.00  0.00     0.122 C 
BRANCH  91  92
HETATM   92  N   UNK N   1      32.256  15.322   2.972  0.00  0.00    -0.385 N 
HETATM   93  H   UNK N   1      31.686  15.374   2.171  0.00  0.00     0.159 HD
BRANCH  92  94
HETATM   94  C   UNK N   1      33.412  14.511   2.953  0.00  0.00     0.114 A 
HETATM   95  C   UNK N   1      33.644  13.410   3.657  0.00  0.00     0.114 A 
HETATM   96  C   UNK N   1      34.814  13.057   2.844  0.00  0.00     0.252 A 
HETATM   97  C   UNK N   1      34.546  14.248   2.056  0.00  0.00     0.252 A 
HETATM   98  O   UNK N   1      35.544  12.084   2.733  0.00  0.00    -0.281 OA
HETATM   99  O   UNK N   1      34.937  14.690   0.987  0.00  0.00    -0.281 OA
BRANCH  95 100
HETATM  100  N   UNK N   1      32.807  12.795   4.612  0.00  0.00    -0.385 N 
HETATM  101  H   UNK N   1      32.015  12.296   4.306  0.00  0.00     0.159 HD
BRANCH 100 102
HETATM  102  C   UNK N   1      33.080  12.878   6.016  0.00  0.00     0.121 C 
BRANCH 102 103
HETATM  103  C   UNK N   1      34.394  12.185   6.306  0.00  0.00     0.050 C 
BRANCH 103 104
HETATM  104  C   UNK N   1      34.243  10.709   5.977  0.00  0.00     0.274 C 
BRANCH 104 105
HETATM  105  N   UNK N   1      33.702   9.925   7.093  0.00  0.00     0.091 N 
HETATM  106  C   UNK N   1      34.689   9.589   8.131  0.00  0.00     0.302 C 
HETATM  107  C   UNK N   1      35.452   8.267   7.916  0.00  0.00     0.302 C 
HETATM  108  N   UNK N   1      35.406   7.786   6.537  0.00  0.00     0.091 N 
HETATM  109  C   UNK N   1      34.026   7.676   6.047  0.00  0.00     0.302 C 
HETATM  110  C   UNK N   1      33.043   8.728   6.579  0.00  0.00     0.302 C 
BRANCH 108 111
HETATM  111  C   UNK N   1      36.224   8.631   5.667  0.00  0.00     0.274 C 
BRANCH 111 112
HETATM  112  C   UNK N   1      37.447   7.887   5.157  0.00  0.00     0.050 C 
BRANCH 112 113
HETATM  113  C   UNK N   1      38.579   8.849   4.837  0.00  0.00     0.123 C 
BRANCH 113 114
HETATM  114  N   UNK N   1      39.726   8.655   5.702  0.00  0.00    -0.370 N 
HETATM  115  C   UNK N   1      40.120   9.512   6.582  0.00  0.00     0.146 C 
ATOM    116  HN  UNK N   1      40.254   7.788   5.609  1.00  0.00     0.161 HD
BRANCH 115 117
HETATM  117  C   UNK N   1      39.449  10.807   6.773  0.00  0.00     0.019 A 
HETATM  118  C   UNK N   1      40.021  12.004   6.305  0.00  0.00     0.052 A 
HETATM  119  C   UNK N   1      39.421  13.243   6.583  0.00  0.00     0.106 A 
HETATM  120  C   UNK N   1      38.255  13.256   7.332  0.00  0.00     0.073 A 
HETATM  121  C   UNK N   1      37.726  12.078   7.858  0.00  0.00     0.075 A 
HETATM  122  C   UNK N   1      38.327  10.858   7.587  0.00  0.00     0.052 A 
BRANCH 119 123
HETATM  123  N   UNK N   1      40.056  14.478   6.254  0.00  0.00    -0.116 N 
HETATM  124  O   UNK N   1      39.991  14.904   5.139  0.00  0.00    -0.532 OA
HETATM  125  O   UNK N   1      40.518  15.165   7.113  0.00  0.00    -0.532 OA
ENDBRANCH 119 123
BRANCH 121 126
HETATM  126  O   UNK N   1      36.808  12.137   8.833  0.00  0.00    -0.318 OA
BRANCH 126 127
HETATM  127  C   UNK N   1      36.986  13.081   9.832  0.00  0.00     0.298 C 
HETATM  128  C   UNK N   1      36.401  14.488   9.446  0.00  0.00     0.205 C 
HETATM  129  C   UNK N   1      36.374  15.311  10.709  0.00  0.00     0.183 C 
HETATM  130  C   UNK N   1      35.437  14.644  11.737  0.00  0.00     0.180 C 
HETATM  131  C   UNK N   1      35.365  13.099  11.534  0.00  0.00     0.179 C 
HETATM  132  O   UNK N   1      36.587  12.558  11.096  0.00  0.00    -0.348 OA
BRANCH 128 133
HETATM  133  O   UNK N   1      35.116  14.381   8.899  0.00  0.00    -0.388 OA
HETATM  134  H   UNK N   1      34.427  14.011   8.326  0.00  0.00     0.210 HD
ENDBRANCH 128 133
BRANCH 129 135
HETATM  135  O   UNK N   1      36.002  16.633  10.453  0.00  0.00    -0.390 OA
HETATM  136  H   UNK N   1      36.619  17.248  10.026  0.00  0.00     0.210 HD
ENDBRANCH 129 135
BRANCH 130 137
HETATM  137  O   UNK N   1      34.138  15.150  11.623  0.00  0.00    -0.390 OA
HETATM  138  H   UNK N   1      33.417  14.937  11.011  0.00  0.00     0.210 HD
ENDBRANCH 130 137
BRANCH 131 139
HETATM  139  C   UNK N   1      34.933  12.405  12.817  0.00  0.00     0.198 C 
BRANCH 139 140
HETATM  140  O   UNK N   1      34.902  13.316  13.875  0.00  0.00    -0.398 OA
HETATM  141  H   UNK N   1      34.614  14.115  14.346  0.00  0.00     0.209 HD
ENDBRANCH 139 140
ENDBRANCH 131 139
ENDBRANCH 126 127
ENDBRANCH 121 126
ENDBRANCH 115 117
BRANCH 115 142
HETATM  142  O   UNK N   1      41.134   9.184   7.405  0.00  0.00    -0.346 OA
HETATM  143  H   UNK N   1      41.932   9.346   7.869  0.00  0.00     0.219 HD
ENDBRANCH 115 142
ENDBRANCH 113 114
ENDBRANCH 112 113
ENDBRANCH 111 112
ENDBRANCH 108 111
ENDBRANCH 104 105
ENDBRANCH 103 104
ENDBRANCH 102 103
ENDBRANCH 100 102
ENDBRANCH  95 100
ENDBRANCH  92  94
ENDBRANCH  91  92
ENDBRANCH  90  91
ENDBRANCH  89  90
ENDBRANCH  88  89
ENDBRANCH  87  88
ENDBRANCH  86  87
ENDBRANCH  85  86
ENDBRANCH  84  85
ENDBRANCH  83  84
ENDBRANCH  82  83
ENDBRANCH  81  82
ENDBRANCH  80  81
ENDBRANCH  79  80
ENDBRANCH  77  79
BRANCH  76 144
HETATM  144  O   UNK N   1      29.112  18.314   5.143  0.00  0.00    -0.327 OA
HETATM  145  H   UNK N   1      29.908  18.591   5.551  0.00  0.00     0.221 HD
ENDBRANCH  76 144
ENDBRANCH  75  76
ENDBRANCH  74  75
ENDBRANCH   1  74
BRANCH   1 146
HETATM  146  N   UNK N   1      24.944  20.568   2.441  0.00  0.00    -0.422 N 
HETATM  147  H   UNK N   1      25.573  21.284   2.081  0.00  0.00     0.150 HD
HETATM  148  H   UNK N   1      24.214  20.246   1.805  0.00  0.00     0.150 HD
ENDBRANCH   1 146
TORSDOF 77
ENDMDL
MODEL 5
REMARK VINA RESULT:      -6.0      3.676     14.985
REMARK WARNING: 32 MAX_TORS EXCEEDED!!!
REMARK  77 active torsions:
REMARK  status: ('A' for Active; 'I' for Inactive)
REMARK    1  A    between atoms: C_9  and  C_1 
REMARK    2  A    between atoms: C_17  and  C_1 
REMARK    3  A    between atoms: C_10  and  C_2 
REMARK    4  A    between atoms: C_18  and  C_2 
REMARK    5  A    between atoms: C_11  and  C_3 
REMARK    6  A    between atoms: C_19  and  C_3 
REMARK    7  A    between atoms: C_12  and  C_4 
REMARK    8  A    between atoms: C_20  and  C_4 
REMARK    9  A    between atoms: C_13  and  C_5 
REMARK   10  A    between atoms: C_29  and  C_5 
REMARK   11  A    between atoms: C_14  and  C_6 
REMARK   12  A    between atoms: C_30  and  C_6 
REMARK   13  A    between atoms: C_15  and  C_7 
REMARK   14  A    between atoms: C_31  and  C_7 
REMARK   15  A    between atoms: C_16  and  C_8 
REMARK   16  A    between atoms: C_32  and  C_8 
REMARK   17  A    between atoms: N_81  and  C_9 
REMARK   18  A    between atoms: N_82  and  C_10 
REMARK   19  A    between atoms: N_85  and  C_11 
REMARK   20  A    between atoms: N_87  and  C_12 
REMARK   21  A    between atoms: N_83  and  C_13 
REMARK   22  A    between atoms: N_84  and  C_14 
REMARK   23  A    between atoms: N_89  and  C_15 
REMARK   24  A    between atoms: N_91  and  C_16 
REMARK   25  A    between atoms: N_93  and  C_17 
REMARK   26  A    between atoms: N_94  and  C_18 
REMARK   27  A    between atoms: N_95  and  C_19 
REMARK   28  A    between atoms: N_96  and  C_20 
REMARK   29  A    between atoms: O_119  and  C_29 
REMARK   30  A    between atoms: O_120  and  C_30 
REMARK   31  A    between atoms: O_121  and  C_31 
REMARK   32  A    between atoms: O_122  and  C_32 
REMARK   33  A    between atoms: C_37  and  C_33 
REMARK   34  A    between atoms: O_119  and  C_33 
REMARK   35  A    between atoms: C_38  and  C_34 
REMARK   36  A    between atoms: O_120  and  C_34 
REMARK   37  A    between atoms: C_39  and  C_35 
REMARK   38  A    between atoms: O_121  and  C_35 
REMARK   39  A    between atoms: C_40  and  C_36 
REMARK   40  A    between atoms: O_122  and  C_36 
REMARK   41  A    between atoms: O_123  and  C_37 
REMARK   42  A    between atoms: O_124  and  C_38 
REMARK   43  A    between atoms: O_123  and  C_39 
REMARK   44  A    between atoms: O_124  and  C_40 
REMARK   45  A    between atoms: C_58  and  C_47 
REMARK   46  A    between atoms: O_99  and  C_47 
REMARK   47  A    between atoms: C_59  and  C_48 
REMARK   48  A    between atoms: O_100  and  C_48 
REMARK   49  A    between atoms: C_53  and  C_49 
REMARK   50  A    between atoms: O_125  and  C_49 
REMARK   51  A    between atoms: C_53  and  C_50 
REMARK   52  A    between atoms: O_126  and  C_50 
REMARK   53  A    between atoms: C_74  and  C_51 
REMARK   54  A    between atoms: C_75  and  C_52 
REMARK   55  A    between atoms: N_80  and  C_53 
REMARK   56  A    between atoms: N_97  and  C_54 
REMARK   57  A    between atoms: N_98  and  C_55 
REMARK   58  A    between atoms: O_127  and  C_56 
REMARK   59  A    between atoms: O_128  and  C_57 
REMARK   60  A    between atoms: N_81  and  C_60 
REMARK   61  A    between atoms: N_82  and  C_61 
REMARK   62  A    between atoms: N_83  and  C_62 
REMARK   63  A    between atoms: N_84  and  C_63 
REMARK   64  A    between atoms: C_64  and  O_101 
REMARK   65  A    between atoms: O_102  and  C_65 
REMARK   66  A    between atoms: C_70  and  O_107 
REMARK   67  A    between atoms: O_108  and  C_71 
REMARK   68  A    between atoms: C_72  and  O_109 
REMARK   69  A    between atoms: O_110  and  C_73 
REMARK   70  A    between atoms: O_111  and  C_74 
REMARK   71  A    between atoms: O_112  and  C_75 
REMARK   72  A    between atoms: C_76  and  O_127 
REMARK   73  A    between atoms: O_128  and  C_77 
REMARK   74  A    between atoms: O_113  and  C_78 
REMARK   75  A    between atoms: O_125  and  C_78 
REMARK   76  A    between atoms: O_114  and  C_79 
REMARK   77  A    between atoms: O_126  and  C_79 
ROOT
HETATM    1  C   UNK N   1      28.752  12.776   2.256  0.00  0.00     0.123 C 
ENDROOT
BRANCH   1   2
HETATM    2  C   UNK N   1      27.747  11.724   1.731  0.00  0.00     0.206 C 
BRANCH   2   3
HETATM    3  O   UNK N   1      26.411  12.046   1.926  0.00  0.00    -0.315 OA
BRANCH   3   4
HETATM    4  C   UNK N   1      25.286  11.344   1.593  0.00  0.00     0.258 C 
HETATM    5  N   UNK N   1      24.103  11.861   1.552  0.00  0.00    -0.350 N 
ATOM      6  HN  UNK N   1      23.327  11.227   1.362  1.00  0.00     0.163 HD
BRANCH   5   7
HETATM    7  C   UNK N   1      23.776  13.254   1.750  0.00  0.00     0.126 C 
BRANCH   7   8
HETATM    8  C   UNK N   1      22.959  13.797   0.578  0.00  0.00     0.046 C 
BRANCH   8   9
HETATM    9  C   UNK N   1      21.473  13.900   0.919  0.00  0.00     0.169 C 
BRANCH   9  10
HETATM   10  O   UNK N   1      21.071  12.835   1.726  0.00  0.00    -0.389 OA
BRANCH  10  11
HETATM   11  C   UNK N   1      19.984  12.244   1.074  0.00  0.00     0.193 C 
BRANCH  11  12
HETATM   12  C   UNK N   1      20.306  10.775   0.818  0.00  0.00     0.193 C 
BRANCH  12  13
HETATM   13  O   UNK N   1      21.426  10.389   1.558  0.00  0.00    -0.387 OA
BRANCH  13  14
HETATM   14  C   UNK N   1      21.749   9.108   1.106  0.00  0.00     0.193 C 
BRANCH  14  15
HETATM   15  C   UNK N   1      22.537   8.376   2.182  0.00  0.00     0.193 C 
BRANCH  15  16
HETATM   16  O   UNK N   1      23.104   9.305   3.064  0.00  0.00    -0.389 OA
BRANCH  16  17
HETATM   17  C   UNK N   1      23.736   8.566   4.071  0.00  0.00     0.169 C 
BRANCH  17  18
HETATM   18  C   UNK N   1      22.888   7.370   4.477  0.00  0.00     0.046 C 
BRANCH  18  19
HETATM   19  C   UNK N   1      22.219   7.710   5.792  0.00  0.00     0.122 C 
BRANCH  19  20
HETATM   20  N   UNK N   1      21.563   8.990   5.757  0.00  0.00    -0.385 N 
HETATM   21  H   UNK N   1      22.002   9.741   6.217  0.00  0.00     0.159 HD
BRANCH  20  22
HETATM   22  C   UNK N   1      20.326   9.245   5.105  0.00  0.00     0.114 A 
HETATM   23  C   UNK N   1      19.920  10.383   4.561  0.00  0.00     0.114 A 
HETATM   24  C   UNK N   1      18.532   9.946   4.467  0.00  0.00     0.252 A 
HETATM   25  C   UNK N   1      18.951   8.695   5.062  0.00  0.00     0.252 A 
HETATM   26  O   UNK N   1      17.468  10.535   4.373  0.00  0.00    -0.281 OA
HETATM   27  O   UNK N   1      18.337   7.874   5.721  0.00  0.00    -0.281 OA
BRANCH  23  28
HETATM   28  N   UNK N   1      20.552  11.633   4.549  0.00  0.00    -0.385 N 
HETATM   29  H   UNK N   1      21.288  11.834   3.927  0.00  0.00     0.159 HD
BRANCH  28  30
HETATM   30  C   UNK N   1      20.077  12.601   5.482  0.00  0.00     0.121 C 
BRANCH  30  31
HETATM   31  C   UNK N   1      20.305  13.994   4.871  0.00  0.00     0.050 C 
BRANCH  31  32
HETATM   32  C   UNK N   1      21.777  14.385   4.757  0.00  0.00     0.274 C 
BRANCH  32  33
HETATM   33  N   UNK N   1      21.969  15.807   4.492  0.00  0.00     0.091 N 
HETATM   34  C   UNK N   1      22.291  16.447   5.779  0.00  0.00     0.302 C 
HETATM   35  C   UNK N   1      21.837  17.896   5.908  0.00  0.00     0.302 C 
HETATM   36  N   UNK N   1      21.644  18.529   4.615  0.00  0.00     0.091 N 
HETATM   37  C   UNK N   1      20.592  17.842   3.868  0.00  0.00     0.302 C 
HETATM   38  C   UNK N   1      20.832  16.339   3.712  0.00  0.00     0.302 C 
BRANCH  36  39
HETATM   39  C   UNK N   1      22.914  18.777   3.905  0.00  0.00     0.274 C 
BRANCH  39  40
HETATM   40  C   UNK N   1      22.983  20.110   3.155  0.00  0.00     0.050 C 
BRANCH  40  41
HETATM   41  C   UNK N   1      24.401  20.594   2.883  0.00  0.00     0.123 C 
BRANCH  41  42
HETATM   42  N   UNK N   1      25.444  19.598   3.074  0.00  0.00    -0.370 N 
HETATM   43  C   UNK N   1      26.401  19.770   3.919  0.00  0.00     0.146 C 
ATOM     44  HN  UNK N   1      25.418  18.740   2.523  1.00  0.00     0.161 HD
BRANCH  43  45
HETATM   45  C   UNK N   1      27.184  18.653   4.404  0.00  0.00     0.019 A 
HETATM   46  C   UNK N   1      28.575  18.571   4.526  0.00  0.00     0.052 A 
HETATM   47  C   UNK N   1      29.134  17.495   5.274  0.00  0.00     0.106 A 
HETATM   48  C   UNK N   1      28.266  16.557   5.907  0.00  0.00     0.073 A 
HETATM   49  C   UNK N   1      26.872  16.708   5.790  0.00  0.00     0.075 A 
HETATM   50  C   UNK N   1      26.406  17.741   5.037  0.00  0.00     0.052 A 
BRANCH  47  51
HETATM   51  N   UNK N   1      30.546  17.412   5.453  0.00  0.00    -0.116 N 
HETATM   52  O   UNK N   1      31.283  17.708   4.555  0.00  0.00    -0.532 OA
HETATM   53  O   UNK N   1      31.003  17.000   6.472  0.00  0.00    -0.532 OA
ENDBRANCH  47  51
BRANCH  49  54
HETATM   54  O   UNK N   1      25.971  15.922   6.454  0.00  0.00    -0.318 OA
BRANCH  54  55
HETATM   55  C   UNK N   1      25.936  14.505   6.424  0.00  0.00     0.298 C 
HETATM   56  C   UNK N   1      25.264  13.985   5.130  0.00  0.00     0.205 C 
HETATM   57  C   UNK N   1      25.097  12.446   5.204  0.00  0.00     0.183 C 
HETATM   58  C   UNK N   1      24.460  11.998   6.546  0.00  0.00     0.180 C 
HETATM   59  C   UNK N   1      24.164  13.210   7.433  0.00  0.00     0.179 C 
HETATM   60  O   UNK N   1      25.388  13.915   7.625  0.00  0.00    -0.348 OA
BRANCH  56  61
HETATM   61  O   UNK N   1      26.003  14.349   4.003  0.00  0.00    -0.388 OA
HETATM   62  H   UNK N   1      25.613  14.932   3.334  0.00  0.00     0.210 HD
ENDBRANCH  56  61
BRANCH  57  63
HETATM   63  O   UNK N   1      26.337  11.818   5.063  0.00  0.00    -0.390 OA
HETATM   64  H   UNK N   1      26.945  11.286   4.525  0.00  0.00     0.210 HD
ENDBRANCH  57  63
BRANCH  58  65
HETATM   65  O   UNK N   1      23.309  11.236   6.319  0.00  0.00    -0.390 OA
HETATM   66  H   UNK N   1      22.447  11.187   6.761  0.00  0.00     0.210 HD
ENDBRANCH  58  65
BRANCH  59  67
HETATM   67  C   UNK N   1      23.616  12.762   8.786  0.00  0.00     0.198 C 
BRANCH  67  68
HETATM   68  O   UNK N   1      24.281  13.399   9.837  0.00  0.00    -0.398 OA
HETATM   69  H   UNK N   1      25.174  13.504  10.201  0.00  0.00     0.209 HD
ENDBRANCH  67  68
ENDBRANCH  59  67
ENDBRANCH  54  55
ENDBRANCH  49  54
ENDBRANCH  43  45
BRANCH  43  70
HETATM   70  O   UNK N   1      26.483  20.909   4.636  0.00  0.00    -0.346 OA
HETATM   71  H   UNK N   1      26.885  21.749   4.731  0.00  0.00     0.219 HD
ENDBRANCH  43  70
ENDBRANCH  41  42
ENDBRANCH  40  41
ENDBRANCH  39  40
ENDBRANCH  36  39
ENDBRANCH  32  33
ENDBRANCH  31  32
ENDBRANCH  30  31
ENDBRANCH  28  30
ENDBRANCH  23  28
ENDBRANCH  20  22
ENDBRANCH  19  20
ENDBRANCH  18  19
ENDBRANCH  17  18
ENDBRANCH  16  17
ENDBRANCH  15  16
ENDBRANCH  14  15
ENDBRANCH  13  14
ENDBRANCH  12  13
ENDBRANCH  11  12
ENDBRANCH  10  11
ENDBRANCH   9  10
ENDBRANCH   8   9
ENDBRANCH   7   8
ENDBRANCH   5   7
BRANCH   4  72
HETATM   72  O   UNK N   1      25.421  10.042   1.278  0.00  0.00    -0.327 OA
HETATM   73  H   UNK N   1      25.232   9.666   0.441  0.00  0.00     0.221 HD
ENDBRANCH   4  72
ENDBRANCH   3   4
ENDBRANCH   2   3
ENDBRANCH   1   2
BRANCH   1  74
HETATM   74  C   UNK N   1      29.416  12.435   3.590  0.00  0.00     0.206 C 
BRANCH  74  75
HETATM   75  O   UNK N   1      29.535  13.536   4.405  0.00  0.00    -0.315 OA
BRANCH  75  76
HETATM   76  C   UNK N   1      30.770  13.946   4.766  0.00  0.00     0.258 C 
HETATM   77  N   UNK N   1      31.649  14.217   3.862  0.00  0.00    -0.350 N 
ATOM     78  HN  UNK N   1      31.421  14.055   2.881  1.00  0.00     0.163 HD
BRANCH  77  79
HETATM   79  C   UNK N   1      32.950  14.749   4.204  0.00  0.00     0.126 C 
BRANCH  79  80
HETATM   80  C   UNK N   1      33.656  15.262   2.953  0.00  0.00     0.046 C 
BRANCH  80  81
HETATM   81  C   UNK N   1      34.146  14.101   2.108  0.00  0.00     0.169 C 
BRANCH  81  82
HETATM   82  O   UNK N   1      33.050  13.418   1.573  0.00  0.00    -0.389 OA
BRANCH  82  83
HETATM   83  C   UNK N   1      33.496  12.114   1.327  0.00  0.00     0.193 C 
BRANCH  83  84
HETATM   84  C   UNK N   1      34.095  11.517   2.589  0.00  0.00     0.193 C 
BRANCH  84  85
HETATM   85  O   UNK N   1      33.078  11.305   3.523  0.00  0.00    -0.387 OA
BRANCH  85  86
HETATM   86  C   UNK N   1      33.712  11.171   4.758  0.00  0.00     0.193 C 
BRANCH  86  87
HETATM   87  C   UNK N   1      32.693  10.938   5.872  0.00  0.00     0.193 C 
BRANCH  87  88
HETATM   88  O   UNK N   1      32.697  12.005   6.779  0.00  0.00    -0.389 OA
BRANCH  88  89
HETATM   89  C   UNK N   1      33.682  11.691   7.721  0.00  0.00     0.169 C 
BRANCH  89  90
HETATM   90  C   UNK N   1      34.042  12.941   8.511  0.00  0.00     0.046 C 
BRANCH  90  91
HETATM   91  C   UNK N   1      34.306  14.111   7.568  0.00  0.00     0.122 C 
BRANCH  91  92
HETATM   92  N   UNK N   1      33.341  15.139   7.832  0.00  0.00    -0.385 N 
HETATM   93  H   UNK N   1      32.385  14.909   7.887  0.00  0.00     0.159 HD
BRANCH  92  94
HETATM   94  C   UNK N   1      33.747  16.479   8.015  0.00  0.00     0.114 A 
HETATM   95  C   UNK N   1      34.234  17.039   9.115  0.00  0.00     0.114 A 
HETATM   96  C   UNK N   1      34.670  18.240   8.392  0.00  0.00     0.252 A 
HETATM   97  C   UNK N   1      34.161  17.618   7.181  0.00  0.00     0.252 A 
HETATM   98  O   UNK N   1      35.356  19.217   8.648  0.00  0.00    -0.281 OA
HETATM   99  O   UNK N   1      34.257  17.835   5.984  0.00  0.00    -0.281 OA
BRANCH  95 100
HETATM  100  N   UNK N   1      34.443  16.441  10.377  0.00  0.00    -0.385 N 
HETATM  101  H   UNK N   1      33.673  16.068  10.865  0.00  0.00     0.159 HD
BRANCH 100 102
HETATM  102  C   UNK N   1      35.747  16.361  10.964  0.00  0.00     0.121 C 
BRANCH 102 103
HETATM  103  C   UNK N   1      36.389  15.048  10.568  0.00  0.00     0.050 C 
BRANCH 103 104
HETATM  104  C   UNK N   1      36.430  14.145  11.790  0.00  0.00     0.274 C 
BRANCH 104 105
HETATM  105  N   UNK N   1      36.270  12.725  11.460  0.00  0.00     0.091 N 
HETATM  106  C   UNK N   1      34.971  12.154  11.853  0.00  0.00     0.302 C 
HETATM  107  C   UNK N   1      34.912  11.560  13.274  0.00  0.00     0.302 C 
HETATM  108  N   UNK N   1      35.981  12.036  14.149  0.00  0.00     0.091 N 
HETATM  109  C   UNK N   1      37.306  11.826  13.551  0.00  0.00     0.302 C 
HETATM  110  C   UNK N   1      37.379  11.961  12.024  0.00  0.00     0.302 C 
BRANCH 108 111
HETATM  111  C   UNK N   1      35.767  13.438  14.511  0.00  0.00     0.274 C 
BRANCH 111 112
HETATM  112  C   UNK N   1      36.044  13.682  15.985  0.00  0.00     0.050 C 
BRANCH 112 113
HETATM  113  C   UNK N   1      34.950  13.084  16.854  0.00  0.00     0.123 C 
BRANCH 113 114
HETATM  114  N   UNK N   1      35.190  13.301  18.266  0.00  0.00    -0.370 N 
HETATM  115  C   UNK N   1      35.389  12.354  19.119  0.00  0.00     0.146 C 
ATOM    116  HN  UNK N   1      35.201  14.262  18.607  1.00  0.00     0.161 HD
BRANCH 115 117
HETATM  117  C   UNK N   1      35.361  10.934  18.737  0.00  0.00     0.019 A 
HETATM  118  C   UNK N   1      36.167  10.440  17.696  0.00  0.00     0.052 A 
HETATM  119  C   UNK N   1      36.056   9.105  17.273  0.00  0.00     0.106 A 
HETATM  120  C   UNK N   1      35.131   8.290  17.906  0.00  0.00     0.073 A 
HETATM  121  C   UNK N   1      34.281   8.796  18.889  0.00  0.00     0.075 A 
HETATM  122  C   UNK N   1      34.390  10.117  19.296  0.00  0.00     0.052 A 
BRANCH 119 123
HETATM  123  N   UNK N   1      36.749   8.618  16.124  0.00  0.00    -0.116 N 
HETATM  124  O   UNK N   1      37.738   7.960  16.258  0.00  0.00    -0.532 OA
HETATM  125  O   UNK N   1      36.267   8.731  15.039  0.00  0.00    -0.532 OA
ENDBRANCH 119 123
BRANCH 121 126
HETATM  126  O   UNK N   1      33.192   8.102  19.250  0.00  0.00    -0.318 OA
BRANCH 126 127
HETATM  127  C   UNK N   1      33.359   7.059  20.147  0.00  0.00     0.298 C 
HETATM  128  C   UNK N   1      32.733   7.367  21.555  0.00  0.00     0.205 C 
HETATM  129  C   UNK N   1      32.700   6.064  22.313  0.00  0.00     0.183 C 
HETATM  130  C   UNK N   1      31.795   5.061  21.571  0.00  0.00     0.180 C 
HETATM  131  C   UNK N   1      31.759   5.340  20.038  0.00  0.00     0.179 C 
HETATM  132  O   UNK N   1      32.989   5.818  19.551  0.00  0.00    -0.348 OA
BRANCH 128 133
HETATM  133  O   UNK N   1      31.444   7.904  21.443  0.00  0.00    -0.388 OA
HETATM  134  H   UNK N   1      30.593   8.236  21.768  0.00  0.00     0.210 HD
ENDBRANCH 128 133
BRANCH 129 135
HETATM  135  O   UNK N   1      32.292   6.249  23.637  0.00  0.00    -0.390 OA
HETATM  136  H   UNK N   1      31.800   7.043  23.898  0.00  0.00     0.210 HD
ENDBRANCH 129 135
BRANCH 130 137
HETATM  137  O   UNK N   1      30.482   5.133  22.049  0.00  0.00    -0.390 OA
HETATM  138  H   UNK N   1      29.827   5.847  22.020  0.00  0.00     0.210 HD
ENDBRANCH 130 137
BRANCH 131 139
HETATM  139  C   UNK N   1      31.362   4.089  19.269  0.00  0.00     0.198 C 
BRANCH 139 140
HETATM  140  O   UNK N   1      30.894   3.108  20.147  0.00  0.00    -0.398 OA
HETATM  141  H   UNK N   1      30.407   2.307  20.400  0.00  0.00     0.209 HD
ENDBRANCH 139 140
ENDBRANCH 131 139
ENDBRANCH 126 127
ENDBRANCH 121 126
ENDBRANCH 115 117
BRANCH 115 142
HETATM  142  O   UNK N   1      35.707  12.674  20.388  0.00  0.00    -0.346 OA
HETATM  143  H   UNK N   1      35.514  12.929  21.269  0.00  0.00     0.219 HD
ENDBRANCH 115 142
ENDBRANCH 113 114
ENDBRANCH 112 113
ENDBRANCH 111 112
ENDBRANCH 108 111
ENDBRANCH 104 105
ENDBRANCH 103 104
ENDBRANCH 102 103
ENDBRANCH 100 102
ENDBRANCH  95 100
ENDBRANCH  92  94
ENDBRANCH  91  92
ENDBRANCH  90  91
ENDBRANCH  89  90
ENDBRANCH  88  89
ENDBRANCH  87  88
ENDBRANCH  86  87
ENDBRANCH  85  86
ENDBRANCH  84  85
ENDBRANCH  83  84
ENDBRANCH  82  83
ENDBRANCH  81  82
ENDBRANCH  80  81
ENDBRANCH  79  80
ENDBRANCH  77  79
BRANCH  76 144
HETATM  144  O   UNK N   1      31.052  14.143   6.072  0.00  0.00    -0.327 OA
HETATM  145  H   UNK N   1      30.747  14.838   6.623  0.00  0.00     0.221 HD
ENDBRANCH  76 144
ENDBRANCH  75  76
ENDBRANCH  74  75
ENDBRANCH   1  74
BRANCH   1 146
HETATM  146  N   UNK N   1      29.800  12.918   1.263  0.00  0.00    -0.422 N 
HETATM  147  H   UNK N   1      29.687  13.028   0.256  0.00  0.00     0.150 HD
HETATM  148  H   UNK N   1      30.759  12.905   1.611  0.00  0.00     0.150 HD
ENDBRANCH   1 146
TORSDOF 77
ENDMDL
MODEL 6
REMARK VINA RESULT:      -5.8      2.939     13.177
REMARK WARNING: 32 MAX_TORS EXCEEDED!!!
REMARK  77 active torsions:
REMARK  status: ('A' for Active; 'I' for Inactive)
REMARK    1  A    between atoms: C_9  and  C_1 
REMARK    2  A    between atoms: C_17  and  C_1 
REMARK    3  A    between atoms: C_10  and  C_2 
REMARK    4  A    between atoms: C_18  and  C_2 
REMARK    5  A    between atoms: C_11  and  C_3 
REMARK    6  A    between atoms: C_19  and  C_3 
REMARK    7  A    between atoms: C_12  and  C_4 
REMARK    8  A    between atoms: C_20  and  C_4 
REMARK    9  A    between atoms: C_13  and  C_5 
REMARK   10  A    between atoms: C_29  and  C_5 
REMARK   11  A    between atoms: C_14  and  C_6 
REMARK   12  A    between atoms: C_30  and  C_6 
REMARK   13  A    between atoms: C_15  and  C_7 
REMARK   14  A    between atoms: C_31  and  C_7 
REMARK   15  A    between atoms: C_16  and  C_8 
REMARK   16  A    between atoms: C_32  and  C_8 
REMARK   17  A    between atoms: N_81  and  C_9 
REMARK   18  A    between atoms: N_82  and  C_10 
REMARK   19  A    between atoms: N_85  and  C_11 
REMARK   20  A    between atoms: N_87  and  C_12 
REMARK   21  A    between atoms: N_83  and  C_13 
REMARK   22  A    between atoms: N_84  and  C_14 
REMARK   23  A    between atoms: N_89  and  C_15 
REMARK   24  A    between atoms: N_91  and  C_16 
REMARK   25  A    between atoms: N_93  and  C_17 
REMARK   26  A    between atoms: N_94  and  C_18 
REMARK   27  A    between atoms: N_95  and  C_19 
REMARK   28  A    between atoms: N_96  and  C_20 
REMARK   29  A    between atoms: O_119  and  C_29 
REMARK   30  A    between atoms: O_120  and  C_30 
REMARK   31  A    between atoms: O_121  and  C_31 
REMARK   32  A    between atoms: O_122  and  C_32 
REMARK   33  A    between atoms: C_37  and  C_33 
REMARK   34  A    between atoms: O_119  and  C_33 
REMARK   35  A    between atoms: C_38  and  C_34 
REMARK   36  A    between atoms: O_120  and  C_34 
REMARK   37  A    between atoms: C_39  and  C_35 
REMARK   38  A    between atoms: O_121  and  C_35 
REMARK   39  A    between atoms: C_40  and  C_36 
REMARK   40  A    between atoms: O_122  and  C_36 
REMARK   41  A    between atoms: O_123  and  C_37 
REMARK   42  A    between atoms: O_124  and  C_38 
REMARK   43  A    between atoms: O_123  and  C_39 
REMARK   44  A    between atoms: O_124  and  C_40 
REMARK   45  A    between atoms: C_58  and  C_47 
REMARK   46  A    between atoms: O_99  and  C_47 
REMARK   47  A    between atoms: C_59  and  C_48 
REMARK   48  A    between atoms: O_100  and  C_48 
REMARK   49  A    between atoms: C_53  and  C_49 
REMARK   50  A    between atoms: O_125  and  C_49 
REMARK   51  A    between atoms: C_53  and  C_50 
REMARK   52  A    between atoms: O_126  and  C_50 
REMARK   53  A    between atoms: C_74  and  C_51 
REMARK   54  A    between atoms: C_75  and  C_52 
REMARK   55  A    between atoms: N_80  and  C_53 
REMARK   56  A    between atoms: N_97  and  C_54 
REMARK   57  A    between atoms: N_98  and  C_55 
REMARK   58  A    between atoms: O_127  and  C_56 
REMARK   59  A    between atoms: O_128  and  C_57 
REMARK   60  A    between atoms: N_81  and  C_60 
REMARK   61  A    between atoms: N_82  and  C_61 
REMARK   62  A    between atoms: N_83  and  C_62 
REMARK   63  A    between atoms: N_84  and  C_63 
REMARK   64  A    between atoms: C_64  and  O_101 
REMARK   65  A    between atoms: O_102  and  C_65 
REMARK   66  A    between atoms: C_70  and  O_107 
REMARK   67  A    between atoms: O_108  and  C_71 
REMARK   68  A    between atoms: C_72  and  O_109 
REMARK   69  A    between atoms: O_110  and  C_73 
REMARK   70  A    between atoms: O_111  and  C_74 
REMARK   71  A    between atoms: O_112  and  C_75 
REMARK   72  A    between atoms: C_76  and  O_127 
REMARK   73  A    between atoms: O_128  and  C_77 
REMARK   74  A    between atoms: O_113  and  C_78 
REMARK   75  A    between atoms: O_125  and  C_78 
REMARK   76  A    between atoms: O_114  and  C_79 
REMARK   77  A    between atoms: O_126  and  C_79 
ROOT
HETATM    1  C   UNK N   1      29.099  13.125   2.278  0.00  0.00     0.123 C 
ENDROOT
BRANCH   1   2
HETATM    2  C   UNK N   1      28.741  11.881   1.430  0.00  0.00     0.206 C 
BRANCH   2   3
HETATM    3  O   UNK N   1      27.645  11.162   1.885  0.00  0.00    -0.315 OA
BRANCH   3   4
HETATM    4  C   UNK N   1      26.587  10.647   1.187  0.00  0.00     0.258 C 
HETATM    5  N   UNK N   1      25.470  11.271   1.013  0.00  0.00    -0.350 N 
ATOM      6  HN  UNK N   1      24.725  10.763   0.538  1.00  0.00     0.163 HD
BRANCH   5   7
HETATM    7  C   UNK N   1      25.177  12.625   1.427  0.00  0.00     0.126 C 
BRANCH   7   8
HETATM    8  C   UNK N   1      23.988  13.190   0.652  0.00  0.00     0.046 C 
BRANCH   8   9
HETATM    9  C   UNK N   1      23.543  14.545   1.200  0.00  0.00     0.169 C 
BRANCH   9  10
HETATM   10  O   UNK N   1      22.953  14.405   2.457  0.00  0.00    -0.389 OA
BRANCH  10  11
HETATM   11  C   UNK N   1      21.584  14.236   2.226  0.00  0.00     0.193 C 
BRANCH  11  12
HETATM   12  C   UNK N   1      21.025  13.278   3.274  0.00  0.00     0.193 C 
BRANCH  12  13
HETATM   13  O   UNK N   1      22.012  12.376   3.679  0.00  0.00    -0.387 OA
BRANCH  13  14
HETATM   14  C   UNK N   1      21.436  11.110   3.548  0.00  0.00     0.193 C 
BRANCH  14  15
HETATM   15  C   UNK N   1      21.865  10.494   2.224  0.00  0.00     0.193 C 
BRANCH  15  16
HETATM   16  O   UNK N   1      23.159   9.969   2.347  0.00  0.00    -0.389 OA
BRANCH  16  17
HETATM   17  C   UNK N   1      23.099   8.649   1.886  0.00  0.00     0.169 C 
BRANCH  17  18
HETATM   18  C   UNK N   1      23.438   7.671   3.002  0.00  0.00     0.046 C 
BRANCH  18  19
HETATM   19  C   UNK N   1      24.946   7.627   3.129  0.00  0.00     0.122 C 
BRANCH  19  20
HETATM   20  N   UNK N   1      25.443   8.574   4.090  0.00  0.00    -0.385 N 
HETATM   21  H   UNK N   1      26.356   8.918   3.964  0.00  0.00     0.159 HD
BRANCH  20  22
HETATM   22  C   UNK N   1      24.706   9.048   5.210  0.00  0.00     0.114 A 
HETATM   23  C   UNK N   1      24.397  10.304   5.500  0.00  0.00     0.114 A 
HETATM   24  C   UNK N   1      24.012   9.985   6.870  0.00  0.00     0.252 A 
HETATM   25  C   UNK N   1      24.344   8.607   6.578  0.00  0.00     0.252 A 
HETATM   26  O   UNK N   1      23.915  10.644   7.893  0.00  0.00    -0.281 OA
HETATM   27  O   UNK N   1      24.698   7.695   7.304  0.00  0.00    -0.281 OA
BRANCH  23  28
HETATM   28  N   UNK N   1      24.771  11.481   4.841  0.00  0.00    -0.385 N 
HETATM   29  H   UNK N   1      24.135  11.984   4.282  0.00  0.00     0.159 HD
BRANCH  28  30
HETATM   30  C   UNK N   1      26.117  11.918   5.018  0.00  0.00     0.121 C 
BRANCH  30  31
HETATM   31  C   UNK N   1      26.077  13.330   5.624  0.00  0.00     0.050 C 
BRANCH  31  32
HETATM   32  C   UNK N   1      26.258  14.448   4.600  0.00  0.00     0.274 C 
BRANCH  32  33
HETATM   33  N   UNK N   1      26.953  15.611   5.143  0.00  0.00     0.091 N 
HETATM   34  C   UNK N   1      28.397  15.342   5.035  0.00  0.00     0.302 C 
HETATM   35  C   UNK N   1      29.255  15.994   6.112  0.00  0.00     0.302 C 
HETATM   36  N   UNK N   1      28.599  17.139   6.720  0.00  0.00     0.091 N 
HETATM   37  C   UNK N   1      27.366  16.719   7.385  0.00  0.00     0.302 C 
HETATM   38  C   UNK N   1      26.404  15.958   6.472  0.00  0.00     0.302 C 
BRANCH  36  39
HETATM   39  C   UNK N   1      28.505  18.295   5.808  0.00  0.00     0.274 C 
BRANCH  39  40
HETATM   40  C   UNK N   1      27.492  19.364   6.226  0.00  0.00     0.050 C 
BRANCH  40  41
HETATM   41  C   UNK N   1      26.976  20.212   5.072  0.00  0.00     0.123 C 
BRANCH  41  42
HETATM   42  N   UNK N   1      25.543  20.130   4.832  0.00  0.00    -0.370 N 
HETATM   43  C   UNK N   1      25.030  19.210   4.092  0.00  0.00     0.146 C 
ATOM     44  HN  UNK N   1      24.928  20.820   5.262  1.00  0.00     0.161 HD
BRANCH  43  45
HETATM   45  C   UNK N   1      23.624  18.875   4.176  0.00  0.00     0.019 A 
HETATM   46  C   UNK N   1      22.558  19.476   3.497  0.00  0.00     0.052 A 
HETATM   47  C   UNK N   1      21.289  18.830   3.509  0.00  0.00     0.106 A 
HETATM   48  C   UNK N   1      21.146  17.577   4.176  0.00  0.00     0.073 A 
HETATM   49  C   UNK N   1      22.260  16.993   4.808  0.00  0.00     0.075 A 
HETATM   50  C   UNK N   1      23.436  17.678   4.783  0.00  0.00     0.052 A 
BRANCH  47  51
HETATM   51  N   UNK N   1      20.197  19.396   2.788  0.00  0.00    -0.116 N 
HETATM   52  O   UNK N   1      20.304  20.481   2.291  0.00  0.00    -0.532 OA
HETATM   53  O   UNK N   1      19.156  18.822   2.719  0.00  0.00    -0.532 OA
ENDBRANCH  47  51
BRANCH  49  54
HETATM   54  O   UNK N   1      22.239  15.747   5.372  0.00  0.00    -0.318 OA
BRANCH  54  55
HETATM   55  C   UNK N   1      22.148  15.474   6.760  0.00  0.00     0.298 C 
HETATM   56  C   UNK N   1      21.771  13.995   7.019  0.00  0.00     0.205 C 
HETATM   57  C   UNK N   1      21.522  13.772   8.533  0.00  0.00     0.183 C 
HETATM   58  C   UNK N   1      20.572  14.845   9.126  0.00  0.00     0.180 C 
HETATM   59  C   UNK N   1      20.134  15.835   8.043  0.00  0.00     0.179 C 
HETATM   60  O   UNK N   1      21.310  16.408   7.479  0.00  0.00    -0.348 OA
BRANCH  56  61
HETATM   61  O   UNK N   1      22.768  13.137   6.549  0.00  0.00    -0.388 OA
HETATM   62  H   UNK N   1      23.123  12.444   7.127  0.00  0.00     0.210 HD
ENDBRANCH  56  61
BRANCH  57  63
HETATM   63  O   UNK N   1      22.732  13.806   9.232  0.00  0.00    -0.390 OA
HETATM   64  H   UNK N   1      23.333  13.399   9.876  0.00  0.00     0.210 HD
ENDBRANCH  57  63
BRANCH  58  65
HETATM   65  O   UNK N   1      19.472  14.245   9.747  0.00  0.00    -0.390 OA
HETATM   66  H   UNK N   1      18.539  14.496   9.834  0.00  0.00     0.210 HD
ENDBRANCH  58  65
BRANCH  59  67
HETATM   67  C   UNK N   1      19.267  16.937   8.647  0.00  0.00     0.198 C 
BRANCH  67  68
HETATM   68  O   UNK N   1      17.972  16.479   8.902  0.00  0.00    -0.398 OA
HETATM   69  H   UNK N   1      17.349  15.797   8.605  0.00  0.00     0.209 HD
ENDBRANCH  67  68
ENDBRANCH  59  67
ENDBRANCH  54  55
ENDBRANCH  49  54
ENDBRANCH  43  45
BRANCH  43  70
HETATM   70  O   UNK N   1      25.820  18.303   3.481  0.00  0.00    -0.346 OA
HETATM   71  H   UNK N   1      26.620  17.816   3.505  0.00  0.00     0.219 HD
ENDBRANCH  43  70
ENDBRANCH  41  42
ENDBRANCH  40  41
ENDBRANCH  39  40
ENDBRANCH  36  39
ENDBRANCH  32  33
ENDBRANCH  31  32
ENDBRANCH  30  31
ENDBRANCH  28  30
ENDBRANCH  23  28
ENDBRANCH  20  22
ENDBRANCH  19  20
ENDBRANCH  18  19
ENDBRANCH  17  18
ENDBRANCH  16  17
ENDBRANCH  15  16
ENDBRANCH  14  15
ENDBRANCH  13  14
ENDBRANCH  12  13
ENDBRANCH  11  12
ENDBRANCH  10  11
ENDBRANCH   9  10
ENDBRANCH   8   9
ENDBRANCH   7   8
ENDBRANCH   5   7
BRANCH   4  72
HETATM   72  O   UNK N   1      26.724   9.424   0.640  0.00  0.00    -0.327 OA
HETATM   73  H   UNK N   1      26.423   8.624   1.023  0.00  0.00     0.221 HD
ENDBRANCH   4  72
ENDBRANCH   3   4
ENDBRANCH   2   3
ENDBRANCH   1   2
BRANCH   1  74
HETATM   74  C   UNK N   1      30.590  13.318   2.553  0.00  0.00     0.206 C 
BRANCH  74  75
HETATM   75  O   UNK N   1      30.865  13.367   3.899  0.00  0.00    -0.315 OA
BRANCH  75  76
HETATM   76  C   UNK N   1      31.884  14.144   4.326  0.00  0.00     0.258 C 
HETATM   77  N   UNK N   1      32.360  15.063   3.557  0.00  0.00    -0.350 N 
ATOM     78  HN  UNK N   1      32.004  15.148   2.605  1.00  0.00     0.163 HD
BRANCH  77  79
HETATM   79  C   UNK N   1      33.386  15.977   4.011  0.00  0.00     0.126 C 
BRANCH  79  80
HETATM   80  C   UNK N   1      32.754  17.158   4.740  0.00  0.00     0.046 C 
BRANCH  80  81
HETATM   81  C   UNK N   1      33.475  17.417   6.050  0.00  0.00     0.169 C 
BRANCH  81  82
HETATM   82  O   UNK N   1      33.304  16.321   6.901  0.00  0.00    -0.389 OA
BRANCH  82  83
HETATM   83  C   UNK N   1      34.156  16.547   7.989  0.00  0.00     0.193 C 
BRANCH  83  84
HETATM   84  C   UNK N   1      33.788  15.632   9.144  0.00  0.00     0.193 C 
BRANCH  84  85
HETATM   85  O   UNK N   1      34.223  14.336   8.858  0.00  0.00    -0.387 OA
BRANCH  85  86
HETATM   86  C   UNK N   1      33.105  13.513   9.002  0.00  0.00     0.193 C 
BRANCH  86  87
HETATM   87  C   UNK N   1      33.398  12.102   8.497  0.00  0.00     0.193 C 
BRANCH  87  88
HETATM   88  O   UNK N   1      32.675  11.153   9.229  0.00  0.00    -0.389 OA
BRANCH  88  89
HETATM   89  C   UNK N   1      33.569  10.104   9.469  0.00  0.00     0.169 C 
BRANCH  89  90
HETATM   90  C   UNK N   1      33.362   9.576  10.882  0.00  0.00     0.046 C 
BRANCH  90  91
HETATM   91  C   UNK N   1      34.402  10.166  11.829  0.00  0.00     0.122 C 
BRANCH  91  92
HETATM   92  N   UNK N   1      34.124  11.561  12.004  0.00  0.00    -0.385 N 
HETATM   93  H   UNK N   1      33.319  11.954  11.596  0.00  0.00     0.159 HD
BRANCH  92  94
HETATM   94  C   UNK N   1      34.995  12.381  12.756  0.00  0.00     0.114 A 
HETATM   95  C   UNK N   1      35.894  13.245  12.299  0.00  0.00     0.114 A 
HETATM   96  C   UNK N   1      36.081  13.851  13.624  0.00  0.00     0.252 A 
HETATM   97  C   UNK N   1      35.078  12.923  14.119  0.00  0.00     0.252 A 
HETATM   98  O   UNK N   1      36.650  14.838  14.064  0.00  0.00    -0.281 OA
HETATM   99  O   UNK N   1      34.425  12.814  15.145  0.00  0.00    -0.281 OA
BRANCH  95 100
HETATM  100  N   UNK N   1      36.218  13.537  10.957  0.00  0.00    -0.385 N 
HETATM  101  H   UNK N   1      35.492  13.721  10.318  0.00  0.00     0.159 HD
BRANCH 100 102
HETATM  102  C   UNK N   1      37.575  13.574  10.502  0.00  0.00     0.121 C 
BRANCH 102 103
HETATM  103  C   UNK N   1      38.110  12.159  10.429  0.00  0.00     0.050 C 
BRANCH 103 104
HETATM  104  C   UNK N   1      38.671  11.928   9.035  0.00  0.00     0.274 C 
BRANCH 104 105
HETATM  105  N   UNK N   1      40.049  11.426   9.046  0.00  0.00     0.091 N 
HETATM  106  C   UNK N   1      40.822  11.752   7.837  0.00  0.00     0.302 C 
HETATM  107  C   UNK N   1      40.733  10.719   6.696  0.00  0.00     0.302 C 
HETATM  108  N   UNK N   1      39.581   9.826   6.807  0.00  0.00     0.091 N 
HETATM  109  C   UNK N   1      39.535   9.161   8.117  0.00  0.00     0.302 C 
HETATM  110  C   UNK N   1      40.045   9.989   9.305  0.00  0.00     0.302 C 
BRANCH 108 111
HETATM  111  C   UNK N   1      38.340  10.546   6.521  0.00  0.00     0.274 C 
BRANCH 111 112
HETATM  112  C   UNK N   1      38.119  10.703   5.026  0.00  0.00     0.050 C 
BRANCH 112 113
HETATM  113  C   UNK N   1      38.130  12.168   4.623  0.00  0.00     0.123 C 
BRANCH 113 114
HETATM  114  N   UNK N   1      37.277  12.978   5.469  0.00  0.00    -0.370 N 
HETATM  115  C   UNK N   1      36.029  13.201   5.233  0.00  0.00     0.146 C 
ATOM    116  HN  UNK N   1      37.689  13.397   6.302  1.00  0.00     0.161 HD
BRANCH 115 117
HETATM  117  C   UNK N   1      35.346  12.670   4.043  0.00  0.00     0.019 A 
HETATM  118  C   UNK N   1      35.529  13.251   2.776  0.00  0.00     0.052 A 
HETATM  119  C   UNK N   1      34.794  12.800   1.667  0.00  0.00     0.106 A 
HETATM  120  C   UNK N   1      33.884  11.772   1.855  0.00  0.00     0.073 A 
HETATM  121  C   UNK N   1      33.648  11.244   3.125  0.00  0.00     0.075 A 
HETATM  122  C   UNK N   1      34.371  11.699   4.217  0.00  0.00     0.052 A 
BRANCH 119 123
HETATM  123  N   UNK N   1      34.846  13.467   0.406  0.00  0.00    -0.116 N 
HETATM  124  O   UNK N   1      34.221  13.042  -0.520  0.00  0.00    -0.532 OA
HETATM  125  O   UNK N   1      35.382  14.528   0.308  0.00  0.00    -0.532 OA
ENDBRANCH 119 123
BRANCH 121 126
HETATM  126  O   UNK N   1      32.555  10.500   3.345  0.00  0.00    -0.318 OA
BRANCH 126 127
HETATM  127  C   UNK N   1      32.566   9.641   4.432  0.00  0.00     0.298 C 
HETATM  128  C   UNK N   1      31.611  10.113   5.587  0.00  0.00     0.205 C 
HETATM  129  C   UNK N   1      31.477   8.956   6.544  0.00  0.00     0.183 C 
HETATM  130  C   UNK N   1      30.829   7.761   5.816  0.00  0.00     0.180 C 
HETATM  131  C   UNK N   1      31.138   7.779   4.288  0.00  0.00     0.179 C 
HETATM  132  O   UNK N   1      32.418   8.289   4.006  0.00  0.00    -0.348 OA
BRANCH 128 133
HETATM  133  O   UNK N   1      30.356  10.497   5.097  0.00  0.00    -0.388 OA
HETATM  134  H   UNK N   1      29.734  10.865   4.451  0.00  0.00     0.210 HD
ENDBRANCH 128 133
BRANCH 129 135
HETATM  135  O   UNK N   1      30.760   9.316   7.688  0.00  0.00    -0.390 OA
HETATM  136  H   UNK N   1      30.342  10.188   7.759  0.00  0.00     0.210 HD
ENDBRANCH 129 135
BRANCH 130 137
HETATM  137  O   UNK N   1      29.439   7.783   5.971  0.00  0.00    -0.390 OA
HETATM  138  H   UNK N   1      28.720   7.654   5.333  0.00  0.00     0.210 HD
ENDBRANCH 130 137
BRANCH 131 139
HETATM  139  C   UNK N   1      31.004   6.386   3.692  0.00  0.00     0.198 C 
BRANCH 139 140
HETATM  140  O   UNK N   1      29.657   6.034   3.580  0.00  0.00    -0.398 OA
HETATM  141  H   UNK N   1      28.769   6.047   3.187  0.00  0.00     0.209 HD
ENDBRANCH 139 140
ENDBRANCH 131 139
ENDBRANCH 126 127
ENDBRANCH 121 126
ENDBRANCH 115 117
BRANCH 115 142
HETATM  142  O   UNK N   1      35.304  13.880   6.143  0.00  0.00    -0.346 OA
HETATM  143  H   UNK N   1      34.861  13.987   6.962  0.00  0.00     0.219 HD
ENDBRANCH 115 142
ENDBRANCH 113 114
ENDBRANCH 112 113
ENDBRANCH 111 112
ENDBRANCH 108 111
ENDBRANCH 104 105
ENDBRANCH 103 104
ENDBRANCH 102 103
ENDBRANCH 100 102
ENDBRANCH  95 100
ENDBRANCH  92  94
ENDBRANCH  91  92
ENDBRANCH  90  91
ENDBRANCH  89  90
ENDBRANCH  88  89
ENDBRANCH  87  88
ENDBRANCH  86  87
ENDBRANCH  85  86
ENDBRANCH  84  85
ENDBRANCH  83  84
ENDBRANCH  82  83
ENDBRANCH  81  82
ENDBRANCH  80  81
ENDBRANCH  79  80
ENDBRANCH  77  79
BRANCH  76 144
HETATM  144  O   UNK N   1      32.345  14.004   5.588  0.00  0.00    -0.327 OA
HETATM  145  H   UNK N   1      33.223  13.814   5.857  0.00  0.00     0.221 HD
ENDBRANCH  76 144
ENDBRANCH  75  76
ENDBRANCH  74  75
ENDBRANCH   1  74
BRANCH   1 146
HETATM  146  N   UNK N   1      28.624  14.295   1.565  0.00  0.00    -0.422 N 
HETATM  147  H   UNK N   1      27.657  14.593   1.439  0.00  0.00     0.150 HD
HETATM  148  H   UNK N   1      29.338  14.888   1.142  0.00  0.00     0.150 HD
ENDBRANCH   1 146
TORSDOF 77
ENDMDL
MODEL 7
REMARK VINA RESULT:      -5.8      2.593      8.490
REMARK WARNING: 32 MAX_TORS EXCEEDED!!!
REMARK  77 active torsions:
REMARK  status: ('A' for Active; 'I' for Inactive)
REMARK    1  A    between atoms: C_9  and  C_1 
REMARK    2  A    between atoms: C_17  and  C_1 
REMARK    3  A    between atoms: C_10  and  C_2 
REMARK    4  A    between atoms: C_18  and  C_2 
REMARK    5  A    between atoms: C_11  and  C_3 
REMARK    6  A    between atoms: C_19  and  C_3 
REMARK    7  A    between atoms: C_12  and  C_4 
REMARK    8  A    between atoms: C_20  and  C_4 
REMARK    9  A    between atoms: C_13  and  C_5 
REMARK   10  A    between atoms: C_29  and  C_5 
REMARK   11  A    between atoms: C_14  and  C_6 
REMARK   12  A    between atoms: C_30  and  C_6 
REMARK   13  A    between atoms: C_15  and  C_7 
REMARK   14  A    between atoms: C_31  and  C_7 
REMARK   15  A    between atoms: C_16  and  C_8 
REMARK   16  A    between atoms: C_32  and  C_8 
REMARK   17  A    between atoms: N_81  and  C_9 
REMARK   18  A    between atoms: N_82  and  C_10 
REMARK   19  A    between atoms: N_85  and  C_11 
REMARK   20  A    between atoms: N_87  and  C_12 
REMARK   21  A    between atoms: N_83  and  C_13 
REMARK   22  A    between atoms: N_84  and  C_14 
REMARK   23  A    between atoms: N_89  and  C_15 
REMARK   24  A    between atoms: N_91  and  C_16 
REMARK   25  A    between atoms: N_93  and  C_17 
REMARK   26  A    between atoms: N_94  and  C_18 
REMARK   27  A    between atoms: N_95  and  C_19 
REMARK   28  A    between atoms: N_96  and  C_20 
REMARK   29  A    between atoms: O_119  and  C_29 
REMARK   30  A    between atoms: O_120  and  C_30 
REMARK   31  A    between atoms: O_121  and  C_31 
REMARK   32  A    between atoms: O_122  and  C_32 
REMARK   33  A    between atoms: C_37  and  C_33 
REMARK   34  A    between atoms: O_119  and  C_33 
REMARK   35  A    between atoms: C_38  and  C_34 
REMARK   36  A    between atoms: O_120  and  C_34 
REMARK   37  A    between atoms: C_39  and  C_35 
REMARK   38  A    between atoms: O_121  and  C_35 
REMARK   39  A    between atoms: C_40  and  C_36 
REMARK   40  A    between atoms: O_122  and  C_36 
REMARK   41  A    between atoms: O_123  and  C_37 
REMARK   42  A    between atoms: O_124  and  C_38 
REMARK   43  A    between atoms: O_123  and  C_39 
REMARK   44  A    between atoms: O_124  and  C_40 
REMARK   45  A    between atoms: C_58  and  C_47 
REMARK   46  A    between atoms: O_99  and  C_47 
REMARK   47  A    between atoms: C_59  and  C_48 
REMARK   48  A    between atoms: O_100  and  C_48 
REMARK   49  A    between atoms: C_53  and  C_49 
REMARK   50  A    between atoms: O_125  and  C_49 
REMARK   51  A    between atoms: C_53  and  C_50 
REMARK   52  A    between atoms: O_126  and  C_50 
REMARK   53  A    between atoms: C_74  and  C_51 
REMARK   54  A    between atoms: C_75  and  C_52 
REMARK   55  A    between atoms: N_80  and  C_53 
REMARK   56  A    between atoms: N_97  and  C_54 
REMARK   57  A    between atoms: N_98  and  C_55 
REMARK   58  A    between atoms: O_127  and  C_56 
REMARK   59  A    between atoms: O_128  and  C_57 
REMARK   60  A    between atoms: N_81  and  C_60 
REMARK   61  A    between atoms: N_82  and  C_61 
REMARK   62  A    between atoms: N_83  and  C_62 
REMARK   63  A    between atoms: N_84  and  C_63 
REMARK   64  A    between atoms: C_64  and  O_101 
REMARK   65  A    between atoms: O_102  and  C_65 
REMARK   66  A    between atoms: C_70  and  O_107 
REMARK   67  A    between atoms: O_108  and  C_71 
REMARK   68  A    between atoms: C_72  and  O_109 
REMARK   69  A    between atoms: O_110  and  C_73 
REMARK   70  A    between atoms: O_111  and  C_74 
REMARK   71  A    between atoms: O_112  and  C_75 
REMARK   72  A    between atoms: C_76  and  O_127 
REMARK   73  A    between atoms: O_128  and  C_77 
REMARK   74  A    between atoms: O_113  and  C_78 
REMARK   75  A    between atoms: O_125  and  C_78 
REMARK   76  A    between atoms: O_114  and  C_79 
REMARK   77  A    between atoms: O_126  and  C_79 
ROOT
HETATM    1  C   UNK N   1      36.146  13.347  11.653  0.00  0.00     0.123 C 
ENDROOT
BRANCH   1   2
HETATM    2  C   UNK N   1      35.371  12.785  12.868  0.00  0.00     0.206 C 
BRANCH   2   3
HETATM    3  O   UNK N   1      35.247  13.661  13.937  0.00  0.00    -0.315 OA
BRANCH   3   4
HETATM    4  C   UNK N   1      36.092  13.880  14.989  0.00  0.00     0.258 C 
HETATM    5  N   UNK N   1      35.880  13.442  16.185  0.00  0.00    -0.350 N 
ATOM      6  HN  UNK N   1      36.541  13.727  16.907  1.00  0.00     0.163 HD
BRANCH   5   7
HETATM    7  C   UNK N   1      34.792  12.583  16.596  0.00  0.00     0.126 C 
BRANCH   7   8
HETATM    8  C   UNK N   1      35.095  11.121  16.269  0.00  0.00     0.046 C 
BRANCH   8   9
HETATM    9  C   UNK N   1      36.435  10.673  16.850  0.00  0.00     0.169 C 
BRANCH   9  10
HETATM   10  O   UNK N   1      37.036   9.712  16.035  0.00  0.00    -0.389 OA
BRANCH  10  11
HETATM   11  C   UNK N   1      37.521  10.401  14.918  0.00  0.00     0.193 C 
BRANCH  11  12
HETATM   12  C   UNK N   1      38.169   9.398  13.968  0.00  0.00     0.193 C 
BRANCH  12  13
HETATM   13  O   UNK N   1      37.191   8.608  13.358  0.00  0.00    -0.387 OA
BRANCH  13  14
HETATM   14  C   UNK N   1      36.722   9.362  12.280  0.00  0.00     0.193 C 
BRANCH  14  15
HETATM   15  C   UNK N   1      37.705   9.255  11.123  0.00  0.00     0.193 C 
BRANCH  15  16
HETATM   16  O   UNK N   1      38.017  10.537  10.650  0.00  0.00    -0.389 OA
BRANCH  16  17
HETATM   17  C   UNK N   1      38.361  10.392   9.301  0.00  0.00     0.169 C 
BRANCH  17  18
HETATM   18  C   UNK N   1      38.259  11.724   8.571  0.00  0.00     0.046 C 
BRANCH  18  19
HETATM   19  C   UNK N   1      36.790  12.005   8.336  0.00  0.00     0.122 C 
BRANCH  19  20
HETATM   20  N   UNK N   1      35.985  10.816   8.422  0.00  0.00    -0.385 N 
HETATM   21  H   UNK N   1      36.368   9.978   8.077  0.00  0.00     0.159 HD
BRANCH  20  22
HETATM   22  C   UNK N   1      34.675  10.767   8.972  0.00  0.00     0.114 A 
HETATM   23  C   UNK N   1      34.019   9.699   9.401  0.00  0.00     0.114 A 
HETATM   24  C   UNK N   1      32.737  10.392   9.437  0.00  0.00     0.252 A 
HETATM   25  C   UNK N   1      33.430  11.571   8.967  0.00  0.00     0.252 A 
HETATM   26  O   UNK N   1      31.575  10.017   9.418  0.00  0.00    -0.281 OA
HETATM   27  O   UNK N   1      33.037  12.536   8.334  0.00  0.00    -0.281 OA
BRANCH  23  28
HETATM   28  N   UNK N   1      34.399   8.352   9.359  0.00  0.00    -0.385 N 
HETATM   29  H   UNK N   1      35.122   8.037   8.770  0.00  0.00     0.159 HD
BRANCH  28  30
HETATM   30  C   UNK N   1      33.688   7.457  10.213  0.00  0.00     0.121 C 
BRANCH  30  31
HETATM   31  C   UNK N   1      32.839   6.534   9.324  0.00  0.00     0.050 C 
BRANCH  31  32
HETATM   32  C   UNK N   1      32.019   5.508  10.103  0.00  0.00     0.274 C 
BRANCH  32  33
HETATM   33  N   UNK N   1      30.675   5.326   9.565  0.00  0.00     0.091 N 
HETATM   34  C   UNK N   1      30.053   6.660   9.495  0.00  0.00     0.302 C 
HETATM   35  C   UNK N   1      28.538   6.672   9.668  0.00  0.00     0.302 C 
HETATM   36  N   UNK N   1      27.938   5.386   9.361  0.00  0.00     0.091 N 
HETATM   37  C   UNK N   1      28.441   4.363  10.278  0.00  0.00     0.302 C 
HETATM   38  C   UNK N   1      29.966   4.263  10.309  0.00  0.00     0.302 C 
BRANCH  36  39
HETATM   39  C   UNK N   1      27.975   5.067   7.920  0.00  0.00     0.274 C 
BRANCH  39  40
HETATM   40  C   UNK N   1      27.336   6.121   7.011  0.00  0.00     0.050 C 
BRANCH  40  41
HETATM   41  C   UNK N   1      25.834   6.275   7.205  0.00  0.00     0.123 C 
BRANCH  41  42
HETATM   42  N   UNK N   1      25.306   7.603   6.928  0.00  0.00    -0.370 N 
HETATM   43  C   UNK N   1      24.050   7.868   7.028  0.00  0.00     0.146 C 
ATOM     44  HN  UNK N   1      25.948   8.344   6.648  1.00  0.00     0.161 HD
BRANCH  43  45
HETATM   45  C   UNK N   1      23.577   9.231   7.158  0.00  0.00     0.019 A 
HETATM   46  C   UNK N   1      23.995  10.198   8.079  0.00  0.00     0.052 A 
HETATM   47  C   UNK N   1      23.606  11.552   7.872  0.00  0.00     0.106 A 
HETATM   48  C   UNK N   1      22.839  11.892   6.719  0.00  0.00     0.073 A 
HETATM   49  C   UNK N   1      22.480  10.889   5.799  0.00  0.00     0.075 A 
HETATM   50  C   UNK N   1      22.860   9.611   6.073  0.00  0.00     0.052 A 
BRANCH  47  51
HETATM   51  N   UNK N   1      24.055  12.565   8.769  0.00  0.00    -0.116 N 
HETATM   52  O   UNK N   1      24.204  12.314   9.931  0.00  0.00    -0.532 OA
HETATM   53  O   UNK N   1      24.233  13.678   8.384  0.00  0.00    -0.532 OA
ENDBRANCH  47  51
BRANCH  49  54
HETATM   54  O   UNK N   1      21.844  11.144   4.615  0.00  0.00    -0.318 OA
BRANCH  54  55
HETATM   55  C   UNK N   1      20.874  12.156   4.405  0.00  0.00     0.298 C 
HETATM   56  C   UNK N   1      19.512  11.551   3.983  0.00  0.00     0.205 C 
HETATM   57  C   UNK N   1      18.526  12.684   3.605  0.00  0.00     0.183 C 
HETATM   58  C   UNK N   1      19.165  13.705   2.627  0.00  0.00     0.180 C 
HETATM   59  C   UNK N   1      20.606  13.305   2.297  0.00  0.00     0.179 C 
HETATM   60  O   UNK N   1      21.322  13.213   3.526  0.00  0.00    -0.348 OA
BRANCH  56  61
HETATM   61  O   UNK N   1      18.984  10.753   5.000  0.00  0.00    -0.388 OA
HETATM   62  H   UNK N   1      18.091  10.924   5.336  0.00  0.00     0.210 HD
ENDBRANCH  56  61
BRANCH  57  63
HETATM   63  O   UNK N   1      18.106  13.363   4.753  0.00  0.00    -0.390 OA
HETATM   64  H   UNK N   1      17.402  13.819   5.239  0.00  0.00     0.210 HD
ENDBRANCH  57  63
BRANCH  58  65
HETATM   65  O   UNK N   1      18.392  13.835   1.469  0.00  0.00    -0.390 OA
HETATM   66  H   UNK N   1      18.600  14.083   0.555  0.00  0.00     0.210 HD
ENDBRANCH  58  65
BRANCH  59  67
HETATM   67  C   UNK N   1      21.261  14.354   1.402  0.00  0.00     0.198 C 
BRANCH  67  68
HETATM   68  O   UNK N   1      22.592  14.570   1.768  0.00  0.00    -0.398 OA
HETATM   69  H   UNK N   1      23.475  14.194   1.629  0.00  0.00     0.209 HD
ENDBRANCH  67  68
ENDBRANCH  59  67
ENDBRANCH  54  55
ENDBRANCH  49  54
ENDBRANCH  43  45
BRANCH  43  70
HETATM   70  O   UNK N   1      23.171   6.901   7.363  0.00  0.00    -0.346 OA
HETATM   71  H   UNK N   1      23.040   6.061   7.756  0.00  0.00     0.219 HD
ENDBRANCH  43  70
ENDBRANCH  41  42
ENDBRANCH  40  41
ENDBRANCH  39  40
ENDBRANCH  36  39
ENDBRANCH  32  33
ENDBRANCH  31  32
ENDBRANCH  30  31
ENDBRANCH  28  30
ENDBRANCH  23  28
ENDBRANCH  20  22
ENDBRANCH  19  20
ENDBRANCH  18  19
ENDBRANCH  17  18
ENDBRANCH  16  17
ENDBRANCH  15  16
ENDBRANCH  14  15
ENDBRANCH  13  14
ENDBRANCH  12  13
ENDBRANCH  11  12
ENDBRANCH  10  11
ENDBRANCH   9  10
ENDBRANCH   8   9
ENDBRANCH   7   8
ENDBRANCH   5   7
BRANCH   4  72
HETATM   72  O   UNK N   1      37.218  14.584  14.761  0.00  0.00    -0.327 OA
HETATM   73  H   UNK N   1      37.672  14.627  13.943  0.00  0.00     0.221 HD
ENDBRANCH   4  72
ENDBRANCH   3   4
ENDBRANCH   2   3
ENDBRANCH   1   2
BRANCH   1  74
HETATM   74  C   UNK N   1      35.865  14.813  11.322  0.00  0.00     0.206 C 
BRANCH  74  75
HETATM   75  O   UNK N   1      35.322  14.964  10.068  0.00  0.00    -0.315 OA
BRANCH  75  76
HETATM   76  C   UNK N   1      34.010  15.266   9.961  0.00  0.00     0.258 C 
HETATM   77  N   UNK N   1      33.557  15.795   8.875  0.00  0.00    -0.350 N 
ATOM     78  HN  UNK N   1      34.210  16.041   8.132  1.00  0.00     0.163 HD
BRANCH  77  79
HETATM   79  C   UNK N   1      32.145  16.045   8.685  0.00  0.00     0.126 C 
BRANCH  79  80
HETATM   80  C   UNK N   1      31.937  17.380   7.978  0.00  0.00     0.046 C 
BRANCH  80  81
HETATM   81  C   UNK N   1      32.857  17.490   6.776  0.00  0.00     0.169 C 
BRANCH  81  82
HETATM   82  O   UNK N   1      32.153  17.149   5.616  0.00  0.00    -0.389 OA
BRANCH  82  83
HETATM   83  C   UNK N   1      33.033  17.388   4.554  0.00  0.00     0.193 C 
BRANCH  83  84
HETATM   84  C   UNK N   1      32.428  16.892   3.251  0.00  0.00     0.193 C 
BRANCH  84  85
HETATM   85  O   UNK N   1      33.378  16.131   2.565  0.00  0.00    -0.387 OA
BRANCH  85  86
HETATM   86  C   UNK N   1      33.298  14.844   3.099  0.00  0.00     0.193 C 
BRANCH  86  87
HETATM   87  C   UNK N   1      31.911  14.246   2.874  0.00  0.00     0.193 C 
BRANCH  87  88
HETATM   88  O   UNK N   1      31.541  13.434   3.952  0.00  0.00    -0.389 OA
BRANCH  88  89
HETATM   89  C   UNK N   1      31.036  12.261   3.381  0.00  0.00     0.169 C 
BRANCH  89  90
HETATM   90  C   UNK N   1      32.142  11.218   3.305  0.00  0.00     0.046 C 
BRANCH  90  91
HETATM   91  C   UNK N   1      33.052  11.316   4.526  0.00  0.00     0.122 C 
BRANCH  91  92
HETATM   92  N   UNK N   1      32.282  11.009   5.696  0.00  0.00    -0.385 N 
HETATM   93  H   UNK N   1      31.955  11.739   6.270  0.00  0.00     0.159 HD
BRANCH  92  94
HETATM   94  C   UNK N   1      31.989   9.670   6.037  0.00  0.00     0.114 A 
HETATM   95  C   UNK N   1      30.814   9.055   5.979  0.00  0.00     0.114 A 
HETATM   96  C   UNK N   1      31.424   7.731   6.159  0.00  0.00     0.252 A 
HETATM   97  C   UNK N   1      32.713   8.401   6.197  0.00  0.00     0.252 A 
HETATM   98  O   UNK N   1      31.045   6.573   6.080  0.00  0.00    -0.281 OA
HETATM   99  O   UNK N   1      33.880   8.047   6.138  0.00  0.00    -0.281 OA
BRANCH  95 100
HETATM  100  N   UNK N   1      29.569   9.592   5.587  0.00  0.00    -0.385 N 
HETATM  101  H   UNK N   1      29.157  10.297   6.136  0.00  0.00     0.159 HD
BRANCH 100 102
HETATM  102  C   UNK N   1      28.891   9.136   4.411  0.00  0.00     0.121 C 
BRANCH 102 103
HETATM  103  C   UNK N   1      27.444   9.579   4.472  0.00  0.00     0.050 C 
BRANCH 103 104
HETATM  104  C   UNK N   1      27.379  11.058   4.125  0.00  0.00     0.274 C 
BRANCH 104 105
HETATM  105  N   UNK N   1      26.814  11.311   2.795  0.00  0.00     0.091 N 
HETATM  106  C   UNK N   1      27.363  12.498   2.120  0.00  0.00     0.302 C 
HETATM  107  C   UNK N   1      26.621  13.820   2.399  0.00  0.00     0.302 C 
HETATM  108  N   UNK N   1      25.789  13.780   3.599  0.00  0.00     0.091 N 
HETATM  109  C   UNK N   1      24.849  12.651   3.569  0.00  0.00     0.302 C 
HETATM  110  C   UNK N   1      25.358  11.375   2.884  0.00  0.00     0.302 C 
BRANCH 108 111
HETATM  111  C   UNK N   1      26.620  13.760   4.803  0.00  0.00     0.274 C 
BRANCH 111 112
HETATM  112  C   UNK N   1      26.223  14.862   5.772  0.00  0.00     0.050 C 
BRANCH 112 113
HETATM  113  C   UNK N   1      27.359  15.850   5.974  0.00  0.00     0.123 C 
BRANCH 113 114
HETATM  114  N   UNK N   1      28.194  15.975   4.797  0.00  0.00    -0.370 N 
HETATM  115  C   UNK N   1      28.172  16.988   3.998  0.00  0.00     0.146 C 
ATOM    116  HN  UNK N   1      28.840  15.214   4.586  1.00  0.00     0.161 HD
BRANCH 115 117
HETATM  117  C   UNK N   1      27.255  18.121   4.193  0.00  0.00     0.019 A 
HETATM  118  C   UNK N   1      27.614  19.224   4.988  0.00  0.00     0.052 A 
HETATM  119  C   UNK N   1      26.692  20.251   5.249  0.00  0.00     0.106 A 
HETATM  120  C   UNK N   1      25.421  20.147   4.707  0.00  0.00     0.073 A 
HETATM  121  C   UNK N   1      25.040  19.020   3.980  0.00  0.00     0.075 A 
HETATM  122  C   UNK N   1      25.952  18.006   3.732  0.00  0.00     0.052 A 
BRANCH 119 123
HETATM  123  N   UNK N   1      26.976  21.303   6.171  0.00  0.00    -0.116 N 
HETATM  124  O   UNK N   1      28.109  21.626   6.377  0.00  0.00    -0.532 OA
HETATM  125  O   UNK N   1      26.091  21.964   6.621  0.00  0.00    -0.532 OA
ENDBRANCH 119 123
BRANCH 121 126
HETATM  126  O   UNK N   1      23.740  18.784   3.749  0.00  0.00    -0.318 OA
BRANCH 126 127
HETATM  127  C   UNK N   1      23.258  17.512   4.015  0.00  0.00     0.298 C 
HETATM  128  C   UNK N   1      23.164  17.209   5.554  0.00  0.00     0.205 C 
HETATM  129  C   UNK N   1      22.345  15.953   5.703  0.00  0.00     0.183 C 
HETATM  130  C   UNK N   1      20.925  16.196   5.153  0.00  0.00     0.180 C 
HETATM  131  C   UNK N   1      20.918  17.280   4.032  0.00  0.00     0.179 C 
HETATM  132  O   UNK N   1      22.085  17.248   3.248  0.00  0.00    -0.348 OA
BRANCH 128 133
HETATM  133  O   UNK N   1      22.572  18.269   6.254  0.00  0.00    -0.388 OA
HETATM  134  H   UNK N   1      22.074  18.684   6.976  0.00  0.00     0.210 HD
ENDBRANCH 128 133
BRANCH 129 135
HETATM  135  O   UNK N   1      22.317  15.511   7.028  0.00  0.00    -0.390 OA
HETATM  136  H   UNK N   1      21.924  16.058   7.726  0.00  0.00     0.210 HD
ENDBRANCH 129 135
BRANCH 130 137
HETATM  137  O   UNK N   1      20.068  16.628   6.170  0.00  0.00    -0.390 OA
HETATM  138  H   UNK N   1      19.676  16.159   6.922  0.00  0.00     0.210 HD
ENDBRANCH 130 137
BRANCH 131 139
HETATM  139  C   UNK N   1      19.700  17.124   3.135  0.00  0.00     0.198 C 
BRANCH 139 140
HETATM  140  O   UNK N   1      19.774  18.012   2.059  0.00  0.00    -0.398 OA
HETATM  141  H   UNK N   1      19.917  18.870   1.628  0.00  0.00     0.209 HD
ENDBRANCH 139 140
ENDBRANCH 131 139
ENDBRANCH 126 127
ENDBRANCH 121 126
ENDBRANCH 115 117
BRANCH 115 142
HETATM  142  O   UNK N   1      29.067  17.048   2.993  0.00  0.00    -0.346 OA
HETATM  143  H   UNK N   1      29.930  17.035   2.629  0.00  0.00     0.219 HD
ENDBRANCH 115 142
ENDBRANCH 113 114
ENDBRANCH 112 113
ENDBRANCH 111 112
ENDBRANCH 108 111
ENDBRANCH 104 105
ENDBRANCH 103 104
ENDBRANCH 102 103
ENDBRANCH 100 102
ENDBRANCH  95 100
ENDBRANCH  92  94
ENDBRANCH  91  92
ENDBRANCH  90  91
ENDBRANCH  89  90
ENDBRANCH  88  89
ENDBRANCH  87  88
ENDBRANCH  86  87
ENDBRANCH  85  86
ENDBRANCH  84  85
ENDBRANCH  83  84
ENDBRANCH  82  83
ENDBRANCH  81  82
ENDBRANCH  80  81
ENDBRANCH  79  80
ENDBRANCH  77  79
BRANCH  76 144
HETATM  144  O   UNK N   1      33.167  14.939  10.964  0.00  0.00    -0.327 OA
HETATM  145  H   UNK N   1      32.960  14.081  11.280  0.00  0.00     0.221 HD
ENDBRANCH  76 144
ENDBRANCH  75  76
ENDBRANCH  74  75
ENDBRANCH   1  74
BRANCH   1 146
HETATM  146  N   UNK N   1      37.563  13.222  11.939  0.00  0.00    -0.422 N 
HETATM  147  H   UNK N   1      38.300  12.931  11.297  0.00  0.00     0.150 HD
HETATM  148  H   UNK N   1      37.855  13.450  12.889  0.00  0.00     0.150 HD
ENDBRANCH   1 146
TORSDOF 77
ENDMDL
MODEL 8
REMARK VINA RESULT:      -5.8      2.892      9.172
REMARK WARNING: 32 MAX_TORS EXCEEDED!!!
REMARK  77 active torsions:
REMARK  status: ('A' for Active; 'I' for Inactive)
REMARK    1  A    between atoms: C_9  and  C_1 
REMARK    2  A    between atoms: C_17  and  C_1 
REMARK    3  A    between atoms: C_10  and  C_2 
REMARK    4  A    between atoms: C_18  and  C_2 
REMARK    5  A    between atoms: C_11  and  C_3 
REMARK    6  A    between atoms: C_19  and  C_3 
REMARK    7  A    between atoms: C_12  and  C_4 
REMARK    8  A    between atoms: C_20  and  C_4 
REMARK    9  A    between atoms: C_13  and  C_5 
REMARK   10  A    between atoms: C_29  and  C_5 
REMARK   11  A    between atoms: C_14  and  C_6 
REMARK   12  A    between atoms: C_30  and  C_6 
REMARK   13  A    between atoms: C_15  and  C_7 
REMARK   14  A    between atoms: C_31  and  C_7 
REMARK   15  A    between atoms: C_16  and  C_8 
REMARK   16  A    between atoms: C_32  and  C_8 
REMARK   17  A    between atoms: N_81  and  C_9 
REMARK   18  A    between atoms: N_82  and  C_10 
REMARK   19  A    between atoms: N_85  and  C_11 
REMARK   20  A    between atoms: N_87  and  C_12 
REMARK   21  A    between atoms: N_83  and  C_13 
REMARK   22  A    between atoms: N_84  and  C_14 
REMARK   23  A    between atoms: N_89  and  C_15 
REMARK   24  A    between atoms: N_91  and  C_16 
REMARK   25  A    between atoms: N_93  and  C_17 
REMARK   26  A    between atoms: N_94  and  C_18 
REMARK   27  A    between atoms: N_95  and  C_19 
REMARK   28  A    between atoms: N_96  and  C_20 
REMARK   29  A    between atoms: O_119  and  C_29 
REMARK   30  A    between atoms: O_120  and  C_30 
REMARK   31  A    between atoms: O_121  and  C_31 
REMARK   32  A    between atoms: O_122  and  C_32 
REMARK   33  A    between atoms: C_37  and  C_33 
REMARK   34  A    between atoms: O_119  and  C_33 
REMARK   35  A    between atoms: C_38  and  C_34 
REMARK   36  A    between atoms: O_120  and  C_34 
REMARK   37  A    between atoms: C_39  and  C_35 
REMARK   38  A    between atoms: O_121  and  C_35 
REMARK   39  A    between atoms: C_40  and  C_36 
REMARK   40  A    between atoms: O_122  and  C_36 
REMARK   41  A    between atoms: O_123  and  C_37 
REMARK   42  A    between atoms: O_124  and  C_38 
REMARK   43  A    between atoms: O_123  and  C_39 
REMARK   44  A    between atoms: O_124  and  C_40 
REMARK   45  A    between atoms: C_58  and  C_47 
REMARK   46  A    between atoms: O_99  and  C_47 
REMARK   47  A    between atoms: C_59  and  C_48 
REMARK   48  A    between atoms: O_100  and  C_48 
REMARK   49  A    between atoms: C_53  and  C_49 
REMARK   50  A    between atoms: O_125  and  C_49 
REMARK   51  A    between atoms: C_53  and  C_50 
REMARK   52  A    between atoms: O_126  and  C_50 
REMARK   53  A    between atoms: C_74  and  C_51 
REMARK   54  A    between atoms: C_75  and  C_52 
REMARK   55  A    between atoms: N_80  and  C_53 
REMARK   56  A    between atoms: N_97  and  C_54 
REMARK   57  A    between atoms: N_98  and  C_55 
REMARK   58  A    between atoms: O_127  and  C_56 
REMARK   59  A    between atoms: O_128  and  C_57 
REMARK   60  A    between atoms: N_81  and  C_60 
REMARK   61  A    between atoms: N_82  and  C_61 
REMARK   62  A    between atoms: N_83  and  C_62 
REMARK   63  A    between atoms: N_84  and  C_63 
REMARK   64  A    between atoms: C_64  and  O_101 
REMARK   65  A    between atoms: O_102  and  C_65 
REMARK   66  A    between atoms: C_70  and  O_107 
REMARK   67  A    between atoms: O_108  and  C_71 
REMARK   68  A    between atoms: C_72  and  O_109 
REMARK   69  A    between atoms: O_110  and  C_73 
REMARK   70  A    between atoms: O_111  and  C_74 
REMARK   71  A    between atoms: O_112  and  C_75 
REMARK   72  A    between atoms: C_76  and  O_127 
REMARK   73  A    between atoms: O_128  and  C_77 
REMARK   74  A    between atoms: O_113  and  C_78 
REMARK   75  A    between atoms: O_125  and  C_78 
REMARK   76  A    between atoms: O_114  and  C_79 
REMARK   77  A    between atoms: O_126  and  C_79 
ROOT
HETATM    1  C   UNK N   1      30.165  16.808   5.691  0.00  0.00     0.123 C 
ENDROOT
BRANCH   1   2
HETATM    2  C   UNK N   1      31.518  17.329   6.232  0.00  0.00     0.206 C 
BRANCH   2   3
HETATM    3  O   UNK N   1      32.088  16.547   7.226  0.00  0.00    -0.315 OA
BRANCH   3   4
HETATM    4  C   UNK N   1      32.277  16.821   8.552  0.00  0.00     0.258 C 
HETATM    5  N   UNK N   1      32.979  16.081   9.345  0.00  0.00    -0.350 N 
ATOM      6  HN  UNK N   1      32.993  16.342  10.331  1.00  0.00     0.163 HD
BRANCH   5   7
HETATM    7  C   UNK N   1      33.750  14.919   8.966  0.00  0.00     0.126 C 
BRANCH   7   8
HETATM    8  C   UNK N   1      32.839  13.719   8.704  0.00  0.00     0.046 C 
BRANCH   8   9
HETATM    9  C   UNK N   1      33.492  12.405   9.129  0.00  0.00     0.169 C 
BRANCH   9  10
HETATM   10  O   UNK N   1      32.554  11.373   9.173  0.00  0.00    -0.389 OA
BRANCH  10  11
HETATM   11  C   UNK N   1      33.246  10.206   8.832  0.00  0.00     0.193 C 
BRANCH  11  12
HETATM   12  C   UNK N   1      33.487  10.202   7.326  0.00  0.00     0.193 C 
BRANCH  12  13
HETATM   13  O   UNK N   1      32.276  10.334   6.642  0.00  0.00    -0.387 OA
BRANCH  13  14
HETATM   14  C   UNK N   1      32.615  10.812   5.374  0.00  0.00     0.193 C 
BRANCH  14  15
HETATM   15  C   UNK N   1      33.620  11.946   5.513  0.00  0.00     0.193 C 
BRANCH  15  16
HETATM   16  O   UNK N   1      33.379  12.912   4.527  0.00  0.00    -0.389 OA
BRANCH  16  17
HETATM   17  C   UNK N   1      33.581  14.158   5.131  0.00  0.00     0.169 C 
BRANCH  17  18
HETATM   18  C   UNK N   1      33.794  15.240   4.081  0.00  0.00     0.046 C 
BRANCH  18  19
HETATM   19  C   UNK N   1      33.166  14.754   2.792  0.00  0.00     0.122 C 
BRANCH  19  20
HETATM   20  N   UNK N   1      34.143  14.254   1.862  0.00  0.00    -0.385 N 
HETATM   21  H   UNK N   1      34.903  14.837   1.639  0.00  0.00     0.159 HD
BRANCH  20  22
HETATM   22  C   UNK N   1      34.086  12.975   1.243  0.00  0.00     0.114 A 
HETATM   23  C   UNK N   1      34.751  11.882   1.587  0.00  0.00     0.114 A 
HETATM   24  C   UNK N   1      34.448  11.198   0.335  0.00  0.00     0.252 A 
HETATM   25  C   UNK N   1      33.717  12.381  -0.064  0.00  0.00     0.252 A 
HETATM   26  O   UNK N   1      34.965  10.268  -0.264  0.00  0.00    -0.281 OA
HETATM   27  O   UNK N   1      33.458  12.831  -1.166  0.00  0.00    -0.281 OA
BRANCH  23  28
HETATM   28  N   UNK N   1      35.724  11.714   2.579  0.00  0.00    -0.385 N 
HETATM   29  H   UNK N   1      35.484  11.483   3.505  0.00  0.00     0.159 HD
BRANCH  28  30
HETATM   30  C   UNK N   1      37.083  11.895   2.183  0.00  0.00     0.121 C 
BRANCH  30  31
HETATM   31  C   UNK N   1      37.854  12.453   3.390  0.00  0.00     0.050 C 
BRANCH  31  32
HETATM   32  C   UNK N   1      37.032  13.394   4.268  0.00  0.00     0.274 C 
BRANCH  32  33
HETATM   33  N   UNK N   1      37.178  13.116   5.693  0.00  0.00     0.091 N 
HETATM   34  C   UNK N   1      38.218  14.024   6.207  0.00  0.00     0.302 C 
HETATM   35  C   UNK N   1      39.026  13.479   7.379  0.00  0.00     0.302 C 
HETATM   36  N   UNK N   1      38.320  12.429   8.092  0.00  0.00     0.091 N 
HETATM   37  C   UNK N   1      38.077  11.292   7.206  0.00  0.00     0.302 C 
HETATM   38  C   UNK N   1      37.346  11.664   5.916  0.00  0.00     0.302 C 
BRANCH  36  39
HETATM   39  C   UNK N   1      37.166  12.935   8.860  0.00  0.00     0.274 C 
BRANCH  39  40
HETATM   40  C   UNK N   1      37.069  12.414  10.296  0.00  0.00     0.050 C 
BRANCH  40  41
HETATM   41  C   UNK N   1      37.013  13.512  11.350  0.00  0.00     0.123 C 
BRANCH  41  42
HETATM   42  N   UNK N   1      37.042  13.050  12.730  0.00  0.00    -0.370 N 
HETATM   43  C   UNK N   1      36.730  13.824  13.711  0.00  0.00     0.146 C 
ATOM     44  HN  UNK N   1      37.317  12.088  12.925  1.00  0.00     0.161 HD
BRANCH  43  45
HETATM   45  C   UNK N   1      36.364  13.285  15.004  0.00  0.00     0.019 A 
HETATM   46  C   UNK N   1      36.159  13.987  16.197  0.00  0.00     0.052 A 
HETATM   47  C   UNK N   1      35.544  13.313  17.291  0.00  0.00     0.106 A 
HETATM   48  C   UNK N   1      35.120  11.960  17.130  0.00  0.00     0.073 A 
HETATM   49  C   UNK N   1      35.310  11.312  15.896  0.00  0.00     0.075 A 
HETATM   50  C   UNK N   1      35.930  12.006  14.903  0.00  0.00     0.052 A 
BRANCH  47  51
HETATM   51  N   UNK N   1      35.282  14.016  18.503  0.00  0.00    -0.116 N 
HETATM   52  O   UNK N   1      34.940  13.417  19.483  0.00  0.00    -0.532 OA
HETATM   53  O   UNK N   1      35.349  15.205  18.538  0.00  0.00    -0.532 OA
ENDBRANCH  47  51
BRANCH  49  54
HETATM   54  O   UNK N   1      34.835  10.059  15.622  0.00  0.00    -0.318 OA
BRANCH  54  55
HETATM   55  C   UNK N   1      35.630   8.932  15.293  0.00  0.00     0.298 C 
HETATM   56  C   UNK N   1      36.967   8.940  16.073  0.00  0.00     0.205 C 
HETATM   57  C   UNK N   1      37.876   7.789  15.572  0.00  0.00     0.183 C 
HETATM   58  C   UNK N   1      37.974   7.761  14.024  0.00  0.00     0.180 C 
HETATM   59  C   UNK N   1      37.143   8.892  13.412  0.00  0.00     0.179 C 
HETATM   60  O   UNK N   1      35.802   8.742  13.871  0.00  0.00    -0.348 OA
BRANCH  56  61
HETATM   61  O   UNK N   1      36.745   8.833  17.447  0.00  0.00    -0.388 OA
HETATM   62  H   UNK N   1      36.935   9.584  18.030  0.00  0.00     0.210 HD
ENDBRANCH  56  61
BRANCH  57  63
HETATM   63  O   UNK N   1      37.384   6.557  16.013  0.00  0.00    -0.390 OA
HETATM   64  H   UNK N   1      37.555   5.677  16.384  0.00  0.00     0.210 HD
ENDBRANCH  57  63
BRANCH  58  65
HETATM   65  O   UNK N   1      39.309   7.824  13.610  0.00  0.00    -0.390 OA
HETATM   66  H   UNK N   1      40.082   8.312  13.933  0.00  0.00     0.210 HD
ENDBRANCH  58  65
BRANCH  59  67
HETATM   67  C   UNK N   1      37.174   8.813  11.888  0.00  0.00     0.198 C 
BRANCH  67  68
HETATM   68  O   UNK N   1      38.377   9.310  11.380  0.00  0.00    -0.398 OA
HETATM   69  H   UNK N   1      38.773  10.143  11.078  0.00  0.00     0.209 HD
ENDBRANCH  67  68
ENDBRANCH  59  67
ENDBRANCH  54  55
ENDBRANCH  49  54
ENDBRANCH  43  45
BRANCH  43  70
HETATM   70  O   UNK N   1      36.396  15.111  13.488  0.00  0.00    -0.346 OA
HETATM   71  H   UNK N   1      35.721  15.718  13.256  0.00  0.00     0.219 HD
ENDBRANCH  43  70
ENDBRANCH  41  42
ENDBRANCH  40  41
ENDBRANCH  39  40
ENDBRANCH  36  39
ENDBRANCH  32  33
ENDBRANCH  31  32
ENDBRANCH  30  31
ENDBRANCH  28  30
ENDBRANCH  23  28
ENDBRANCH  20  22
ENDBRANCH  19  20
ENDBRANCH  18  19
ENDBRANCH  17  18
ENDBRANCH  16  17
ENDBRANCH  15  16
ENDBRANCH  14  15
ENDBRANCH  13  14
ENDBRANCH  12  13
ENDBRANCH  11  12
ENDBRANCH  10  11
ENDBRANCH   9  10
ENDBRANCH   8   9
ENDBRANCH   7   8
ENDBRANCH   5   7
BRANCH   4  72
HETATM   72  O   UNK N   1      31.708  17.932   9.058  0.00  0.00    -0.327 OA
HETATM   73  H   UNK N   1      31.717  18.180   9.960  0.00  0.00     0.221 HD
ENDBRANCH   4  72
ENDBRANCH   3   4
ENDBRANCH   2   3
ENDBRANCH   1   2
BRANCH   1  74
HETATM   74  C   UNK N   1      29.014  16.816   6.697  0.00  0.00     0.206 C 
BRANCH  74  75
HETATM   75  O   UNK N   1      29.180  17.778   7.665  0.00  0.00    -0.315 OA
BRANCH  75  76
HETATM   76  C   UNK N   1      28.201  18.690   7.849  0.00  0.00     0.258 C 
HETATM   77  N   UNK N   1      27.866  19.479   6.885  0.00  0.00    -0.350 N 
ATOM     78  HN  UNK N   1      28.393  19.450   6.013  1.00  0.00     0.163 HD
BRANCH  77  79
HETATM   79  C   UNK N   1      26.761  20.404   7.011  0.00  0.00     0.126 C 
BRANCH  79  80
HETATM   80  C   UNK N   1      26.870  21.503   5.959  0.00  0.00     0.046 C 
BRANCH  80  81
HETATM   81  C   UNK N   1      26.638  20.932   4.572  0.00  0.00     0.169 C 
BRANCH  81  82
HETATM   82  O   UNK N   1      25.360  20.366   4.509  0.00  0.00    -0.389 OA
BRANCH  82  83
HETATM   83  C   UNK N   1      24.918  20.572   3.197  0.00  0.00     0.193 C 
BRANCH  83  84
HETATM   84  C   UNK N   1      23.458  20.172   3.067  0.00  0.00     0.193 C 
BRANCH  84  85
HETATM   85  O   UNK N   1      22.709  21.289   2.691  0.00  0.00    -0.387 OA
BRANCH  85  86
HETATM   86  C   UNK N   1      21.489  20.796   2.227  0.00  0.00     0.193 C 
BRANCH  86  87
HETATM   87  C   UNK N   1      20.553  20.474   3.390  0.00  0.00     0.193 C 
BRANCH  87  88
HETATM   88  O   UNK N   1      19.722  19.393   3.072  0.00  0.00    -0.389 OA
BRANCH  88  89
HETATM   89  C   UNK N   1      20.315  18.778   1.964  0.00  0.00     0.169 C 
BRANCH  89  90
HETATM   90  C   UNK N   1      20.480  17.290   2.240  0.00  0.00     0.046 C 
BRANCH  90  91
HETATM   91  C   UNK N   1      19.912  16.935   3.610  0.00  0.00     0.122 C 
BRANCH  91  92
HETATM   92  N   UNK N   1      20.952  17.073   4.588  0.00  0.00    -0.385 N 
HETATM   93  H   UNK N   1      21.852  17.357   4.307  0.00  0.00     0.159 HD
BRANCH  92  94
HETATM   94  C   UNK N   1      20.700  16.805   5.952  0.00  0.00     0.114 A 
HETATM   95  C   UNK N   1      20.763  15.635   6.575  0.00  0.00     0.114 A 
HETATM   96  C   UNK N   1      20.701  16.264   7.901  0.00  0.00     0.252 A 
HETATM   97  C   UNK N   1      20.658  17.547   7.220  0.00  0.00     0.252 A 
HETATM   98  O   UNK N   1      20.852  15.894   9.055  0.00  0.00    -0.281 OA
HETATM   99  O   UNK N   1      20.782  18.715   7.555  0.00  0.00    -0.281 OA
BRANCH  95 100
HETATM  100  N   UNK N   1      21.073  14.372   6.028  0.00  0.00    -0.385 N 
HETATM  101  H   UNK N   1      21.982  14.011   6.137  0.00  0.00     0.159 HD
BRANCH 100 102
HETATM  102  C   UNK N   1      20.097  13.601   5.317  0.00  0.00     0.121 C 
BRANCH 102 103
HETATM  103  C   UNK N   1      20.808  12.591   4.440  0.00  0.00     0.050 C 
BRANCH 103 104
HETATM  104  C   UNK N   1      21.528  13.341   3.331  0.00  0.00     0.274 C 
BRANCH 104 105
HETATM  105  N   UNK N   1      20.683  13.575   2.155  0.00  0.00     0.091 N 
HETATM  106  C   UNK N   1      19.865  12.419   1.756  0.00  0.00     0.302 C 
HETATM  107  C   UNK N   1      20.530  11.450   0.759  0.00  0.00     0.302 C 
HETATM  108  N   UNK N   1      21.985  11.577   0.706  0.00  0.00     0.091 N 
HETATM  109  C   UNK N   1      22.399  12.961   0.442  0.00  0.00     0.302 C 
HETATM  110  C   UNK N   1      21.505  14.053   1.047  0.00  0.00     0.302 C 
BRANCH 108 111
HETATM  111  C   UNK N   1      22.595  11.053   1.929  0.00  0.00     0.274 C 
BRANCH 111 112
HETATM  112  C   UNK N   1      22.136   9.632   2.215  0.00  0.00     0.050 C 
BRANCH 112 113
HETATM  113  C   UNK N   1      23.301   8.759   2.650  0.00  0.00     0.123 C 
BRANCH 113 114
HETATM  114  N   UNK N   1      23.130   8.243   3.993  0.00  0.00    -0.370 N 
HETATM  115  C   UNK N   1      23.752   8.699   5.027  0.00  0.00     0.146 C 
ATOM    116  HN  UNK N   1      22.477   7.472   4.129  1.00  0.00     0.161 HD
BRANCH 115 117
HETATM  117  C   UNK N   1      24.737   9.787   4.934  0.00  0.00     0.019 A 
HETATM  118  C   UNK N   1      26.086   9.528   4.631  0.00  0.00     0.052 A 
HETATM  119  C   UNK N   1      27.036  10.562   4.646  0.00  0.00     0.106 A 
HETATM  120  C   UNK N   1      26.612  11.841   4.971  0.00  0.00     0.073 A 
HETATM  121  C   UNK N   1      25.290  12.086   5.342  0.00  0.00     0.075 A 
HETATM  122  C   UNK N   1      24.358  11.060   5.333  0.00  0.00     0.052 A 
BRANCH 119 123
HETATM  123  N   UNK N   1      28.432  10.306   4.492  0.00  0.00    -0.116 N 
HETATM  124  O   UNK N   1      28.805   9.482   3.710  0.00  0.00    -0.532 OA
HETATM  125  O   UNK N   1      29.235  11.010   5.023  0.00  0.00    -0.532 OA
ENDBRANCH 119 123
BRANCH 121 126
HETATM  126  O   UNK N   1      24.974  13.233   5.960  0.00  0.00    -0.318 OA
BRANCH 126 127
HETATM  127  C   UNK N   1      24.552  14.295   5.176  0.00  0.00     0.298 C 
HETATM  128  C   UNK N   1      24.467  15.644   5.977  0.00  0.00     0.205 C 
HETATM  129  C   UNK N   1      24.313  16.747   4.962  0.00  0.00     0.183 C 
HETATM  130  C   UNK N   1      25.556  16.784   4.050  0.00  0.00     0.180 C 
HETATM  131  C   UNK N   1      26.222  15.379   3.925  0.00  0.00     0.179 C 
HETATM  132  O   UNK N   1      25.280  14.335   3.951  0.00  0.00    -0.348 OA
BRANCH 128 133
HETATM  133  O   UNK N   1      25.608  15.852   6.762  0.00  0.00    -0.388 OA
HETATM  134  H   UNK N   1      26.170  15.762   7.548  0.00  0.00     0.210 HD
ENDBRANCH 128 133
BRANCH 129 135
HETATM  135  O   UNK N   1      24.084  17.982   5.574  0.00  0.00    -0.390 OA
HETATM  136  H   UNK N   1      24.457  18.180   6.447  0.00  0.00     0.210 HD
ENDBRANCH 129 135
BRANCH 130 137
HETATM  137  O   UNK N   1      26.515  17.666   4.559  0.00  0.00    -0.390 OA
HETATM  138  H   UNK N   1      26.850  18.513   4.225  0.00  0.00     0.210 HD
ENDBRANCH 130 137
BRANCH 131 139
HETATM  139  C   UNK N   1      27.050  15.284   2.653  0.00  0.00     0.198 C 
BRANCH 139 140
HETATM  140  O   UNK N   1      28.246  15.991   2.799  0.00  0.00    -0.398 OA
HETATM  141  H   UNK N   1      29.114  16.191   3.185  0.00  0.00     0.209 HD
ENDBRANCH 139 140
ENDBRANCH 131 139
ENDBRANCH 126 127
ENDBRANCH 121 126
ENDBRANCH 115 117
BRANCH 115 142
HETATM  142  O   UNK N   1      23.437   8.216   6.244  0.00  0.00    -0.346 OA
HETATM  143  H   UNK N   1      23.601   8.031   7.148  0.00  0.00     0.219 HD
ENDBRANCH 115 142
ENDBRANCH 113 114
ENDBRANCH 112 113
ENDBRANCH 111 112
ENDBRANCH 108 111
ENDBRANCH 104 105
ENDBRANCH 103 104
ENDBRANCH 102 103
ENDBRANCH 100 102
ENDBRANCH  95 100
ENDBRANCH  92  94
ENDBRANCH  91  92
ENDBRANCH  90  91
ENDBRANCH  89  90
ENDBRANCH  88  89
ENDBRANCH  87  88
ENDBRANCH  86  87
ENDBRANCH  85  86
ENDBRANCH  84  85
ENDBRANCH  83  84
ENDBRANCH  82  83
ENDBRANCH  81  82
ENDBRANCH  80  81
ENDBRANCH  79  80
ENDBRANCH  77  79
BRANCH  76 144
HETATM  144  O   UNK N   1      27.525  18.716   9.018  0.00  0.00    -0.327 OA
HETATM  145  H   UNK N   1      27.731  19.214   9.785  0.00  0.00     0.221 HD
ENDBRANCH  76 144
ENDBRANCH  75  76
ENDBRANCH  74  75
ENDBRANCH   1  74
BRANCH   1 146
HETATM  146  N   UNK N   1      29.784  17.652   4.574  0.00  0.00    -0.422 N 
HETATM  147  H   UNK N   1      30.401  18.089   3.890  0.00  0.00     0.150 HD
HETATM  148  H   UNK N   1      28.786  17.828   4.460  0.00  0.00     0.150 HD
ENDBRANCH   1 146
TORSDOF 77
ENDMDL
MODEL 9
REMARK VINA RESULT:      -5.8      6.373     12.886
REMARK WARNING: 32 MAX_TORS EXCEEDED!!!
REMARK  77 active torsions:
REMARK  status: ('A' for Active; 'I' for Inactive)
REMARK    1  A    between atoms: C_9  and  C_1 
REMARK    2  A    between atoms: C_17  and  C_1 
REMARK    3  A    between atoms: C_10  and  C_2 
REMARK    4  A    between atoms: C_18  and  C_2 
REMARK    5  A    between atoms: C_11  and  C_3 
REMARK    6  A    between atoms: C_19  and  C_3 
REMARK    7  A    between atoms: C_12  and  C_4 
REMARK    8  A    between atoms: C_20  and  C_4 
REMARK    9  A    between atoms: C_13  and  C_5 
REMARK   10  A    between atoms: C_29  and  C_5 
REMARK   11  A    between atoms: C_14  and  C_6 
REMARK   12  A    between atoms: C_30  and  C_6 
REMARK   13  A    between atoms: C_15  and  C_7 
REMARK   14  A    between atoms: C_31  and  C_7 
REMARK   15  A    between atoms: C_16  and  C_8 
REMARK   16  A    between atoms: C_32  and  C_8 
REMARK   17  A    between atoms: N_81  and  C_9 
REMARK   18  A    between atoms: N_82  and  C_10 
REMARK   19  A    between atoms: N_85  and  C_11 
REMARK   20  A    between atoms: N_87  and  C_12 
REMARK   21  A    between atoms: N_83  and  C_13 
REMARK   22  A    between atoms: N_84  and  C_14 
REMARK   23  A    between atoms: N_89  and  C_15 
REMARK   24  A    between atoms: N_91  and  C_16 
REMARK   25  A    between atoms: N_93  and  C_17 
REMARK   26  A    between atoms: N_94  and  C_18 
REMARK   27  A    between atoms: N_95  and  C_19 
REMARK   28  A    between atoms: N_96  and  C_20 
REMARK   29  A    between atoms: O_119  and  C_29 
REMARK   30  A    between atoms: O_120  and  C_30 
REMARK   31  A    between atoms: O_121  and  C_31 
REMARK   32  A    between atoms: O_122  and  C_32 
REMARK   33  A    between atoms: C_37  and  C_33 
REMARK   34  A    between atoms: O_119  and  C_33 
REMARK   35  A    between atoms: C_38  and  C_34 
REMARK   36  A    between atoms: O_120  and  C_34 
REMARK   37  A    between atoms: C_39  and  C_35 
REMARK   38  A    between atoms: O_121  and  C_35 
REMARK   39  A    between atoms: C_40  and  C_36 
REMARK   40  A    between atoms: O_122  and  C_36 
REMARK   41  A    between atoms: O_123  and  C_37 
REMARK   42  A    between atoms: O_124  and  C_38 
REMARK   43  A    between atoms: O_123  and  C_39 
REMARK   44  A    between atoms: O_124  and  C_40 
REMARK   45  A    between atoms: C_58  and  C_47 
REMARK   46  A    between atoms: O_99  and  C_47 
REMARK   47  A    between atoms: C_59  and  C_48 
REMARK   48  A    between atoms: O_100  and  C_48 
REMARK   49  A    between atoms: C_53  and  C_49 
REMARK   50  A    between atoms: O_125  and  C_49 
REMARK   51  A    between atoms: C_53  and  C_50 
REMARK   52  A    between atoms: O_126  and  C_50 
REMARK   53  A    between atoms: C_74  and  C_51 
REMARK   54  A    between atoms: C_75  and  C_52 
REMARK   55  A    between atoms: N_80  and  C_53 
REMARK   56  A    between atoms: N_97  and  C_54 
REMARK   57  A    between atoms: N_98  and  C_55 
REMARK   58  A    between atoms: O_127  and  C_56 
REMARK   59  A    between atoms: O_128  and  C_57 
REMARK   60  A    between atoms: N_81  and  C_60 
REMARK   61  A    between atoms: N_82  and  C_61 
REMARK   62  A    between atoms: N_83  and  C_62 
REMARK   63  A    between atoms: N_84  and  C_63 
REMARK   64  A    between atoms: C_64  and  O_101 
REMARK   65  A    between atoms: O_102  and  C_65 
REMARK   66  A    between atoms: C_70  and  O_107 
REMARK   67  A    between atoms: O_108  and  C_71 
REMARK   68  A    between atoms: C_72  and  O_109 
REMARK   69  A    between atoms: O_110  and  C_73 
REMARK   70  A    between atoms: O_111  and  C_74 
REMARK   71  A    between atoms: O_112  and  C_75 
REMARK   72  A    between atoms: C_76  and  O_127 
REMARK   73  A    between atoms: O_128  and  C_77 
REMARK   74  A    between atoms: O_113  and  C_78 
REMARK   75  A    between atoms: O_125  and  C_78 
REMARK   76  A    between atoms: O_114  and  C_79 
REMARK   77  A    between atoms: O_126  and  C_79 
ROOT
HETATM    1  C   UNK N   1      35.866  13.406  12.546  0.00  0.00     0.123 C 
ENDROOT
BRANCH   1   2
HETATM    2  C   UNK N   1      35.690  13.890  14.005  0.00  0.00     0.206 C 
BRANCH   2   3
HETATM    3  O   UNK N   1      34.755  13.181  14.745  0.00  0.00    -0.315 OA
BRANCH   3   4
HETATM    4  C   UNK N   1      34.863  12.634  15.994  0.00  0.00     0.258 C 
HETATM    5  N   UNK N   1      35.232  11.416  16.214  0.00  0.00    -0.350 N 
ATOM      6  HN  UNK N   1      35.207  11.092  17.181  1.00  0.00     0.163 HD
BRANCH   5   7
HETATM    7  C   UNK N   1      35.678  10.468  15.219  0.00  0.00     0.126 C 
BRANCH   7   8
HETATM    8  C   UNK N   1      37.181  10.595  14.974  0.00  0.00     0.046 C 
BRANCH   8   9
HETATM    9  C   UNK N   1      37.555  10.246  13.534  0.00  0.00     0.169 C 
BRANCH   9  10
HETATM   10  O   UNK N   1      36.428   9.869  12.803  0.00  0.00    -0.389 OA
BRANCH  10  11
HETATM   11  C   UNK N   1      36.732  10.128  11.462  0.00  0.00     0.193 C 
BRANCH  11  12
HETATM   12  C   UNK N   1      37.797   9.137  11.001  0.00  0.00     0.193 C 
BRANCH  12  13
HETATM   13  O   UNK N   1      37.196   7.974  10.513  0.00  0.00    -0.387 OA
BRANCH  13  14
HETATM   14  C   UNK N   1      36.302   8.402   9.529  0.00  0.00     0.193 C 
BRANCH  14  15
HETATM   15  C   UNK N   1      35.113   7.453   9.480  0.00  0.00     0.193 C 
BRANCH  15  16
HETATM   16  O   UNK N   1      34.173   7.827  10.449  0.00  0.00    -0.389 OA
BRANCH  16  17
HETATM   17  C   UNK N   1      32.919   7.452   9.955  0.00  0.00     0.169 C 
BRANCH  17  18
HETATM   18  C   UNK N   1      31.958   8.632   9.968  0.00  0.00     0.046 C 
BRANCH  18  19
HETATM   19  C   UNK N   1      32.744   9.857  10.383  0.00  0.00     0.122 C 
BRANCH  19  20
HETATM   20  N   UNK N   1      32.659  10.916   9.412  0.00  0.00    -0.385 N 
HETATM   21  H   UNK N   1      32.059  11.670   9.610  0.00  0.00     0.159 HD
BRANCH  20  22
HETATM   22  C   UNK N   1      33.382  10.947   8.188  0.00  0.00     0.114 A 
HETATM   23  C   UNK N   1      33.686  12.011   7.458  0.00  0.00     0.114 A 
HETATM   24  C   UNK N   1      34.054  11.214   6.293  0.00  0.00     0.252 A 
HETATM   25  C   UNK N   1      33.726  10.039   7.070  0.00  0.00     0.252 A 
HETATM   26  O   UNK N   1      34.138  11.456   5.100  0.00  0.00    -0.281 OA
HETATM   27  O   UNK N   1      33.363   8.926   6.729  0.00  0.00    -0.281 OA
BRANCH  23  28
HETATM   28  N   UNK N   1      33.321  13.349   7.650  0.00  0.00    -0.385 N 
HETATM   29  H   UNK N   1      32.520  13.597   8.165  0.00  0.00     0.159 HD
BRANCH  28  30
HETATM   30  C   UNK N   1      34.166  14.336   7.062  0.00  0.00     0.121 C 
BRANCH  30  31
HETATM   31  C   UNK N   1      35.569  14.175   7.670  0.00  0.00     0.050 C 
BRANCH  31  32
HETATM   32  C   UNK N   1      36.680  14.029   6.632  0.00  0.00     0.274 C 
BRANCH  32  33
HETATM   33  N   UNK N   1      37.864  13.356   7.157  0.00  0.00     0.091 N 
HETATM   34  C   UNK N   1      37.737  11.929   6.817  0.00  0.00     0.302 C 
HETATM   35  C   UNK N   1      38.394  10.972   7.804  0.00  0.00     0.302 C 
HETATM   36  N   UNK N   1      39.432  11.618   8.589  0.00  0.00     0.091 N 
HETATM   37  C   UNK N   1      38.858  12.696   9.393  0.00  0.00     0.302 C 
HETATM   38  C   UNK N   1      38.073  13.721   8.574  0.00  0.00     0.302 C 
BRANCH  36  39
HETATM   39  C   UNK N   1      40.631  11.944   7.794  0.00  0.00     0.274 C 
BRANCH  39  40
HETATM   40  C   UNK N   1      41.760  10.913   7.880  0.00  0.00     0.050 C 
BRANCH  40  41
HETATM   41  C   UNK N   1      43.149  11.497   7.658  0.00  0.00     0.123 C 
BRANCH  41  42
HETATM   42  N   UNK N   1      44.229  10.813   8.354  0.00  0.00    -0.370 N 
HETATM   43  C   UNK N   1      45.447  10.872   7.940  0.00  0.00     0.146 C 
ATOM     44  HN  UNK N   1      44.015  10.273   9.192  1.00  0.00     0.161 HD
BRANCH  43  45
HETATM   45  C   UNK N   1      46.554  10.555   8.819  0.00  0.00     0.019 A 
HETATM   46  C   UNK N   1      46.961   9.293   9.264  0.00  0.00     0.052 A 
HETATM   47  C   UNK N   1      48.229   9.168   9.901  0.00  0.00     0.106 A 
HETATM   48  C   UNK N   1      49.063  10.318  10.033  0.00  0.00     0.073 A 
HETATM   49  C   UNK N   1      48.626  11.557   9.530  0.00  0.00     0.075 A 
HETATM   50  C   UNK N   1      47.392  11.612   8.959  0.00  0.00     0.052 A 
BRANCH  47  51
HETATM   51  N   UNK N   1      48.688   7.886  10.324  0.00  0.00    -0.116 N 
HETATM   52  O   UNK N   1      48.054   6.904  10.060  0.00  0.00    -0.532 OA
HETATM   53  O   UNK N   1      49.673   7.786  10.986  0.00  0.00    -0.532 OA
ENDBRANCH  47  51
BRANCH  49  54
HETATM   54  O   UNK N   1      49.405  12.681   9.515  0.00  0.00    -0.318 OA
BRANCH  54  55
HETATM   55  C   UNK N   1      50.121  13.171   8.394  0.00  0.00     0.298 C 
HETATM   56  C   UNK N   1      50.051  14.716   8.314  0.00  0.00     0.205 C 
HETATM   57  C   UNK N   1      50.702  15.205   6.995  0.00  0.00     0.183 C 
HETATM   58  C   UNK N   1      50.175  14.420   5.764  0.00  0.00     0.180 C 
HETATM   59  C   UNK N   1      49.144  13.373   6.195  0.00  0.00     0.179 C 
HETATM   60  O   UNK N   1      49.766  12.521   7.153  0.00  0.00    -0.348 OA
BRANCH  56  61
HETATM   61  O   UNK N   1      50.671  15.302   9.419  0.00  0.00    -0.388 OA
HETATM   62  H   UNK N   1      50.135  15.683  10.131  0.00  0.00     0.210 HD
ENDBRANCH  56  61
BRANCH  57  63
HETATM   63  O   UNK N   1      52.091  15.061   7.058  0.00  0.00    -0.390 OA
HETATM   64  H   UNK N   1      52.870  14.483   7.033  0.00  0.00     0.210 HD
ENDBRANCH  57  63
BRANCH  58  65
HETATM   65  O   UNK N   1      49.649  15.294   4.807  0.00  0.00    -0.390 OA
HETATM   66  H   UNK N   1      48.746  15.557   4.572  0.00  0.00     0.210 HD
ENDBRANCH  58  65
BRANCH  59  67
HETATM   67  C   UNK N   1      48.689  12.546   4.995  0.00  0.00     0.198 C 
BRANCH  67  68
HETATM   68  O   UNK N   1      47.823  13.278   4.177  0.00  0.00    -0.398 OA
HETATM   69  H   UNK N   1      47.626  14.195   3.930  0.00  0.00     0.209 HD
ENDBRANCH  67  68
ENDBRANCH  59  67
ENDBRANCH  54  55
ENDBRANCH  49  54
ENDBRANCH  43  45
BRANCH  43  70
HETATM   70  O   UNK N   1      45.757  11.549   6.816  0.00  0.00    -0.346 OA
HETATM   71  H   UNK N   1      45.483  12.179   6.179  0.00  0.00     0.219 HD
ENDBRANCH  43  70
ENDBRANCH  41  42
ENDBRANCH  40  41
ENDBRANCH  39  40
ENDBRANCH  36  39
ENDBRANCH  32  33
ENDBRANCH  31  32
ENDBRANCH  30  31
ENDBRANCH  28  30
ENDBRANCH  23  28
ENDBRANCH  20  22
ENDBRANCH  19  20
ENDBRANCH  18  19
ENDBRANCH  17  18
ENDBRANCH  16  17
ENDBRANCH  15  16
ENDBRANCH  14  15
ENDBRANCH  13  14
ENDBRANCH  12  13
ENDBRANCH  11  12
ENDBRANCH  10  11
ENDBRANCH   9  10
ENDBRANCH   8   9
ENDBRANCH   7   8
ENDBRANCH   5   7
BRANCH   4  72
HETATM   72  O   UNK N   1      34.581  13.413  17.054  0.00  0.00    -0.327 OA
HETATM   73  H   UNK N   1      35.166  14.036  17.439  0.00  0.00     0.221 HD
ENDBRANCH   4  72
ENDBRANCH   3   4
ENDBRANCH   2   3
ENDBRANCH   1   2
BRANCH   1  74
HETATM   74  C   UNK N   1      34.846  13.953  11.549  0.00  0.00     0.206 C 
BRANCH  74  75
HETATM   75  O   UNK N   1      34.650  15.306  11.700  0.00  0.00    -0.315 OA
BRANCH  75  76
HETATM   76  C   UNK N   1      35.045  16.133  10.708  0.00  0.00     0.258 C 
HETATM   77  N   UNK N   1      34.168  16.665   9.926  0.00  0.00    -0.350 N 
ATOM     78  HN  UNK N   1      33.188  16.402  10.024  1.00  0.00     0.163 HD
BRANCH  77  79
HETATM   79  C   UNK N   1      34.541  17.629   8.913  0.00  0.00     0.126 C 
BRANCH  79  80
HETATM   80  C   UNK N   1      33.347  17.940   8.016  0.00  0.00     0.046 C 
BRANCH  80  81
HETATM   81  C   UNK N   1      32.137  17.132   8.448  0.00  0.00     0.169 C 
BRANCH  81  82
HETATM   82  O   UNK N   1      31.122  17.267   7.496  0.00  0.00    -0.389 OA
BRANCH  82  83
HETATM   83  C   UNK N   1      29.958  17.551   8.218  0.00  0.00     0.193 C 
BRANCH  83  84
HETATM   84  C   UNK N   1      28.862  18.032   7.282  0.00  0.00     0.193 C 
BRANCH  84  85
HETATM   85  O   UNK N   1      29.324  17.969   5.966  0.00  0.00    -0.387 OA
BRANCH  85  86
HETATM   86  C   UNK N   1      28.414  18.702   5.203  0.00  0.00     0.193 C 
BRANCH  86  87
HETATM   87  C   UNK N   1      27.409  19.423   6.099  0.00  0.00     0.193 C 
BRANCH  87  88
HETATM   88  O   UNK N   1      26.343  19.926   5.342  0.00  0.00    -0.389 OA
BRANCH  88  89
HETATM   89  C   UNK N   1      26.775  19.883   4.012  0.00  0.00     0.169 C 
BRANCH  89  90
HETATM   90  C   UNK N   1      25.926  20.829   3.174  0.00  0.00     0.046 C 
BRANCH  90  91
HETATM   91  C   UNK N   1      24.752  20.082   2.550  0.00  0.00     0.122 C 
BRANCH  91  92
HETATM   92  N   UNK N   1      23.659  20.087   3.478  0.00  0.00    -0.385 N 
HETATM   93  H   UNK N   1      23.819  20.326   4.419  0.00  0.00     0.159 HD
BRANCH  92  94
HETATM   94  C   UNK N   1      22.353  19.753   3.056  0.00  0.00     0.114 A 
HETATM   95  C   UNK N   1      21.413  19.120   3.747  0.00  0.00     0.114 A 
HETATM   96  C   UNK N   1      20.370  19.471   2.776  0.00  0.00     0.252 A 
HETATM   97  C   UNK N   1      21.393  20.187   2.032  0.00  0.00     0.252 A 
HETATM   98  O   UNK N   1      19.152  19.395   2.731  0.00  0.00    -0.281 OA
HETATM   99  O   UNK N   1      21.399  20.988   1.110  0.00  0.00    -0.281 OA
BRANCH  95 100
HETATM  100  N   UNK N   1      21.494  18.606   5.059  0.00  0.00    -0.385 N 
HETATM  101  H   UNK N   1      21.916  19.151   5.763  0.00  0.00     0.159 HD
BRANCH 100 102
HETATM  102  C   UNK N   1      20.978  17.312   5.393  0.00  0.00     0.121 C 
BRANCH 102 103
HETATM  103  C   UNK N   1      21.037  17.129   6.895  0.00  0.00     0.050 C 
BRANCH 103 104
HETATM  104  C   UNK N   1      21.683  15.785   7.191  0.00  0.00     0.274 C 
BRANCH 104 105
HETATM  105  N   UNK N   1      20.752  14.818   7.781  0.00  0.00     0.091 N 
HETATM  106  C   UNK N   1      21.072  14.437   9.167  0.00  0.00     0.302 C 
HETATM  107  C   UNK N   1      22.014  13.227   9.319  0.00  0.00     0.302 C 
HETATM  108  N   UNK N   1      22.779  12.928   8.110  0.00  0.00     0.091 N 
HETATM  109  C   UNK N   1      21.903  12.763   6.942  0.00  0.00     0.302 C 
HETATM  110  C   UNK N   1      20.648  13.646   6.918  0.00  0.00     0.302 C 
BRANCH 108 111
HETATM  111  C   UNK N   1      23.802  13.948   7.880  0.00  0.00     0.274 C 
BRANCH 111 112
HETATM  112  C   UNK N   1      24.685  13.593   6.695  0.00  0.00     0.050 C 
BRANCH 112 113
HETATM  113  C   UNK N   1      25.731  14.668   6.451  0.00  0.00     0.123 C 
BRANCH 113 114
HETATM  114  N   UNK N   1      25.152  15.995   6.392  0.00  0.00    -0.370 N 
HETATM  115  C   UNK N   1      24.977  16.659   5.300  0.00  0.00     0.146 C 
ATOM    116  HN  UNK N   1      24.866  16.431   7.268  1.00  0.00     0.161 HD
BRANCH 115 117
HETATM  117  C   UNK N   1      25.385  16.135   3.988  0.00  0.00     0.019 A 
HETATM  118  C   UNK N   1      24.460  15.516   3.128  0.00  0.00     0.052 A 
HETATM  119  C   UNK N   1      24.882  14.930   1.923  0.00  0.00     0.106 A 
HETATM  120  C   UNK N   1      26.230  14.974   1.607  0.00  0.00     0.073 A 
HETATM  121  C   UNK N   1      27.158  15.523   2.491  0.00  0.00     0.075 A 
HETATM  122  C   UNK N   1      26.737  16.093   3.683  0.00  0.00     0.052 A 
BRANCH 119 123
HETATM  123  N   UNK N   1      23.996  14.165   1.107  0.00  0.00    -0.116 N 
HETATM  124  O   UNK N   1      22.937  14.618   0.787  0.00  0.00    -0.532 OA
HETATM  125  O   UNK N   1      24.364  13.142   0.614  0.00  0.00    -0.532 OA
ENDBRANCH 119 123
BRANCH 121 126
HETATM  126  O   UNK N   1      28.465  15.268   2.329  0.00  0.00    -0.318 OA
BRANCH 126 127
HETATM  127  C   UNK N   1      29.248  15.159   3.468  0.00  0.00     0.298 C 
HETATM  128  C   UNK N   1      29.692  13.680   3.757  0.00  0.00     0.205 C 
HETATM  129  C   UNK N   1      30.772  13.745   4.806  0.00  0.00     0.183 C 
HETATM  130  C   UNK N   1      31.978  14.531   4.254  0.00  0.00     0.180 C 
HETATM  131  C   UNK N   1      31.543  15.578   3.184  0.00  0.00     0.179 C 
HETATM  132  O   UNK N   1      30.284  16.138   3.462  0.00  0.00    -0.348 OA
BRANCH 128 133
HETATM  133  O   UNK N   1      30.165  13.046   2.601  0.00  0.00    -0.388 OA
HETATM  134  H   UNK N   1      30.504  13.000   1.693  0.00  0.00     0.210 HD
ENDBRANCH 128 133
BRANCH 129 135
HETATM  135  O   UNK N   1      31.141  12.470   5.244  0.00  0.00    -0.390 OA
HETATM  136  H   UNK N   1      30.488  11.755   5.299  0.00  0.00     0.210 HD
ENDBRANCH 129 135
BRANCH 130 137
HETATM  137  O   UNK N   1      32.899  13.665   3.655  0.00  0.00    -0.390 OA
HETATM  138  H   UNK N   1      32.820  13.069   2.894  0.00  0.00     0.210 HD
ENDBRANCH 130 137
BRANCH 131 139
HETATM  139  C   UNK N   1      32.576  16.688   3.062  0.00  0.00     0.198 C 
BRANCH 139 140
HETATM  140  O   UNK N   1      33.415  16.695   4.179  0.00  0.00    -0.398 OA
HETATM  141  H   UNK N   1      33.990  16.302   4.855  0.00  0.00     0.209 HD
ENDBRANCH 139 140
ENDBRANCH 131 139
ENDBRANCH 126 127
ENDBRANCH 121 126
ENDBRANCH 115 117
BRANCH 115 142
HETATM  142  O   UNK N   1      24.332  17.841   5.351  0.00  0.00    -0.346 OA
HETATM  143  H   UNK N   1      24.175  18.729   5.097  0.00  0.00     0.219 HD
ENDBRANCH 115 142
ENDBRANCH 113 114
ENDBRANCH 112 113
ENDBRANCH 111 112
ENDBRANCH 108 111
ENDBRANCH 104 105
ENDBRANCH 103 104
ENDBRANCH 102 103
ENDBRANCH 100 102
ENDBRANCH  95 100
ENDBRANCH  92  94
ENDBRANCH  91  92
ENDBRANCH  90  91
ENDBRANCH  89  90
ENDBRANCH  88  89
ENDBRANCH  87  88
ENDBRANCH  86  87
ENDBRANCH  85  86
ENDBRANCH  84  85
ENDBRANCH  83  84
ENDBRANCH  82  83
ENDBRANCH  81  82
ENDBRANCH  80  81
ENDBRANCH  79  80
ENDBRANCH  77  79
BRANCH  76 144
HETATM  144  O   UNK N   1      36.351  16.459  10.592  0.00  0.00    -0.327 OA
HETATM  145  H   UNK N   1      37.063  16.162  11.124  0.00  0.00     0.221 HD
ENDBRANCH  76 144
ENDBRANCH  75  76
ENDBRANCH  74  75
ENDBRANCH   1  74
BRANCH   1 146
HETATM  146  N   UNK N   1      37.185  13.817  12.102  0.00  0.00    -0.422 N 
HETATM  147  H   UNK N   1      37.592  14.751  12.154  0.00  0.00     0.150 HD
HETATM  148  H   UNK N   1      37.771  13.091  11.691  0.00  0.00     0.150 HD
ENDBRANCH   1 146
TORSDOF 77
ENDMDL
