MODEL 1
REMARK VINA RESULT:      -7.2      0.000      0.000
REMARK  15 active torsions:
REMARK  status: ('A' for Active; 'I' for Inactive)
REMARK    1  A    between atoms: C_6  and  C_3 
REMARK    2  A    between atoms: O_21  and  C_3 
REMARK    3  A    between atoms: C_8  and  C_4 
REMARK    4  A    between atoms: O_22  and  C_4 
REMARK    5  A    between atoms: C_7  and  N_20 
REMARK    6  A    between atoms: C_9  and  N_20 
REMARK    7  A    between atoms: C_10  and  O_23 
REMARK    8  A    between atoms: C_11  and  O_24 
REMARK    9  A    between atoms: C_12  and  O_25 
REMARK   10  A    between atoms: C_13  and  O_26 
REMARK   11  A    between atoms: C_14  and  O_27 
REMARK   12  A    between atoms: C_15  and  O_28 
REMARK   13  A    between atoms: C_16  and  O_29 
REMARK   14  A    between atoms: C_17  and  O_33 
REMARK   15  A    between atoms: C_19  and  O_33 
ROOT
HETATM    1  C   UNK N   1      23.770  12.546   7.631  0.00  0.00     0.180 C 
HETATM    2  C   UNK N   1      22.099  13.487   9.471  0.00  0.00     0.183 C 
HETATM    3  C   UNK N   1      22.779  12.399  10.313  0.00  0.00     0.204 C 
HETATM    4  C   UNK N   1      22.873  13.730   8.123  0.00  0.00     0.187 C 
HETATM    5  C   UNK N   1      24.261  12.249   9.990  0.00  0.00     0.288 C 
HETATM    6  O   UNK N   1      24.986  13.420  10.232  0.00  0.00    -0.369 OA
HETATM    7  O   UNK N   1      24.438  11.800   8.655  0.00  0.00    -0.349 OA
HETATM    8  H   UNK N   1      25.495  14.182  10.547  0.00  0.00     0.212 HD
ENDROOT
BRANCH   3   9
HETATM    9  O   UNK N   1      22.572  12.635  11.674  0.00  0.00    -0.388 OA
HETATM   10  H   UNK N   1      22.631  13.509  12.093  0.00  0.00     0.210 HD
ENDBRANCH   3   9
BRANCH   2  11
HETATM   11  O   UNK N   1      20.761  13.118   9.356  0.00  0.00    -0.390 OA
HETATM   12  H   UNK N   1      20.278  12.277   9.390  0.00  0.00     0.210 HD
ENDBRANCH   2  11
BRANCH   1  13
HETATM   13  C   UNK N   1      24.907  13.046   6.722  0.00  0.00     0.198 C 
BRANCH  13  14
HETATM   14  O   UNK N   1      24.825  14.403   6.416  0.00  0.00    -0.398 OA
HETATM   15  H   UNK N   1      23.995  14.844   6.171  0.00  0.00     0.209 HD
ENDBRANCH  13  14
ENDBRANCH   1  13
BRANCH   4  16
HETATM   16  O   UNK N   1      22.207  14.465   7.080  0.00  0.00    -0.348 OA
BRANCH  16  17
HETATM   17  C   UNK N   1      21.436  13.701   6.148  0.00  0.00     0.292 C 
HETATM   18  C   UNK N   1      19.982  14.253   6.017  0.00  0.00     0.204 C 
HETATM   19  C   UNK N   1      19.757  15.056   4.726  0.00  0.00     0.176 C 
HETATM   20  C   UNK N   1      21.041  15.782   4.362  0.00  0.00     0.137 C 
HETATM   21  C   UNK N   1      22.096  14.675   4.035  0.00  0.00     0.145 C 
HETATM   22  C   UNK N   1      21.867  14.118   2.634  0.00  0.00     0.042 C 
HETATM   23  O   UNK N   1      22.102  13.542   4.905  0.00  0.00    -0.352 OA
BRANCH  18  24
HETATM   24  O   UNK N   1      19.685  15.026   7.146  0.00  0.00    -0.388 OA
HETATM   25  H   UNK N   1      19.380  15.674   7.801  0.00  0.00     0.210 HD
ENDBRANCH  18  24
BRANCH  19  26
HETATM   26  O   UNK N   1      18.681  15.937   4.875  0.00  0.00    -0.391 OA
HETATM   27  H   UNK N   1      17.784  15.778   5.210  0.00  0.00     0.210 HD
ENDBRANCH  19  26
BRANCH  20  28
HETATM   28  N   UNK N   1      20.806  16.634   3.182  0.00  0.00    -0.402 N 
HETATM   29  H   UNK N   1      20.629  16.248   2.254  0.00  0.00     0.154 HD
BRANCH  28  30
HETATM   30  C   UNK N   1      20.844  18.077   3.442  0.00  0.00     0.132 C 
HETATM   31  C   UNK N   1      22.257  18.554   3.707  0.00  0.00     0.008 C 
HETATM   32  C   UNK N   1      22.768  19.695   3.199  0.00  0.00    -0.027 C 
HETATM   33  C   UNK N   1      21.932  20.628   2.340  0.00  0.00     0.180 C 
HETATM   34  C   UNK N   1      20.428  20.296   2.368  0.00  0.00     0.182 C 
HETATM   35  C   UNK N   1      20.231  18.791   2.220  0.00  0.00     0.175 C 
BRANCH  32  36
HETATM   36  C   UNK N   1      24.218  20.036   3.419  0.00  0.00     0.201 C 
BRANCH  36  37
HETATM   37  O   UNK N   1      24.731  20.851   2.406  0.00  0.00    -0.397 OA
HETATM   38  H   UNK N   1      25.673  20.807   2.178  0.00  0.00     0.209 HD
ENDBRANCH  36  37
ENDBRANCH  32  36
BRANCH  33  39
HETATM   39  O   UNK N   1      22.103  21.949   2.762  0.00  0.00    -0.388 OA
HETATM   40  H   UNK N   1      22.861  22.465   3.080  0.00  0.00     0.210 HD
ENDBRANCH  33  39
BRANCH  34  41
HETATM   41  O   UNK N   1      19.780  20.984   1.338  0.00  0.00    -0.390 OA
HETATM   42  H   UNK N   1      20.284  21.456   0.657  0.00  0.00     0.210 HD
ENDBRANCH  34  41
BRANCH  35  43
HETATM   43  O   UNK N   1      18.870  18.485   2.133  0.00  0.00    -0.391 OA
HETATM   44  H   UNK N   1      18.520  17.627   2.420  0.00  0.00     0.210 HD
ENDBRANCH  35  43
ENDBRANCH  28  30
ENDBRANCH  20  28
ENDBRANCH  16  17
ENDBRANCH   4  16
TORSDOF 15
ENDMDL
MODEL 2
REMARK VINA RESULT:      -7.2      7.755     10.052
REMARK  15 active torsions:
REMARK  status: ('A' for Active; 'I' for Inactive)
REMARK    1  A    between atoms: C_6  and  C_3 
REMARK    2  A    between atoms: O_21  and  C_3 
REMARK    3  A    between atoms: C_8  and  C_4 
REMARK    4  A    between atoms: O_22  and  C_4 
REMARK    5  A    between atoms: C_7  and  N_20 
REMARK    6  A    between atoms: C_9  and  N_20 
REMARK    7  A    between atoms: C_10  and  O_23 
REMARK    8  A    between atoms: C_11  and  O_24 
REMARK    9  A    between atoms: C_12  and  O_25 
REMARK   10  A    between atoms: C_13  and  O_26 
REMARK   11  A    between atoms: C_14  and  O_27 
REMARK   12  A    between atoms: C_15  and  O_28 
REMARK   13  A    between atoms: C_16  and  O_29 
REMARK   14  A    between atoms: C_17  and  O_33 
REMARK   15  A    between atoms: C_19  and  O_33 
ROOT
HETATM    1  C   UNK N   1      33.454  13.898   9.162  0.00  0.00     0.180 C 
HETATM    2  C   UNK N   1      33.722  16.503   8.710  0.00  0.00     0.183 C 
HETATM    3  C   UNK N   1      34.597  16.396   9.967  0.00  0.00     0.204 C 
HETATM    4  C   UNK N   1      33.370  15.080   8.140  0.00  0.00     0.187 C 
HETATM    5  C   UNK N   1      35.384  15.092  10.024  0.00  0.00     0.288 C 
HETATM    6  O   UNK N   1      36.259  14.943   8.944  0.00  0.00    -0.369 OA
HETATM    7  O   UNK N   1      34.504  13.983  10.131  0.00  0.00    -0.349 OA
HETATM    8  H   UNK N   1      36.964  14.927   8.279  0.00  0.00     0.212 HD
ENDROOT
BRANCH   3   9
HETATM    9  O   UNK N   1      35.437  17.507  10.072  0.00  0.00    -0.388 OA
HETATM   10  H   UNK N   1      35.736  17.888  10.913  0.00  0.00     0.210 HD
ENDBRANCH   3   9
BRANCH   2  11
HETATM   11  O   UNK N   1      32.644  17.317   9.048  0.00  0.00    -0.390 OA
HETATM   12  H   UNK N   1      32.424  18.252   8.910  0.00  0.00     0.210 HD
ENDBRANCH   2  11
BRANCH   1  13
HETATM   13  C   UNK N   1      33.704  12.558   8.447  0.00  0.00     0.198 C 
BRANCH  13  14
HETATM   14  O   UNK N   1      32.653  12.155   7.627  0.00  0.00    -0.398 OA
HETATM   15  H   UNK N   1      31.802  11.836   7.969  0.00  0.00     0.209 HD
ENDBRANCH  13  14
ENDBRANCH   1  13
BRANCH   4  16
HETATM   16  O   UNK N   1      32.306  14.979   7.176  0.00  0.00    -0.348 OA
BRANCH  16  17
HETATM   17  C   UNK N   1      32.686  14.990   5.797  0.00  0.00     0.292 C 
HETATM   18  C   UNK N   1      31.599  14.322   4.896  0.00  0.00     0.204 C 
HETATM   19  C   UNK N   1      30.752  15.341   4.119  0.00  0.00     0.176 C 
HETATM   20  C   UNK N   1      30.590  16.597   4.958  0.00  0.00     0.137 C 
HETATM   21  C   UNK N   1      32.019  17.212   5.112  0.00  0.00     0.145 C 
HETATM   22  C   UNK N   1      32.417  17.961   3.845  0.00  0.00     0.042 C 
HETATM   23  O   UNK N   1      33.075  16.283   5.358  0.00  0.00    -0.352 OA
BRANCH  18  24
HETATM   24  O   UNK N   1      30.791  13.502   5.692  0.00  0.00    -0.388 OA
HETATM   25  H   UNK N   1      30.093  12.971   6.108  0.00  0.00     0.210 HD
ENDBRANCH  18  24
BRANCH  19  26
HETATM   26  O   UNK N   1      29.518  14.787   3.763  0.00  0.00    -0.391 OA
HETATM   27  H   UNK N   1      28.750  14.566   4.313  0.00  0.00     0.210 HD
ENDBRANCH  19  26
BRANCH  20  28
HETATM   28  N   UNK N   1      29.696  17.540   4.263  0.00  0.00    -0.402 N 
HETATM   29  H   UNK N   1      29.868  17.858   3.309  0.00  0.00     0.154 HD
BRANCH  28  30
HETATM   30  C   UNK N   1      28.538  17.988   5.046  0.00  0.00     0.132 C 
HETATM   31  C   UNK N   1      28.727  17.709   6.522  0.00  0.00     0.008 C 
HETATM   32  C   UNK N   1      28.398  18.582   7.497  0.00  0.00    -0.027 C 
HETATM   33  C   UNK N   1      27.758  19.923   7.179  0.00  0.00     0.180 C 
HETATM   34  C   UNK N   1      27.274  20.036   5.721  0.00  0.00     0.182 C 
HETATM   35  C   UNK N   1      28.345  19.495   4.780  0.00  0.00     0.175 C 
BRANCH  32  36
HETATM   36  C   UNK N   1      28.726  18.270   8.933  0.00  0.00     0.201 C 
BRANCH  36  37
HETATM   37  O   UNK N   1      27.613  17.808   9.642  0.00  0.00    -0.397 OA
HETATM   38  H   UNK N   1      27.219  16.950   9.421  0.00  0.00     0.209 HD
ENDBRANCH  36  37
ENDBRANCH  32  36
BRANCH  33  39
HETATM   39  O   UNK N   1      26.671  20.147   8.027  0.00  0.00    -0.388 OA
HETATM   40  H   UNK N   1      25.720  19.964   7.971  0.00  0.00     0.210 HD
ENDBRANCH  33  39
BRANCH  34  41
HETATM   41  O   UNK N   1      26.987  21.372   5.428  0.00  0.00    -0.390 OA
HETATM   42  H   UNK N   1      26.962  21.690   4.512  0.00  0.00     0.210 HD
ENDBRANCH  34  41
BRANCH  35  43
HETATM   43  O   UNK N   1      27.967  19.691   3.449  0.00  0.00    -0.391 OA
HETATM   44  H   UNK N   1      28.096  20.542   3.002  0.00  0.00     0.210 HD
ENDBRANCH  35  43
ENDBRANCH  28  30
ENDBRANCH  20  28
ENDBRANCH  16  17
ENDBRANCH   4  16
TORSDOF 15
ENDMDL
MODEL 3
REMARK VINA RESULT:      -6.9      9.685     12.333
REMARK  15 active torsions:
REMARK  status: ('A' for Active; 'I' for Inactive)
REMARK    1  A    between atoms: C_6  and  C_3 
REMARK    2  A    between atoms: O_21  and  C_3 
REMARK    3  A    between atoms: C_8  and  C_4 
REMARK    4  A    between atoms: O_22  and  C_4 
REMARK    5  A    between atoms: C_7  and  N_20 
REMARK    6  A    between atoms: C_9  and  N_20 
REMARK    7  A    between atoms: C_10  and  O_23 
REMARK    8  A    between atoms: C_11  and  O_24 
REMARK    9  A    between atoms: C_12  and  O_25 
REMARK   10  A    between atoms: C_13  and  O_26 
REMARK   11  A    between atoms: C_14  and  O_27 
REMARK   12  A    between atoms: C_15  and  O_28 
REMARK   13  A    between atoms: C_16  and  O_29 
REMARK   14  A    between atoms: C_17  and  O_33 
REMARK   15  A    between atoms: C_19  and  O_33 
ROOT
HETATM    1  C   UNK N   1      35.004  12.242  11.203  0.00  0.00     0.180 C 
HETATM    2  C   UNK N   1      35.718  14.728  11.814  0.00  0.00     0.183 C 
HETATM    3  C   UNK N   1      35.976  14.073  13.178  0.00  0.00     0.204 C 
HETATM    4  C   UNK N   1      35.481  13.645  10.699  0.00  0.00     0.187 C 
HETATM    5  C   UNK N   1      36.520  12.655  13.053  0.00  0.00     0.288 C 
HETATM    6  O   UNK N   1      37.742  12.605  12.376  0.00  0.00    -0.369 OA
HETATM    7  O   UNK N   1      35.560  11.803  12.447  0.00  0.00    -0.349 OA
HETATM    8  H   UNK N   1      38.653  12.604  12.045  0.00  0.00     0.212 HD
ENDROOT
BRANCH   3   9
HETATM    9  O   UNK N   1      36.812  14.877  13.955  0.00  0.00    -0.388 OA
HETATM   10  H   UNK N   1      36.814  15.847  13.932  0.00  0.00     0.210 HD
ENDBRANCH   3   9
BRANCH   2  11
HETATM   11  O   UNK N   1      34.693  15.651  12.007  0.00  0.00    -0.390 OA
HETATM   12  H   UNK N   1      34.107  16.153  11.419  0.00  0.00     0.210 HD
ENDBRANCH   2  11
BRANCH   1  13
HETATM   13  C   UNK N   1      35.379  11.132  10.205  0.00  0.00     0.198 C 
BRANCH  13  14
HETATM   14  O   UNK N   1      34.873  11.335   8.924  0.00  0.00    -0.398 OA
HETATM   15  H   UNK N   1      35.266  11.954   8.287  0.00  0.00     0.209 HD
ENDBRANCH  13  14
ENDBRANCH   1  13
BRANCH   4  16
HETATM   16  O   UNK N   1      34.909  14.071   9.449  0.00  0.00    -0.348 OA
BRANCH  16  17
HETATM   17  C   UNK N   1      35.669  15.009   8.681  0.00  0.00     0.292 C 
HETATM   18  C   UNK N   1      35.481  14.781   7.147  0.00  0.00     0.204 C 
HETATM   19  C   UNK N   1      34.550  15.814   6.495  0.00  0.00     0.176 C 
HETATM   20  C   UNK N   1      33.477  16.217   7.492  0.00  0.00     0.137 C 
HETATM   21  C   UNK N   1      34.214  16.941   8.666  0.00  0.00     0.145 C 
HETATM   22  C   UNK N   1      34.563  18.372   8.274  0.00  0.00     0.042 C 
HETATM   23  O   UNK N   1      35.442  16.348   9.091  0.00  0.00    -0.352 OA
BRANCH  18  24
HETATM   24  O   UNK N   1      35.011  13.479   6.935  0.00  0.00    -0.388 OA
HETATM   25  H   UNK N   1      34.796  12.533   6.945  0.00  0.00     0.210 HD
ENDBRANCH  18  24
BRANCH  19  26
HETATM   26  O   UNK N   1      34.002  15.307   5.312  0.00  0.00    -0.391 OA
HETATM   27  H   UNK N   1      34.136  15.584   4.392  0.00  0.00     0.210 HD
ENDBRANCH  19  26
BRANCH  20  28
HETATM   28  N   UNK N   1      32.521  17.132   6.843  0.00  0.00    -0.402 N 
HETATM   29  H   UNK N   1      32.807  18.017   6.424  0.00  0.00     0.154 HD
BRANCH  28  30
HETATM   30  C   UNK N   1      31.127  16.673   6.842  0.00  0.00     0.132 C 
HETATM   31  C   UNK N   1      30.302  17.413   7.874  0.00  0.00     0.008 C 
HETATM   32  C   UNK N   1      29.052  17.868   7.646  0.00  0.00    -0.027 C 
HETATM   33  C   UNK N   1      28.348  17.628   6.322  0.00  0.00     0.180 C 
HETATM   34  C   UNK N   1      29.067  16.599   5.428  0.00  0.00     0.182 C 
HETATM   35  C   UNK N   1      30.565  16.882   5.421  0.00  0.00     0.175 C 
BRANCH  32  36
HETATM   36  C   UNK N   1      28.347  18.692   8.690  0.00  0.00     0.201 C 
BRANCH  36  37
HETATM   37  O   UNK N   1      27.438  17.937   9.437  0.00  0.00    -0.397 OA
HETATM   38  H   UNK N   1      26.776  17.389   8.987  0.00  0.00     0.209 HD
ENDBRANCH  36  37
ENDBRANCH  32  36
BRANCH  33  39
HETATM   39  O   UNK N   1      27.042  17.187   6.547  0.00  0.00    -0.388 OA
HETATM   40  H   UNK N   1      26.632  16.582   7.185  0.00  0.00     0.210 HD
ENDBRANCH  33  39
BRANCH  34  41
HETATM   41  O   UNK N   1      28.544  16.662   4.134  0.00  0.00    -0.390 OA
HETATM   42  H   UNK N   1      28.389  15.856   3.616  0.00  0.00     0.210 HD
ENDBRANCH  34  41
BRANCH  35  43
HETATM   43  O   UNK N   1      31.217  16.026   4.529  0.00  0.00    -0.391 OA
HETATM   44  H   UNK N   1      31.816  16.362   3.844  0.00  0.00     0.210 HD
ENDBRANCH  35  43
ENDBRANCH  28  30
ENDBRANCH  20  28
ENDBRANCH  16  17
ENDBRANCH   4  16
TORSDOF 15
ENDMDL
MODEL 4
REMARK VINA RESULT:      -6.7     12.767     17.824
REMARK  15 active torsions:
REMARK  status: ('A' for Active; 'I' for Inactive)
REMARK    1  A    between atoms: C_6  and  C_3 
REMARK    2  A    between atoms: O_21  and  C_3 
REMARK    3  A    between atoms: C_8  and  C_4 
REMARK    4  A    between atoms: O_22  and  C_4 
REMARK    5  A    between atoms: C_7  and  N_20 
REMARK    6  A    between atoms: C_9  and  N_20 
REMARK    7  A    between atoms: C_10  and  O_23 
REMARK    8  A    between atoms: C_11  and  O_24 
REMARK    9  A    between atoms: C_12  and  O_25 
REMARK   10  A    between atoms: C_13  and  O_26 
REMARK   11  A    between atoms: C_14  and  O_27 
REMARK   12  A    between atoms: C_15  and  O_28 
REMARK   13  A    between atoms: C_16  and  O_29 
REMARK   14  A    between atoms: C_17  and  O_33 
REMARK   15  A    between atoms: C_19  and  O_33 
ROOT
HETATM    1  C   UNK N   1      34.243  15.482  10.374  0.00  0.00     0.180 C 
HETATM    2  C   UNK N   1      33.958  13.122   9.185  0.00  0.00     0.183 C 
HETATM    3  C   UNK N   1      33.317  14.003   8.105  0.00  0.00     0.204 C 
HETATM    4  C   UNK N   1      34.713  13.993  10.255  0.00  0.00     0.187 C 
HETATM    5  C   UNK N   1      34.009  15.354   7.962  0.00  0.00     0.288 C 
HETATM    6  O   UNK N   1      35.354  15.233   7.598  0.00  0.00    -0.369 OA
HETATM    7  O   UNK N   1      33.863  16.117   9.149  0.00  0.00    -0.349 OA
HETATM    8  H   UNK N   1      36.233  15.139   7.200  0.00  0.00     0.212 HD
ENDROOT
BRANCH   3   9
HETATM    9  O   UNK N   1      33.265  13.322   6.886  0.00  0.00    -0.388 OA
HETATM   10  H   UNK N   1      34.023  12.876   6.477  0.00  0.00     0.210 HD
ENDBRANCH   3   9
BRANCH   2  11
HETATM   11  O   UNK N   1      32.951  12.290   9.665  0.00  0.00    -0.390 OA
HETATM   12  H   UNK N   1      32.056  12.059   9.369  0.00  0.00     0.210 HD
ENDBRANCH   2  11
BRANCH   1  13
HETATM   13  C   UNK N   1      35.361  16.377  10.938  0.00  0.00     0.198 C 
BRANCH  13  14
HETATM   14  O   UNK N   1      36.643  15.884  10.709  0.00  0.00    -0.398 OA
HETATM   15  H   UNK N   1      37.246  16.256  10.045  0.00  0.00     0.209 HD
ENDBRANCH  13  14
ENDBRANCH   1  13
BRANCH   4  16
HETATM   16  O   UNK N   1      35.086  13.370  11.498  0.00  0.00    -0.348 OA
BRANCH  16  17
HETATM   17  C   UNK N   1      35.790  12.128  11.407  0.00  0.00     0.292 C 
HETATM   18  C   UNK N   1      37.186  12.207  12.102  0.00  0.00     0.204 C 
HETATM   19  C   UNK N   1      37.217  11.511  13.471  0.00  0.00     0.176 C 
HETATM   20  C   UNK N   1      35.860  11.662  14.137  0.00  0.00     0.137 C 
HETATM   21  C   UNK N   1      34.841  10.878  13.247  0.00  0.00     0.145 C 
HETATM   22  C   UNK N   1      34.943   9.381  13.514  0.00  0.00     0.042 C 
HETATM   23  O   UNK N   1      34.999  11.030  11.836  0.00  0.00    -0.352 OA
BRANCH  18  24
HETATM   24  O   UNK N   1      37.562  13.551  12.215  0.00  0.00    -0.388 OA
HETATM   25  H   UNK N   1      37.896  14.426  12.467  0.00  0.00     0.210 HD
ENDBRANCH  18  24
BRANCH  19  26
HETATM   26  O   UNK N   1      38.249  12.025  14.262  0.00  0.00    -0.391 OA
HETATM   27  H   UNK N   1      38.222  12.677  14.980  0.00  0.00     0.210 HD
ENDBRANCH  19  26
BRANCH  20  28
HETATM   28  N   UNK N   1      35.911  11.085  15.492  0.00  0.00    -0.402 N 
HETATM   29  H   UNK N   1      36.429  10.232  15.706  0.00  0.00     0.154 HD
BRANCH  28  30
HETATM   30  C   UNK N   1      35.162  11.829  16.512  0.00  0.00     0.132 C 
HETATM   31  C   UNK N   1      34.937  10.991  17.753  0.00  0.00     0.008 C 
HETATM   32  C   UNK N   1      35.070  11.465  19.010  0.00  0.00    -0.027 C 
HETATM   33  C   UNK N   1      35.421  12.918  19.278  0.00  0.00     0.180 C 
HETATM   34  C   UNK N   1      35.312  13.811  18.027  0.00  0.00     0.182 C 
HETATM   35  C   UNK N   1      35.958  13.110  16.837  0.00  0.00     0.175 C 
BRANCH  32  36
HETATM   36  C   UNK N   1      34.939  10.534  20.186  0.00  0.00     0.201 C 
BRANCH  36  37
HETATM   37  O   UNK N   1      35.888  10.796  21.178  0.00  0.00    -0.397 OA
HETATM   38  H   UNK N   1      35.658  10.676  22.113  0.00  0.00     0.209 HD
ENDBRANCH  36  37
ENDBRANCH  32  36
BRANCH  33  39
HETATM   39  O   UNK N   1      34.585  13.437  20.269  0.00  0.00    -0.388 OA
HETATM   40  H   UNK N   1      34.034  14.233  20.341  0.00  0.00     0.210 HD
ENDBRANCH  33  39
BRANCH  34  41
HETATM   41  O   UNK N   1      35.934  15.038  18.276  0.00  0.00    -0.390 OA
HETATM   42  H   UNK N   1      36.838  15.212  17.971  0.00  0.00     0.210 HD
ENDBRANCH  34  41
BRANCH  35  43
HETATM   43  O   UNK N   1      35.965  13.952  15.721  0.00  0.00    -0.391 OA
HETATM   44  H   UNK N   1      35.853  13.608  14.821  0.00  0.00     0.210 HD
ENDBRANCH  35  43
ENDBRANCH  28  30
ENDBRANCH  20  28
ENDBRANCH  16  17
ENDBRANCH   4  16
TORSDOF 15
ENDMDL
MODEL 5
REMARK VINA RESULT:      -6.6      9.338     14.018
REMARK  15 active torsions:
REMARK  status: ('A' for Active; 'I' for Inactive)
REMARK    1  A    between atoms: C_6  and  C_3 
REMARK    2  A    between atoms: O_21  and  C_3 
REMARK    3  A    between atoms: C_8  and  C_4 
REMARK    4  A    between atoms: O_22  and  C_4 
REMARK    5  A    between atoms: C_7  and  N_20 
REMARK    6  A    between atoms: C_9  and  N_20 
REMARK    7  A    between atoms: C_10  and  O_23 
REMARK    8  A    between atoms: C_11  and  O_24 
REMARK    9  A    between atoms: C_12  and  O_25 
REMARK   10  A    between atoms: C_13  and  O_26 
REMARK   11  A    between atoms: C_14  and  O_27 
REMARK   12  A    between atoms: C_15  and  O_28 
REMARK   13  A    between atoms: C_16  and  O_29 
REMARK   14  A    between atoms: C_17  and  O_33 
REMARK   15  A    between atoms: C_19  and  O_33 
ROOT
HETATM    1  C   UNK N   1      28.785  17.055   7.488  0.00  0.00     0.180 C 
HETATM    2  C   UNK N   1      29.952  17.068   5.100  0.00  0.00     0.183 C 
HETATM    3  C   UNK N   1      28.493  17.206   4.644  0.00  0.00     0.204 C 
HETATM    4  C   UNK N   1      30.087  17.293   6.650  0.00  0.00     0.187 C 
HETATM    5  C   UNK N   1      27.663  18.067   5.589  0.00  0.00     0.288 C 
HETATM    6  O   UNK N   1      28.148  19.374   5.693  0.00  0.00    -0.369 OA
HETATM    7  O   UNK N   1      27.560  17.453   6.864  0.00  0.00    -0.349 OA
HETATM    8  H   UNK N   1      28.403  20.308   5.635  0.00  0.00     0.212 HD
ENDROOT
BRANCH   3   9
HETATM    9  O   UNK N   1      28.434  17.680   3.332  0.00  0.00    -0.388 OA
HETATM   10  H   UNK N   1      29.009  17.373   2.613  0.00  0.00     0.210 HD
ENDBRANCH   3   9
BRANCH   2  11
HETATM   11  O   UNK N   1      30.404  15.845   4.611  0.00  0.00    -0.390 OA
HETATM   12  H   UNK N   1      30.877  15.089   4.993  0.00  0.00     0.210 HD
ENDBRANCH   2  11
BRANCH   1  13
HETATM   13  C   UNK N   1      28.817  17.850   8.806  0.00  0.00     0.198 C 
BRANCH  13  14
HETATM   14  O   UNK N   1      27.555  18.171   9.298  0.00  0.00    -0.398 OA
HETATM   15  H   UNK N   1      27.411  18.779  10.042  0.00  0.00     0.209 HD
ENDBRANCH  13  14
ENDBRANCH   1  13
BRANCH   4  16
HETATM   16  O   UNK N   1      31.308  16.883   7.292  0.00  0.00    -0.348 OA
BRANCH  16  17
HETATM   17  C   UNK N   1      32.529  17.271   6.656  0.00  0.00     0.292 C 
HETATM   18  C   UNK N   1      33.443  18.093   7.619  0.00  0.00     0.204 C 
HETATM   19  C   UNK N   1      34.618  17.276   8.177  0.00  0.00     0.176 C 
HETATM   20  C   UNK N   1      34.182  15.831   8.350  0.00  0.00     0.137 C 
HETATM   21  C   UNK N   1      33.884  15.285   6.916  0.00  0.00     0.145 C 
HETATM   22  C   UNK N   1      35.183  14.936   6.198  0.00  0.00     0.042 C 
HETATM   23  O   UNK N   1      33.187  16.174   6.042  0.00  0.00    -0.352 OA
BRANCH  18  24
HETATM   24  O   UNK N   1      32.659  18.614   8.655  0.00  0.00    -0.388 OA
HETATM   25  H   UNK N   1      32.245  18.885   9.490  0.00  0.00     0.210 HD
ENDBRANCH  18  24
BRANCH  19  26
HETATM   26  O   UNK N   1      35.080  17.831   9.375  0.00  0.00    -0.391 OA
HETATM   27  H   UNK N   1      35.135  18.759   9.653  0.00  0.00     0.210 HD
ENDBRANCH  19  26
BRANCH  20  28
HETATM   28  N   UNK N   1      35.270  15.061   8.979  0.00  0.00    -0.402 N 
HETATM   29  H   UNK N   1      36.172  14.915   8.524  0.00  0.00     0.154 HD
BRANCH  28  30
HETATM   30  C   UNK N   1      34.961  14.521  10.308  0.00  0.00     0.132 C 
HETATM   31  C   UNK N   1      34.500  13.081  10.225  0.00  0.00     0.008 C 
HETATM   32  C   UNK N   1      34.900  12.118  11.082  0.00  0.00    -0.027 C 
HETATM   33  C   UNK N   1      35.829  12.423  12.244  0.00  0.00     0.180 C 
HETATM   34  C   UNK N   1      36.007  13.932  12.500  0.00  0.00     0.182 C 
HETATM   35  C   UNK N   1      36.228  14.655  11.176  0.00  0.00     0.175 C 
BRANCH  32  36
HETATM   36  C   UNK N   1      34.482  10.688  10.859  0.00  0.00     0.201 C 
BRANCH  36  37
HETATM   37  O   UNK N   1      33.381  10.329  11.643  0.00  0.00    -0.397 OA
HETATM   38  H   UNK N   1      33.148   9.394  11.752  0.00  0.00     0.209 HD
ENDBRANCH  36  37
ENDBRANCH  32  36
BRANCH  33  39
HETATM   39  O   UNK N   1      35.346  11.828  13.412  0.00  0.00    -0.388 OA
HETATM   40  H   UNK N   1      35.302  12.102  14.342  0.00  0.00     0.210 HD
ENDBRANCH  33  39
BRANCH  34  41
HETATM   41  O   UNK N   1      37.090  14.133  13.361  0.00  0.00    -0.390 OA
HETATM   42  H   UNK N   1      36.956  14.251  14.314  0.00  0.00     0.210 HD
ENDBRANCH  34  41
BRANCH  35  43
HETATM   43  O   UNK N   1      36.501  16.008  11.400  0.00  0.00    -0.391 OA
HETATM   44  H   UNK N   1      36.060  16.508  12.104  0.00  0.00     0.210 HD
ENDBRANCH  35  43
ENDBRANCH  28  30
ENDBRANCH  20  28
ENDBRANCH  16  17
ENDBRANCH   4  16
TORSDOF 15
ENDMDL
MODEL 6
REMARK VINA RESULT:      -6.5      3.992      5.686
REMARK  15 active torsions:
REMARK  status: ('A' for Active; 'I' for Inactive)
REMARK    1  A    between atoms: C_6  and  C_3 
REMARK    2  A    between atoms: O_21  and  C_3 
REMARK    3  A    between atoms: C_8  and  C_4 
REMARK    4  A    between atoms: O_22  and  C_4 
REMARK    5  A    between atoms: C_7  and  N_20 
REMARK    6  A    between atoms: C_9  and  N_20 
REMARK    7  A    between atoms: C_10  and  O_23 
REMARK    8  A    between atoms: C_11  and  O_24 
REMARK    9  A    between atoms: C_12  and  O_25 
REMARK   10  A    between atoms: C_13  and  O_26 
REMARK   11  A    between atoms: C_14  and  O_27 
REMARK   12  A    between atoms: C_15  and  O_28 
REMARK   13  A    between atoms: C_16  and  O_29 
REMARK   14  A    between atoms: C_17  and  O_33 
REMARK   15  A    between atoms: C_19  and  O_33 
ROOT
HETATM    1  C   UNK N   1      28.675  17.747   7.183  0.00  0.00     0.180 C 
HETATM    2  C   UNK N   1      29.440  16.794   4.823  0.00  0.00     0.183 C 
HETATM    3  C   UNK N   1      30.795  17.329   5.305  0.00  0.00     0.204 C 
HETATM    4  C   UNK N   1      28.389  16.772   5.992  0.00  0.00     0.187 C 
HETATM    5  C   UNK N   1      30.997  17.148   6.805  0.00  0.00     0.288 C 
HETATM    6  O   UNK N   1      30.964  15.805   7.194  0.00  0.00    -0.369 OA
HETATM    7  O   UNK N   1      30.053  17.919   7.532  0.00  0.00    -0.349 OA
HETATM    8  H   UNK N   1      31.091  14.872   7.423  0.00  0.00     0.212 HD
ENDROOT
BRANCH   3   9
HETATM    9  O   UNK N   1      31.836  16.752   4.574  0.00  0.00    -0.388 OA
HETATM   10  H   UNK N   1      31.710  16.118   3.850  0.00  0.00     0.210 HD
ENDBRANCH   3   9
BRANCH   2  11
HETATM   11  O   UNK N   1      29.098  17.541   3.699  0.00  0.00    -0.390 OA
HETATM   12  H   UNK N   1      28.996  17.346   2.754  0.00  0.00     0.210 HD
ENDBRANCH   2  11
BRANCH   1  13
HETATM   13  C   UNK N   1      28.012  17.253   8.481  0.00  0.00     0.198 C 
BRANCH  13  14
HETATM   14  O   UNK N   1      27.467  18.273   9.257  0.00  0.00    -0.398 OA
HETATM   15  H   UNK N   1      26.594  18.214   9.678  0.00  0.00     0.209 HD
ENDBRANCH  13  14
ENDBRANCH   1  13
BRANCH   4  16
HETATM   16  O   UNK N   1      26.999  16.615   5.653  0.00  0.00    -0.348 OA
BRANCH  16  17
HETATM   17  C   UNK N   1      26.592  15.323   5.193  0.00  0.00     0.292 C 
HETATM   18  C   UNK N   1      25.396  14.766   6.028  0.00  0.00     0.204 C 
HETATM   19  C   UNK N   1      24.051  14.862   5.291  0.00  0.00     0.176 C 
HETATM   20  C   UNK N   1      24.049  16.105   4.418  0.00  0.00     0.137 C 
HETATM   21  C   UNK N   1      25.152  15.884   3.332  0.00  0.00     0.145 C 
HETATM   22  C   UNK N   1      24.640  14.960   2.233  0.00  0.00     0.042 C 
HETATM   23  O   UNK N   1      26.371  15.297   3.791  0.00  0.00    -0.352 OA
BRANCH  18  24
HETATM   24  O   UNK N   1      25.344  15.440   7.254  0.00  0.00    -0.388 OA
HETATM   25  H   UNK N   1      25.205  15.751   8.162  0.00  0.00     0.210 HD
ENDBRANCH  18  24
BRANCH  19  26
HETATM   26  O   UNK N   1      22.989  14.859   6.201  0.00  0.00    -0.391 OA
HETATM   27  H   UNK N   1      22.105  15.252   6.131  0.00  0.00     0.210 HD
ENDBRANCH  19  26
BRANCH  20  28
HETATM   28  N   UNK N   1      22.727  16.259   3.785  0.00  0.00    -0.402 N 
HETATM   29  H   UNK N   1      22.285  15.512   3.250  0.00  0.00     0.154 HD
BRANCH  28  30
HETATM   30  C   UNK N   1      22.093  17.567   3.984  0.00  0.00     0.132 C 
HETATM   31  C   UNK N   1      23.103  18.692   3.884  0.00  0.00     0.008 C 
HETATM   32  C   UNK N   1      22.869  19.851   3.233  0.00  0.00    -0.027 C 
HETATM   33  C   UNK N   1      21.531  20.137   2.575  0.00  0.00     0.180 C 
HETATM   34  C   UNK N   1      20.429  19.137   2.976  0.00  0.00     0.182 C 
HETATM   35  C   UNK N   1      20.982  17.717   2.926  0.00  0.00     0.175 C 
BRANCH  32  36
HETATM   36  C   UNK N   1      23.970  20.868   3.085  0.00  0.00     0.201 C 
BRANCH  36  37
HETATM   37  O   UNK N   1      24.750  20.644   1.947  0.00  0.00    -0.397 OA
HETATM   38  H   UNK N   1      24.634  19.830   1.432  0.00  0.00     0.209 HD
ENDBRANCH  36  37
ENDBRANCH  32  36
BRANCH  33  39
HETATM   39  O   UNK N   1      21.102  21.425   2.901  0.00  0.00    -0.388 OA
HETATM   40  H   UNK N   1      20.871  21.872   3.732  0.00  0.00     0.210 HD
ENDBRANCH  33  39
BRANCH  34  41
HETATM   41  O   UNK N   1      19.339  19.275   2.113  0.00  0.00    -0.390 OA
HETATM   42  H   UNK N   1      18.646  19.932   2.284  0.00  0.00     0.210 HD
ENDBRANCH  34  41
BRANCH  35  43
HETATM   43  O   UNK N   1      19.965  16.791   3.181  0.00  0.00    -0.391 OA
HETATM   44  H   UNK N   1      19.094  16.861   2.761  0.00  0.00     0.210 HD
ENDBRANCH  35  43
ENDBRANCH  28  30
ENDBRANCH  20  28
ENDBRANCH  16  17
ENDBRANCH   4  16
TORSDOF 15
ENDMDL
MODEL 7
REMARK VINA RESULT:      -6.4      6.634      9.536
REMARK  15 active torsions:
REMARK  status: ('A' for Active; 'I' for Inactive)
REMARK    1  A    between atoms: C_6  and  C_3 
REMARK    2  A    between atoms: O_21  and  C_3 
REMARK    3  A    between atoms: C_8  and  C_4 
REMARK    4  A    between atoms: O_22  and  C_4 
REMARK    5  A    between atoms: C_7  and  N_20 
REMARK    6  A    between atoms: C_9  and  N_20 
REMARK    7  A    between atoms: C_10  and  O_23 
REMARK    8  A    between atoms: C_11  and  O_24 
REMARK    9  A    between atoms: C_12  and  O_25 
REMARK   10  A    between atoms: C_13  and  O_26 
REMARK   11  A    between atoms: C_14  and  O_27 
REMARK   12  A    between atoms: C_15  and  O_28 
REMARK   13  A    between atoms: C_16  and  O_29 
REMARK   14  A    between atoms: C_17  and  O_33 
REMARK   15  A    between atoms: C_19  and  O_33 
ROOT
HETATM    1  C   UNK N   1      33.920  15.848   7.304  0.00  0.00     0.180 C 
HETATM    2  C   UNK N   1      32.392  15.142   9.361  0.00  0.00     0.183 C 
HETATM    3  C   UNK N   1      33.765  14.876   9.992  0.00  0.00     0.204 C 
HETATM    4  C   UNK N   1      32.530  15.949   8.018  0.00  0.00     0.187 C 
HETATM    5  C   UNK N   1      34.816  15.892   9.560  0.00  0.00     0.288 C 
HETATM    6  O   UNK N   1      34.482  17.200   9.924  0.00  0.00    -0.369 OA
HETATM    7  O   UNK N   1      35.062  15.792   8.166  0.00  0.00    -0.349 OA
HETATM    8  H   UNK N   1      34.314  18.071  10.314  0.00  0.00     0.212 HD
ENDROOT
BRANCH   3   9
HETATM    9  O   UNK N   1      33.657  14.810  11.384  0.00  0.00    -0.388 OA
HETATM   10  H   UNK N   1      33.721  13.990  11.899  0.00  0.00     0.210 HD
ENDBRANCH   3   9
BRANCH   2  11
HETATM   11  O   UNK N   1      31.750  13.909   9.277  0.00  0.00    -0.390 OA
HETATM   12  H   UNK N   1      32.038  13.000   9.100  0.00  0.00     0.210 HD
ENDBRANCH   2  11
BRANCH   1  13
HETATM   13  C   UNK N   1      34.179  17.073   6.408  0.00  0.00     0.198 C 
BRANCH  13  14
HETATM   14  O   UNK N   1      34.503  18.227   7.117  0.00  0.00    -0.398 OA
HETATM   15  H   UNK N   1      35.166  18.248   7.826  0.00  0.00     0.209 HD
ENDBRANCH  13  14
ENDBRANCH   1  13
BRANCH   4  16
HETATM   16  O   UNK N   1      31.394  16.000   7.136  0.00  0.00    -0.348 OA
BRANCH  16  17
HETATM   17  C   UNK N   1      30.912  17.301   6.784  0.00  0.00     0.292 C 
HETATM   18  C   UNK N   1      30.135  17.278   5.430  0.00  0.00     0.204 C 
HETATM   19  C   UNK N   1      28.611  17.349   5.611  0.00  0.00     0.176 C 
HETATM   20  C   UNK N   1      28.227  16.626   6.890  0.00  0.00     0.137 C 
HETATM   21  C   UNK N   1      28.864  17.439   8.064  0.00  0.00     0.145 C 
HETATM   22  C   UNK N   1      28.032  18.679   8.368  0.00  0.00     0.042 C 
HETATM   23  O   UNK N   1      30.194  17.911   7.846  0.00  0.00    -0.352 OA
BRANCH  18  24
HETATM   24  O   UNK N   1      30.503  16.134   4.714  0.00  0.00    -0.388 OA
HETATM   25  H   UNK N   1      30.654  15.422   4.071  0.00  0.00     0.210 HD
ENDBRANCH  18  24
BRANCH  19  26
HETATM   26  O   UNK N   1      27.958  16.818   4.493  0.00  0.00    -0.391 OA
HETATM   27  H   UNK N   1      27.509  17.267   3.759  0.00  0.00     0.210 HD
ENDBRANCH  19  26
BRANCH  20  28
HETATM   28  N   UNK N   1      26.759  16.601   7.019  0.00  0.00    -0.402 N 
HETATM   29  H   UNK N   1      26.219  17.419   7.301  0.00  0.00     0.154 HD
BRANCH  28  30
HETATM   30  C   UNK N   1      26.131  15.311   6.711  0.00  0.00     0.132 C 
HETATM   31  C   UNK N   1      25.930  14.481   7.962  0.00  0.00     0.008 C 
HETATM   32  C   UNK N   1      24.809  13.775   8.219  0.00  0.00    -0.027 C 
HETATM   33  C   UNK N   1      23.657  13.726   7.231  0.00  0.00     0.180 C 
HETATM   34  C   UNK N   1      24.019  14.292   5.844  0.00  0.00     0.182 C 
HETATM   35  C   UNK N   1      24.789  15.598   6.008  0.00  0.00     0.175 C 
BRANCH  32  36
HETATM   36  C   UNK N   1      24.648  13.069   9.539  0.00  0.00     0.201 C 
BRANCH  36  37
HETATM   37  O   UNK N   1      25.598  13.480  10.479  0.00  0.00    -0.397 OA
HETATM   38  H   UNK N   1      26.203  14.209  10.271  0.00  0.00     0.209 HD
ENDBRANCH  36  37
ENDBRANCH  32  36
BRANCH  33  39
HETATM   39  O   UNK N   1      23.217  12.410   7.073  0.00  0.00    -0.388 OA
HETATM   40  H   UNK N   1      22.345  11.986   7.043  0.00  0.00     0.210 HD
ENDBRANCH  33  39
BRANCH  34  41
HETATM   41  O   UNK N   1      22.851  14.494   5.104  0.00  0.00    -0.390 OA
HETATM   42  H   UNK N   1      22.213  15.181   5.354  0.00  0.00     0.210 HD
ENDBRANCH  34  41
BRANCH  35  43
HETATM   43  O   UNK N   1      25.030  16.180   4.759  0.00  0.00    -0.391 OA
HETATM   44  H   UNK N   1      24.815  15.721   3.932  0.00  0.00     0.210 HD
ENDBRANCH  35  43
ENDBRANCH  28  30
ENDBRANCH  20  28
ENDBRANCH  16  17
ENDBRANCH   4  16
TORSDOF 15
ENDMDL
MODEL 8
REMARK VINA RESULT:      -6.4      3.744      6.469
REMARK  15 active torsions:
REMARK  status: ('A' for Active; 'I' for Inactive)
REMARK    1  A    between atoms: C_6  and  C_3 
REMARK    2  A    between atoms: O_21  and  C_3 
REMARK    3  A    between atoms: C_8  and  C_4 
REMARK    4  A    between atoms: O_22  and  C_4 
REMARK    5  A    between atoms: C_7  and  N_20 
REMARK    6  A    between atoms: C_9  and  N_20 
REMARK    7  A    between atoms: C_10  and  O_23 
REMARK    8  A    between atoms: C_11  and  O_24 
REMARK    9  A    between atoms: C_12  and  O_25 
REMARK   10  A    between atoms: C_13  and  O_26 
REMARK   11  A    between atoms: C_14  and  O_27 
REMARK   12  A    between atoms: C_15  and  O_28 
REMARK   13  A    between atoms: C_16  and  O_29 
REMARK   14  A    between atoms: C_17  and  O_33 
REMARK   15  A    between atoms: C_19  and  O_33 
ROOT
HETATM    1  C   UNK N   1      25.842  19.072   3.394  0.00  0.00     0.180 C 
HETATM    2  C   UNK N   1      24.953  17.262   5.126  0.00  0.00     0.183 C 
HETATM    3  C   UNK N   1      26.443  17.214   5.487  0.00  0.00     0.204 C 
HETATM    4  C   UNK N   1      24.631  18.493   4.201  0.00  0.00     0.187 C 
HETATM    5  C   UNK N   1      27.111  18.581   5.403  0.00  0.00     0.288 C 
HETATM    6  O   UNK N   1      26.543  19.512   6.278  0.00  0.00    -0.369 OA
HETATM    7  O   UNK N   1      27.105  19.059   4.067  0.00  0.00    -0.349 OA
HETATM    8  H   UNK N   1      26.244  20.096   6.992  0.00  0.00     0.212 HD
ENDROOT
BRANCH   3   9
HETATM    9  O   UNK N   1      26.622  16.632   6.744  0.00  0.00    -0.388 OA
HETATM   10  H   UNK N   1      26.784  15.686   6.891  0.00  0.00     0.210 HD
ENDBRANCH   3   9
BRANCH   2  11
HETATM   11  O   UNK N   1      24.629  16.007   4.618  0.00  0.00    -0.390 OA
HETATM   12  H   UNK N   1      24.356  15.671   3.749  0.00  0.00     0.210 HD
ENDBRANCH   2  11
BRANCH   1  13
HETATM   13  C   UNK N   1      25.616  20.551   3.033  0.00  0.00     0.198 C 
BRANCH  13  14
HETATM   14  O   UNK N   1      24.561  20.759   2.149  0.00  0.00    -0.398 OA
HETATM   15  H   UNK N   1      23.631  20.605   2.383  0.00  0.00     0.209 HD
ENDBRANCH  13  14
ENDBRANCH   1  13
BRANCH   4  16
HETATM   16  O   UNK N   1      23.371  18.511   3.507  0.00  0.00    -0.348 OA
BRANCH  16  17
HETATM   17  C   UNK N   1      22.199  18.693   4.307  0.00  0.00     0.292 C 
HETATM   18  C   UNK N   1      21.060  19.398   3.505  0.00  0.00     0.204 C 
HETATM   19  C   UNK N   1      19.952  18.432   3.058  0.00  0.00     0.176 C 
HETATM   20  C   UNK N   1      20.566  17.074   2.762  0.00  0.00     0.137 C 
HETATM   21  C   UNK N   1      21.122  16.536   4.120  0.00  0.00     0.145 C 
HETATM   22  C   UNK N   1      19.991  15.976   4.975  0.00  0.00     0.042 C 
HETATM   23  O   UNK N   1      21.791  17.492   4.944  0.00  0.00    -0.352 OA
BRANCH  18  24
HETATM   24  O   UNK N   1      21.620  20.061   2.407  0.00  0.00    -0.388 OA
HETATM   25  H   UNK N   1      21.870  20.426   1.544  0.00  0.00     0.210 HD
ENDBRANCH  18  24
BRANCH  19  26
HETATM   26  O   UNK N   1      19.265  18.948   1.955  0.00  0.00    -0.391 OA
HETATM   27  H   UNK N   1      19.267  18.662   1.027  0.00  0.00     0.210 HD
ENDBRANCH  19  26
BRANCH  20  28
HETATM   28  N   UNK N   1      19.528  16.170   2.236  0.00  0.00    -0.402 N 
HETATM   29  H   UNK N   1      18.549  16.238   2.514  0.00  0.00     0.154 HD
BRANCH  28  30
HETATM   30  C   UNK N   1      20.007  15.165   1.280  0.00  0.00     0.132 C 
HETATM   31  C   UNK N   1      21.508  15.249   1.097  0.00  0.00     0.008 C 
HETATM   32  C   UNK N   1      22.315  14.169   1.031  0.00  0.00    -0.027 C 
HETATM   33  C   UNK N   1      21.760  12.757   1.095  0.00  0.00     0.180 C 
HETATM   34  C   UNK N   1      20.227  12.698   0.942  0.00  0.00     0.182 C 
HETATM   35  C   UNK N   1      19.583  13.778   1.805  0.00  0.00     0.175 C 
BRANCH  32  36
HETATM   36  C   UNK N   1      23.809  14.346   0.962  0.00  0.00     0.201 C 
BRANCH  36  37
HETATM   37  O   UNK N   1      24.409  14.279   2.223  0.00  0.00    -0.397 OA
HETATM   38  H   UNK N   1      24.339  13.469   2.752  0.00  0.00     0.209 HD
ENDBRANCH  36  37
ENDBRANCH  32  36
BRANCH  33  39
HETATM   39  O   UNK N   1      22.336  11.970   0.096  0.00  0.00    -0.388 OA
HETATM   40  H   UNK N   1      23.246  11.818  -0.206  0.00  0.00     0.210 HD
ENDBRANCH  33  39
BRANCH  34  41
HETATM   41  O   UNK N   1      19.771  11.430   1.313  0.00  0.00    -0.390 OA
HETATM   42  H   UNK N   1      20.350  10.806   1.779  0.00  0.00     0.210 HD
ENDBRANCH  34  41
BRANCH  35  43
HETATM   43  O   UNK N   1      18.190  13.668   1.762  0.00  0.00    -0.391 OA
HETATM   44  H   UNK N   1      17.626  14.417   1.516  0.00  0.00     0.210 HD
ENDBRANCH  35  43
ENDBRANCH  28  30
ENDBRANCH  20  28
ENDBRANCH  16  17
ENDBRANCH   4  16
TORSDOF 15
ENDMDL
MODEL 9
REMARK VINA RESULT:      -6.3      9.666     12.286
REMARK  15 active torsions:
REMARK  status: ('A' for Active; 'I' for Inactive)
REMARK    1  A    between atoms: C_6  and  C_3 
REMARK    2  A    between atoms: O_21  and  C_3 
REMARK    3  A    between atoms: C_8  and  C_4 
REMARK    4  A    between atoms: O_22  and  C_4 
REMARK    5  A    between atoms: C_7  and  N_20 
REMARK    6  A    between atoms: C_9  and  N_20 
REMARK    7  A    between atoms: C_10  and  O_23 
REMARK    8  A    between atoms: C_11  and  O_24 
REMARK    9  A    between atoms: C_12  and  O_25 
REMARK   10  A    between atoms: C_13  and  O_26 
REMARK   11  A    between atoms: C_14  and  O_27 
REMARK   12  A    between atoms: C_15  and  O_28 
REMARK   13  A    between atoms: C_16  and  O_29 
REMARK   14  A    between atoms: C_17  and  O_33 
REMARK   15  A    between atoms: C_19  and  O_33 
ROOT
HETATM    1  C   UNK N   1      36.053  13.939  11.167  0.00  0.00     0.180 C 
HETATM    2  C   UNK N   1      36.129  11.941   9.416  0.00  0.00     0.183 C 
HETATM    3  C   UNK N   1      37.094  11.367  10.463  0.00  0.00     0.204 C 
HETATM    4  C   UNK N   1      35.360  13.193   9.978  0.00  0.00     0.187 C 
HETATM    5  C   UNK N   1      36.682  11.708  11.890  0.00  0.00     0.288 C 
HETATM    6  O   UNK N   1      35.422  11.201  12.222  0.00  0.00    -0.369 OA
HETATM    7  O   UNK N   1      36.747  13.110  12.106  0.00  0.00    -0.349 OA
HETATM    8  H   UNK N   1      34.624  10.717  12.485  0.00  0.00     0.212 HD
ENDROOT
BRANCH   3   9
HETATM    9  O   UNK N   1      37.240   9.989  10.287  0.00  0.00    -0.388 OA
HETATM   10  H   UNK N   1      38.033   9.566   9.921  0.00  0.00     0.210 HD
ENDBRANCH   3   9
BRANCH   2  11
HETATM   11  O   UNK N   1      36.877  12.143   8.259  0.00  0.00    -0.390 OA
HETATM   12  H   UNK N   1      37.785  12.429   8.074  0.00  0.00     0.210 HD
ENDBRANCH   2  11
BRANCH   1  13
HETATM   13  C   UNK N   1      35.026  14.704  12.021  0.00  0.00     0.198 C 
BRANCH  13  14
HETATM   14  O   UNK N   1      33.793  14.874  11.396  0.00  0.00    -0.398 OA
HETATM   15  H   UNK N   1      33.657  15.467  10.638  0.00  0.00     0.209 HD
ENDBRANCH  13  14
ENDBRANCH   1  13
BRANCH   4  16
HETATM   16  O   UNK N   1      34.672  14.043   9.043  0.00  0.00    -0.348 OA
BRANCH  16  17
HETATM   17  C   UNK N   1      35.457  15.044   8.387  0.00  0.00     0.292 C 
HETATM   18  C   UNK N   1      35.392  14.897   6.833  0.00  0.00     0.204 C 
HETATM   19  C   UNK N   1      34.480  15.939   6.168  0.00  0.00     0.176 C 
HETATM   20  C   UNK N   1      33.322  16.254   7.099  0.00  0.00     0.137 C 
HETATM   21  C   UNK N   1      33.945  16.931   8.364  0.00  0.00     0.145 C 
HETATM   22  C   UNK N   1      34.274  18.392   8.078  0.00  0.00     0.042 C 
HETATM   23  O   UNK N   1      35.156  16.351   8.851  0.00  0.00    -0.352 OA
BRANCH  18  24
HETATM   24  O   UNK N   1      34.983  13.597   6.516  0.00  0.00    -0.388 OA
HETATM   25  H   UNK N   1      34.564  12.786   6.186  0.00  0.00     0.210 HD
ENDBRANCH  18  24
BRANCH  19  26
HETATM   26  O   UNK N   1      34.040  15.483   4.921  0.00  0.00    -0.391 OA
HETATM   27  H   UNK N   1      33.284  15.768   4.383  0.00  0.00     0.210 HD
ENDBRANCH  19  26
BRANCH  20  28
HETATM   28  N   UNK N   1      32.389  17.176   6.429  0.00  0.00    -0.402 N 
HETATM   29  H   UNK N   1      32.691  18.058   6.015  0.00  0.00     0.154 HD
BRANCH  28  30
HETATM   30  C   UNK N   1      30.991  16.730   6.399  0.00  0.00     0.132 C 
HETATM   31  C   UNK N   1      30.262  17.113   7.670  0.00  0.00     0.008 C 
HETATM   32  C   UNK N   1      29.006  17.606   7.693  0.00  0.00    -0.027 C 
HETATM   33  C   UNK N   1      28.197  17.778   6.419  0.00  0.00     0.180 C 
HETATM   34  C   UNK N   1      28.825  17.077   5.200  0.00  0.00     0.182 C 
HETATM   35  C   UNK N   1      30.323  17.359   5.160  0.00  0.00     0.175 C 
BRANCH  32  36
HETATM   36  C   UNK N   1      28.399  18.067   8.992  0.00  0.00     0.201 C 
BRANCH  36  37
HETATM   37  O   UNK N   1      27.427  19.054   8.802  0.00  0.00    -0.397 OA
HETATM   38  H   UNK N   1      27.235  19.689   9.510  0.00  0.00     0.209 HD
ENDBRANCH  36  37
ENDBRANCH  32  36
BRANCH  33  39
HETATM   39  O   UNK N   1      26.905  17.280   6.602  0.00  0.00    -0.388 OA
HETATM   40  H   UNK N   1      26.165  17.514   7.185  0.00  0.00     0.210 HD
ENDBRANCH  33  39
BRANCH  34  41
HETATM   41  O   UNK N   1      28.205  17.529   4.032  0.00  0.00    -0.390 OA
HETATM   42  H   UNK N   1      27.730  16.917   3.448  0.00  0.00     0.210 HD
ENDBRANCH  34  41
BRANCH  35  43
HETATM   43  O   UNK N   1      30.888  16.821   4.000  0.00  0.00    -0.391 OA
HETATM   44  H   UNK N   1      31.603  16.166   4.036  0.00  0.00     0.210 HD
ENDBRANCH  35  43
ENDBRANCH  28  30
ENDBRANCH  20  28
ENDBRANCH  16  17
ENDBRANCH   4  16
TORSDOF 15
ENDMDL
