REMARK  12 active torsions:
REMARK  status: ('A' for Active; 'I' for Inactive)
REMARK    1  A    between atoms: C_7  and  C_6 
REMARK    2  A    between atoms: C_13  and  C_6 
REMARK    3  A    between atoms: C_14  and  C_7 
REMARK    4  A    between atoms: C_15  and  C_10 
REMARK    5  A    between atoms: N_28  and  C_10 
REMARK    6  A    between atoms: C_14  and  C_11 
REMARK    7  A    between atoms: S_32  and  C_11 
REMARK    8  A    between atoms: C_14  and  C_18 
REMARK    9  A    between atoms: C_17  and  C_16 
REMARK   10  A    between atoms: C_19  and  C_17 
REMARK   11  A    between atoms: N_22  and  C_17 
REMARK       I    between atoms: N_22  and  C_18 
REMARK   12  A    between atoms: O_31  and  C_19 
ROOT
HETATM    1  C   UNK N   1       5.574  -0.131  -0.435  0.00  0.00     0.104 C 
ENDROOT
BRANCH   1   2
HETATM    2  C   UNK N   1       6.528   0.937  -0.822  0.00  0.00     0.131 C 
HETATM    3  C   UNK N   1       6.526   2.042   0.013  0.00  0.00    -0.004 C 
HETATM    4  C   UNK N   1       7.775   2.301   0.597  0.00  0.00     0.013 C 
HETATM    5  C   UNK N   1       8.756   1.428   0.151  0.00  0.00    -0.001 C 
HETATM    6  S   UNK N   1       8.117   0.506  -1.020  0.00  0.00    -0.117 SA
BRANCH   5   7
HETATM    7  C   UNK N   1      10.135   1.360   0.646  0.00  0.00     0.197 C 
BRANCH   7   8
HETATM    8  N   UNK N   1      10.752   2.624   0.344  0.00  0.00    -0.266 N 
HETATM    9  C   UNK N   1      12.058   2.880   0.280  0.00  0.00     0.220 A 
HETATM   10  N   UNK N   1      12.216   4.145  -0.155  0.00  0.00    -0.279 N 
HETATM   11  N   UNK N   1      10.999   4.632  -0.352  0.00  0.00    -0.227 N 
ATOM     12  HN  UNK N   1      13.100   4.633  -0.304  1.00  0.00     0.189 HD
HETATM   13  N   UNK N   1      10.113   3.709  -0.054  0.00  0.00    -0.225 N 
ATOM     14  HN  UNK N   1      10.785   5.573  -0.682  1.00  0.00     0.210 HD
ATOM     15  HN  UNK N   1       9.100   3.813  -0.119  1.00  0.00     0.210 HD
ENDBRANCH   7   8
ENDBRANCH   5   7
ENDBRANCH   1   2
BRANCH   1  16
HETATM   16  C   UNK N   1       6.014  -1.555  -0.336  0.00  0.00     0.190 C 
HETATM   17  O   UNK N   1       5.172  -2.406  -0.112  0.00  0.00    -0.645 OA
BRANCH  16  18
HETATM   18  O   UNK N   1       7.311  -1.904  -0.226  0.00  0.00    -0.772 OA
HETATM   19  H   UNK N   1       7.552  -2.806  -0.150  0.00  0.00     0.167 HD
ENDBRANCH  16  18
ENDBRANCH   1  16
BRANCH   1  20
HETATM   20  N   UNK N   1       4.535   0.104   0.296  0.00  0.00    -0.323 N 
HETATM   21  C   UNK N   1       3.554   0.821   0.900  0.00  0.00     0.227 C 
HETATM   22  O   UNK N   1       2.938   0.263   1.788  0.00  0.00    -0.273 OA
ATOM     23  HN  UNK N   1       4.312  -0.837   0.621  1.00  0.00     0.169 HD
BRANCH  21  24
HETATM   24  C   UNK N   1       3.073   2.186   0.478  0.00  0.00     0.087 C 
BRANCH  24  25
HETATM   25  C   UNK N   1       2.600   2.143  -0.980  0.00  0.00     0.019 C 
BRANCH  25  26
HETATM   26  C   UNK N   1       1.883   0.855  -1.434  0.00  0.00     0.039 C 
BRANCH  26  27
HETATM   27  C   UNK N   1       0.673   0.437  -0.654  0.00  0.00    -0.058 A 
HETATM   28  C   UNK N   1       0.489  -0.918  -0.339  0.00  0.00     0.007 A 
HETATM   29  C   UNK N   1      -0.685  -1.341   0.296  0.00  0.00     0.001 A 
HETATM   30  C   UNK N   1      -1.678  -0.411   0.617  0.00  0.00     0.000 A 
HETATM   31  C   UNK N   1      -1.496   0.940   0.307  0.00  0.00     0.001 A 
HETATM   32  C   UNK N   1      -0.328   1.362  -0.338  0.00  0.00     0.007 A 
ENDBRANCH  26  27
ENDBRANCH  25  26
ENDBRANCH  24  25
BRANCH  24  33
HETATM   33  C   UNK N   1       4.118   3.269   0.750  0.00  0.00     0.084 C 
BRANCH  33  34
HETATM   34  S   UNK N   1       3.971   4.767  -0.283  0.00  0.00    -0.181 SA
HETATM   35  H   UNK N   1       4.882   5.420  -1.052  0.00  0.00     0.101 HD
ENDBRANCH  33  34
ENDBRANCH  24  33
ENDBRANCH  21  24
ENDBRANCH   1  20
TORSDOF 12
