REMARK  6 active torsions:
REMARK  status: ('A' for Active; 'I' for Inactive)
REMARK    1  A    between atoms: C_3  and  C_4 
REMARK    2  A    between atoms: C_4  and  C_5 
REMARK    3  A    between atoms: C_5  and  C_6 
REMARK    4  A    between atoms: C_5  and  C_8 
REMARK    5  A    between atoms: C_6  and  O_7 
REMARK    6  A    between atoms: C_8  and  O_9 
ROOT
HETATM    1  C   UNK N   1       1.965   2.117  -0.503  0.00  0.00     0.056 C 
HETATM    2  C   UNK N   1       0.909   1.090  -0.251  0.00  0.00     0.029 A 
HETATM    3  C   UNK N   1       1.154  -0.291  -0.424  0.00  0.00     0.025 A 
HETATM    4  N   UNK N   1       0.145  -1.176  -0.207  0.00  0.00    -0.312 N 
HETATM    5  C   UNK N   1      -1.101  -0.759   0.181  0.00  0.00     0.327 A 
HETATM    6  O   UNK N   1      -1.988  -1.573   0.358  0.00  0.00    -0.247 OA
HETATM    7  N   UNK N   1      -1.352   0.572   0.359  0.00  0.00    -0.275 N 
HETATM    8  C   UNK N   1      -0.371   1.501   0.151  0.00  0.00     0.257 A 
HETATM    9  O   UNK N   1      -0.620   2.684   0.308  0.00  0.00    -0.267 OA
HETATM   10  H   UNK N   1       0.314  -2.138  -0.331  0.00  0.00     0.170 HD
HETATM   11  H   UNK N   1      -2.249   0.866   0.640  0.00  0.00     0.173 HD
ENDROOT
BRANCH   3  12
HETATM   12  C   UNK N   1       2.478  -0.832  -0.901  0.00  0.00     0.066 C 
BRANCH  12  13
HETATM   13  C   UNK N   1       3.656  -0.575   0.033  0.00  0.00     0.038 C 
BRANCH  13  14
HETATM   14  C   UNK N   1       4.508  -1.839   0.078  0.00  0.00     0.171 C 
BRANCH  14  15
HETATM   15  O   UNK N   1       5.610  -1.673   0.920  0.00  0.00    -0.400 OA
HETATM   16  H   UNK N   1       6.093  -2.278   1.505  0.00  0.00     0.209 HD
ENDBRANCH  14  15
ENDBRANCH  13  14
BRANCH  13  17
HETATM   17  C   UNK N   1       4.481   0.573  -0.536  0.00  0.00     0.171 C 
BRANCH  17  18
HETATM   18  O   UNK N   1       5.347   1.081   0.433  0.00  0.00    -0.400 OA
HETATM   19  H   UNK N   1       5.953   0.736   1.107  0.00  0.00     0.209 HD
ENDBRANCH  17  18
ENDBRANCH  13  17
ENDBRANCH  12  13
ENDBRANCH   3  12
TORSDOF 6
