MODEL 1
REMARK VINA RESULT:      -4.3      0.000      0.000
REMARK  6 active torsions:
REMARK  status: ('A' for Active; 'I' for Inactive)
REMARK    1  A    between atoms: N_2  and  C_5 
REMARK    2  A    between atoms: C_5  and  C_6 
REMARK    3  A    between atoms: C_6  and  O_7 
REMARK    4  A    between atoms: C_6  and  C_8 
REMARK    5  A    between atoms: C_8  and  C_9 
REMARK    6  A    between atoms: C_9  and  O_10 
ROOT
HETATM    1  C   UNK N   1      34.695  16.604   9.947  0.00  0.00     0.154 C 
ENDROOT
BRANCH   1   2
HETATM    2  C   UNK N   1      35.326  15.394   9.249  0.00  0.00     0.268 C 
BRANCH   2   3
HETATM    3  N   UNK N   1      35.525  14.221  10.110  0.00  0.00    -0.076 N 
HETATM    4  C   UNK N   1      35.121  13.046   9.359  0.00  0.00     0.271 C 
HETATM    5  C   UNK N   1      36.910  14.034  10.516  0.00  0.00     0.271 C 
HETATM    6  C   UNK N   1      34.683  14.315  11.291  0.00  0.00     0.271 C 
ENDBRANCH   2   3
ENDBRANCH   1   2
BRANCH   1   7
HETATM    7  O   UNK N   1      35.713  17.475  10.344  0.00  0.00    -0.393 OA
HETATM    8  H   UNK N   1      36.644  17.228  10.226  0.00  0.00     0.210 HD
ENDBRANCH   1   7
BRANCH   1   9
HETATM    9  C   UNK N   1      33.776  17.309   8.950  0.00  0.00     0.143 C 
BRANCH   9  10
HETATM   10  C   UNK N   1      34.484  18.228   7.991  0.00  0.00     0.141 C 
HETATM   11  O   UNK N   1      35.070  19.223   8.389  0.00  0.00    -0.650 OA
BRANCH  10  12
HETATM   12  O   UNK N   1      34.528  17.912   6.684  0.00  0.00    -0.776 OA
HETATM   13  H   UNK N   1      35.346  17.905   6.229  0.00  0.00     0.167 HD
ENDBRANCH  10  12
ENDBRANCH   9  10
ENDBRANCH   1   9
TORSDOF 6
ENDMDL
MODEL 2
REMARK VINA RESULT:      -4.1     15.194     16.443
REMARK  6 active torsions:
REMARK  status: ('A' for Active; 'I' for Inactive)
REMARK    1  A    between atoms: N_2  and  C_5 
REMARK    2  A    between atoms: C_5  and  C_6 
REMARK    3  A    between atoms: C_6  and  O_7 
REMARK    4  A    between atoms: C_6  and  C_8 
REMARK    5  A    between atoms: C_8  and  C_9 
REMARK    6  A    between atoms: C_9  and  O_10 
ROOT
HETATM    1  C   UNK N   1      19.701  18.562   2.572  0.00  0.00     0.154 C 
ENDROOT
BRANCH   1   2
HETATM    2  C   UNK N   1      19.784  17.319   3.466  0.00  0.00     0.268 C 
BRANCH   2   3
HETATM    3  N   UNK N   1      20.457  16.165   2.856  0.00  0.00    -0.076 N 
HETATM    4  C   UNK N   1      19.753  14.968   3.277  0.00  0.00     0.271 C 
HETATM    5  C   UNK N   1      20.450  16.197   1.401  0.00  0.00     0.271 C 
HETATM    6  C   UNK N   1      21.828  16.074   3.331  0.00  0.00     0.271 C 
ENDBRANCH   2   3
ENDBRANCH   1   2
BRANCH   1   7
HETATM    7  O   UNK N   1      18.358  18.914   2.418  0.00  0.00    -0.393 OA
HETATM    8  H   UNK N   1      17.774  18.389   1.848  0.00  0.00     0.210 HD
ENDBRANCH   1   7
BRANCH   1   9
HETATM    9  C   UNK N   1      20.455  19.699   3.258  0.00  0.00     0.143 C 
BRANCH   9  10
HETATM   10  C   UNK N   1      20.939  20.778   2.327  0.00  0.00     0.141 C 
HETATM   11  O   UNK N   1      20.500  20.872   1.191  0.00  0.00    -0.650 OA
BRANCH  10  12
HETATM   12  O   UNK N   1      21.820  21.690   2.774  0.00  0.00    -0.776 OA
HETATM   13  H   UNK N   1      21.885  22.526   2.356  0.00  0.00     0.167 HD
ENDBRANCH  10  12
ENDBRANCH   9  10
ENDBRANCH   1   9
TORSDOF 6
ENDMDL
MODEL 3
REMARK VINA RESULT:      -4.1      2.123      3.111
REMARK  6 active torsions:
REMARK  status: ('A' for Active; 'I' for Inactive)
REMARK    1  A    between atoms: N_2  and  C_5 
REMARK    2  A    between atoms: C_5  and  C_6 
REMARK    3  A    between atoms: C_6  and  O_7 
REMARK    4  A    between atoms: C_6  and  C_8 
REMARK    5  A    between atoms: C_8  and  C_9 
REMARK    6  A    between atoms: C_9  and  O_10 
ROOT
HETATM    1  C   UNK N   1      34.590  14.518  10.919  0.00  0.00     0.154 C 
ENDROOT
BRANCH   1   2
HETATM    2  C   UNK N   1      35.443  14.739  12.173  0.00  0.00     0.268 C 
BRANCH   2   3
HETATM    3  N   UNK N   1      35.963  13.511  12.790  0.00  0.00    -0.076 N 
HETATM    4  C   UNK N   1      36.444  13.851  14.116  0.00  0.00     0.271 C 
HETATM    5  C   UNK N   1      34.957  12.470  12.935  0.00  0.00     0.271 C 
HETATM    6  C   UNK N   1      37.083  12.998  12.019  0.00  0.00     0.271 C 
ENDBRANCH   2   3
ENDBRANCH   1   2
BRANCH   1   7
HETATM    7  O   UNK N   1      33.288  14.951  11.179  0.00  0.00    -0.393 OA
HETATM    8  H   UNK N   1      32.793  14.596  11.934  0.00  0.00     0.210 HD
ENDBRANCH   1   7
BRANCH   1   9
HETATM    9  C   UNK N   1      35.188  15.342   9.780  0.00  0.00     0.143 C 
BRANCH   9  10
HETATM   10  C   UNK N   1      34.791  16.794   9.785  0.00  0.00     0.141 C 
HETATM   11  O   UNK N   1      35.577  17.661  10.136  0.00  0.00    -0.650 OA
BRANCH  10  12
HETATM   12  O   UNK N   1      33.574  17.147   9.334  0.00  0.00    -0.776 OA
HETATM   13  H   UNK N   1      32.843  16.575   9.456  0.00  0.00     0.167 HD
ENDBRANCH  10  12
ENDBRANCH   9  10
ENDBRANCH   1   9
TORSDOF 6
ENDMDL
MODEL 4
REMARK VINA RESULT:      -4.1      3.528      4.945
REMARK  6 active torsions:
REMARK  status: ('A' for Active; 'I' for Inactive)
REMARK    1  A    between atoms: N_2  and  C_5 
REMARK    2  A    between atoms: C_5  and  C_6 
REMARK    3  A    between atoms: C_6  and  O_7 
REMARK    4  A    between atoms: C_6  and  C_8 
REMARK    5  A    between atoms: C_8  and  C_9 
REMARK    6  A    between atoms: C_9  and  O_10 
ROOT
HETATM    1  C   UNK N   1      31.967  17.623   8.177  0.00  0.00     0.154 C 
ENDROOT
BRANCH   1   2
HETATM    2  C   UNK N   1      31.490  16.249   7.695  0.00  0.00     0.268 C 
BRANCH   2   3
HETATM    3  N   UNK N   1      30.757  16.262   6.422  0.00  0.00    -0.076 N 
HETATM    4  C   UNK N   1      30.794  14.918   5.875  0.00  0.00     0.271 C 
HETATM    5  C   UNK N   1      29.361  16.646   6.565  0.00  0.00     0.271 C 
HETATM    6  C   UNK N   1      31.409  17.154   5.477  0.00  0.00     0.271 C 
ENDBRANCH   2   3
ENDBRANCH   1   2
BRANCH   1   7
HETATM    7  O   UNK N   1      31.131  18.052   9.210  0.00  0.00    -0.393 OA
HETATM    8  H   UNK N   1      30.717  18.929   9.176  0.00  0.00     0.210 HD
ENDBRANCH   1   7
BRANCH   1   9
HETATM    9  C   UNK N   1      33.396  17.480   8.699  0.00  0.00     0.143 C 
BRANCH   9  10
HETATM   10  C   UNK N   1      34.431  18.220   7.895  0.00  0.00     0.141 C 
HETATM   11  O   UNK N   1      34.534  18.047   6.690  0.00  0.00    -0.650 OA
BRANCH  10  12
HETATM   12  O   UNK N   1      35.209  19.135   8.502  0.00  0.00    -0.776 OA
HETATM   13  H   UNK N   1      35.287  19.997   8.144  0.00  0.00     0.167 HD
ENDBRANCH  10  12
ENDBRANCH   9  10
ENDBRANCH   1   9
TORSDOF 6
ENDMDL
MODEL 5
REMARK VINA RESULT:      -4.1      3.677      5.248
REMARK  6 active torsions:
REMARK  status: ('A' for Active; 'I' for Inactive)
REMARK    1  A    between atoms: N_2  and  C_5 
REMARK    2  A    between atoms: C_5  and  C_6 
REMARK    3  A    between atoms: C_6  and  O_7 
REMARK    4  A    between atoms: C_6  and  C_8 
REMARK    5  A    between atoms: C_8  and  C_9 
REMARK    6  A    between atoms: C_9  and  O_10 
ROOT
HETATM    1  C   UNK N   1      33.618  16.933   6.520  0.00  0.00     0.154 C 
ENDROOT
BRANCH   1   2
HETATM    2  C   UNK N   1      33.247  17.502   5.146  0.00  0.00     0.268 C 
BRANCH   2   3
HETATM    3  N   UNK N   1      32.157  16.795   4.459  0.00  0.00    -0.076 N 
HETATM    4  C   UNK N   1      32.378  16.921   3.030  0.00  0.00     0.271 C 
HETATM    5  C   UNK N   1      32.101  15.376   4.777  0.00  0.00     0.271 C 
HETATM    6  C   UNK N   1      30.880  17.413   4.777  0.00  0.00     0.271 C 
ENDBRANCH   2   3
ENDBRANCH   1   2
BRANCH   1   7
HETATM    7  O   UNK N   1      34.965  16.566   6.505  0.00  0.00    -0.393 OA
HETATM    8  H   UNK N   1      35.557  16.896   5.811  0.00  0.00     0.210 HD
ENDBRANCH   1   7
BRANCH   1   9
HETATM    9  C   UNK N   1      33.394  18.023   7.567  0.00  0.00     0.143 C 
BRANCH   9  10
HETATM   10  C   UNK N   1      34.551  18.233   8.506  0.00  0.00     0.141 C 
HETATM   11  O   UNK N   1      35.296  19.194   8.382  0.00  0.00    -0.650 OA
BRANCH  10  12
HETATM   12  O   UNK N   1      34.729  17.386   9.535  0.00  0.00    -0.776 OA
HETATM   13  H   UNK N   1      35.052  16.521   9.382  0.00  0.00     0.167 HD
ENDBRANCH  10  12
ENDBRANCH   9  10
ENDBRANCH   1   9
TORSDOF 6
ENDMDL
MODEL 6
REMARK VINA RESULT:      -3.9      1.502      2.062
REMARK  6 active torsions:
REMARK  status: ('A' for Active; 'I' for Inactive)
REMARK    1  A    between atoms: N_2  and  C_5 
REMARK    2  A    between atoms: C_5  and  C_6 
REMARK    3  A    between atoms: C_6  and  O_7 
REMARK    4  A    between atoms: C_6  and  C_8 
REMARK    5  A    between atoms: C_8  and  C_9 
REMARK    6  A    between atoms: C_9  and  O_10 
ROOT
HETATM    1  C   UNK N   1      33.207  16.229   8.869  0.00  0.00     0.154 C 
ENDROOT
BRANCH   1   2
HETATM    2  C   UNK N   1      34.384  15.965   9.813  0.00  0.00     0.268 C 
BRANCH   2   3
HETATM    3  N   UNK N   1      35.192  14.785   9.478  0.00  0.00    -0.076 N 
HETATM    4  C   UNK N   1      36.502  14.958  10.078  0.00  0.00     0.271 C 
HETATM    5  C   UNK N   1      34.632  13.541   9.985  0.00  0.00     0.271 C 
HETATM    6  C   UNK N   1      35.363  14.686   8.037  0.00  0.00     0.271 C 
ENDBRANCH   2   3
ENDBRANCH   1   2
BRANCH   1   7
HETATM    7  O   UNK N   1      32.031  15.794   9.484  0.00  0.00    -0.393 OA
HETATM    8  H   UNK N   1      31.295  15.454   8.952  0.00  0.00     0.210 HD
ENDBRANCH   1   7
BRANCH   1   9
HETATM    9  C   UNK N   1      33.126  17.733   8.611  0.00  0.00     0.143 C 
BRANCH   9  10
HETATM   10  C   UNK N   1      34.300  18.301   7.860  0.00  0.00     0.141 C 
HETATM   11  O   UNK N   1      35.050  19.112   8.383  0.00  0.00    -0.650 OA
BRANCH  10  12
HETATM   12  O   UNK N   1      34.566  17.860   6.617  0.00  0.00    -0.776 OA
HETATM   13  H   UNK N   1      35.218  17.202   6.481  0.00  0.00     0.167 HD
ENDBRANCH  10  12
ENDBRANCH   9  10
ENDBRANCH   1   9
TORSDOF 6
ENDMDL
MODEL 7
REMARK VINA RESULT:      -3.9     11.338     12.335
REMARK  6 active torsions:
REMARK  status: ('A' for Active; 'I' for Inactive)
REMARK    1  A    between atoms: N_2  and  C_5 
REMARK    2  A    between atoms: C_5  and  C_6 
REMARK    3  A    between atoms: C_6  and  O_7 
REMARK    4  A    between atoms: C_6  and  C_8 
REMARK    5  A    between atoms: C_8  and  C_9 
REMARK    6  A    between atoms: C_9  and  O_10 
ROOT
HETATM    1  C   UNK N   1      42.759  22.305   2.473  0.00  0.00     0.154 C 
ENDROOT
BRANCH   1   2
HETATM    2  C   UNK N   1      41.312  21.850   2.260  0.00  0.00     0.268 C 
BRANCH   2   3
HETATM    3  N   UNK N   1      40.945  21.593   0.861  0.00  0.00    -0.076 N 
HETATM    4  C   UNK N   1      39.843  20.649   0.858  0.00  0.00     0.271 C 
HETATM    5  C   UNK N   1      40.509  22.787   0.152  0.00  0.00     0.271 C 
HETATM    6  C   UNK N   1      42.061  20.990   0.152  0.00  0.00     0.271 C 
ENDBRANCH   2   3
ENDBRANCH   1   2
BRANCH   1   7
HETATM    7  O   UNK N   1      42.755  23.643   2.877  0.00  0.00    -0.393 OA
HETATM    8  H   UNK N   1      43.227  23.915   3.679  0.00  0.00     0.210 HD
ENDBRANCH   1   7
BRANCH   1   9
HETATM    9  C   UNK N   1      43.380  21.440   3.569  0.00  0.00     0.143 C 
BRANCH   9  10
HETATM   10  C   UNK N   1      44.316  22.175   4.489  0.00  0.00     0.141 C 
HETATM   11  O   UNK N   1      43.903  22.726   5.499  0.00  0.00    -0.650 OA
BRANCH  10  12
HETATM   12  O   UNK N   1      45.636  22.169   4.231  0.00  0.00    -0.776 OA
HETATM   13  H   UNK N   1      46.008  22.819   3.670  0.00  0.00     0.167 HD
ENDBRANCH  10  12
ENDBRANCH   9  10
ENDBRANCH   1   9
TORSDOF 6
ENDMDL
MODEL 8
REMARK VINA RESULT:      -3.8      4.533      5.326
REMARK  6 active torsions:
REMARK  status: ('A' for Active; 'I' for Inactive)
REMARK    1  A    between atoms: N_2  and  C_5 
REMARK    2  A    between atoms: C_5  and  C_6 
REMARK    3  A    between atoms: C_6  and  O_7 
REMARK    4  A    between atoms: C_6  and  C_8 
REMARK    5  A    between atoms: C_8  and  C_9 
REMARK    6  A    between atoms: C_9  and  O_10 
ROOT
HETATM    1  C   UNK N   1      30.463  17.388   8.903  0.00  0.00     0.154 C 
ENDROOT
BRANCH   1   2
HETATM    2  C   UNK N   1      31.781  17.678   8.177  0.00  0.00     0.268 C 
BRANCH   2   3
HETATM    3  N   UNK N   1      32.790  16.615   8.281  0.00  0.00    -0.076 N 
HETATM    4  C   UNK N   1      32.202  15.517   9.026  0.00  0.00     0.271 C 
HETATM    5  C   UNK N   1      33.216  16.098   6.989  0.00  0.00     0.271 C 
HETATM    6  C   UNK N   1      33.948  17.093   9.018  0.00  0.00     0.271 C 
ENDBRANCH   2   3
ENDBRANCH   1   2
BRANCH   1   7
HETATM    7  O   UNK N   1      30.284  18.343   9.907  0.00  0.00    -0.393 OA
HETATM    8  H   UNK N   1      30.880  19.106   9.972  0.00  0.00     0.210 HD
ENDBRANCH   1   7
BRANCH   1   9
HETATM    9  C   UNK N   1      29.324  17.488   7.890  0.00  0.00     0.143 C 
BRANCH   9  10
HETATM   10  C   UNK N   1      28.231  18.449   8.273  0.00  0.00     0.141 C 
HETATM   11  O   UNK N   1      28.002  19.443   7.600  0.00  0.00    -0.650 OA
BRANCH  10  12
HETATM   12  O   UNK N   1      27.452  18.174   9.334  0.00  0.00    -0.776 OA
HETATM   13  H   UNK N   1      27.228  17.288   9.537  0.00  0.00     0.167 HD
ENDBRANCH  10  12
ENDBRANCH   9  10
ENDBRANCH   1   9
TORSDOF 6
ENDMDL
MODEL 9
REMARK VINA RESULT:      -3.8      3.230      4.713
REMARK  6 active torsions:
REMARK  status: ('A' for Active; 'I' for Inactive)
REMARK    1  A    between atoms: N_2  and  C_5 
REMARK    2  A    between atoms: C_5  and  C_6 
REMARK    3  A    between atoms: C_6  and  O_7 
REMARK    4  A    between atoms: C_6  and  C_8 
REMARK    5  A    between atoms: C_8  and  C_9 
REMARK    6  A    between atoms: C_9  and  O_10 
ROOT
HETATM    1  C   UNK N   1      35.224  13.521  12.147  0.00  0.00     0.154 C 
ENDROOT
BRANCH   1   2
HETATM    2  C   UNK N   1      35.608  13.779  13.608  0.00  0.00     0.268 C 
BRANCH   2   3
HETATM    3  N   UNK N   1      35.429  12.631  14.506  0.00  0.00    -0.076 N 
HETATM    4  C   UNK N   1      36.740  12.067  14.771  0.00  0.00     0.271 C 
HETATM    5  C   UNK N   1      34.832  12.986  15.785  0.00  0.00     0.271 C 
HETATM    6  C   UNK N   1      34.619  11.610  13.861  0.00  0.00     0.271 C 
ENDBRANCH   2   3
ENDBRANCH   1   2
BRANCH   1   7
HETATM    7  O   UNK N   1      34.239  14.437  11.773  0.00  0.00    -0.393 OA
HETATM    8  H   UNK N   1      33.424  14.522  12.292  0.00  0.00     0.210 HD
ENDBRANCH   1   7
BRANCH   1   9
HETATM    9  C   UNK N   1      36.467  13.719  11.282  0.00  0.00     0.143 C 
BRANCH   9  10
HETATM   10  C   UNK N   1      36.432  14.947  10.412  0.00  0.00     0.141 C 
HETATM   11  O   UNK N   1      35.973  14.904   9.280  0.00  0.00    -0.650 OA
BRANCH  10  12
HETATM   12  O   UNK N   1      36.852  16.123  10.912  0.00  0.00    -0.776 OA
HETATM   13  H   UNK N   1      36.763  16.304  11.826  0.00  0.00     0.167 HD
ENDBRANCH  10  12
ENDBRANCH   9  10
ENDBRANCH   1   9
TORSDOF 6
ENDMDL
