MODEL 1
REMARK VINA RESULT:      -5.4      0.000      0.000
REMARK WARNING: 32 MAX_TORS EXCEEDED!!!
REMARK  48 active torsions:
REMARK  status: ('A' for Active; 'I' for Inactive)
REMARK    1  A    between atoms: C_3  and  C_1 
REMARK    2  A    between atoms: C_11  and  C_1 
REMARK    3  A    between atoms: C_4  and  C_2 
REMARK    4  A    between atoms: C_12  and  C_2 
REMARK    5  A    between atoms: C_13  and  C_3 
REMARK    6  A    between atoms: C_14  and  C_4 
REMARK    7  A    between atoms: C_15  and  C_5 
REMARK    8  A    between atoms: C_17  and  C_5 
REMARK    9  A    between atoms: C_16  and  C_6 
REMARK   10  A    between atoms: C_18  and  C_6 
REMARK   11  A    between atoms: C_9  and  C_7 
REMARK   12  A    between atoms: C_23  and  C_7 
REMARK   13  A    between atoms: C_10  and  C_8 
REMARK   14  A    between atoms: C_24  and  C_8 
REMARK   15  A    between atoms: C_27  and  C_9 
REMARK   16  A    between atoms: C_28  and  C_10 
REMARK   17  A    between atoms: N_35  and  C_11 
REMARK   18  A    between atoms: N_36  and  C_12 
REMARK   19  A    between atoms: N_39  and  C_13 
REMARK   20  A    between atoms: N_40  and  C_14 
REMARK   21  A    between atoms: N_39  and  C_15 
REMARK   22  A    between atoms: N_40  and  C_16 
REMARK   23  A    between atoms: N_41  and  C_17 
REMARK   24  A    between atoms: N_43  and  C_18 
REMARK   25  A    between atoms: C_29  and  C_19 
REMARK   26  A    between atoms: N_45  and  C_19 
REMARK   27  A    between atoms: C_30  and  C_20 
REMARK   28  A    between atoms: N_47  and  C_20 
REMARK   29  A    between atoms: C_25  and  C_21 
REMARK   30  A    between atoms: S_63  and  C_21 
REMARK   31  A    between atoms: C_26  and  C_22 
REMARK   32  A    between atoms: S_64  and  C_22 
REMARK   33  A    between atoms: C_33  and  C_23 
REMARK   34  A    between atoms: C_23  and  N_37 
REMARK   35  A    between atoms: C_34  and  C_24 
REMARK   36  A    between atoms: C_24  and  N_38 
REMARK   37  A    between atoms: C_31  and  C_25 
REMARK   38  A    between atoms: C_25  and  N_49 
REMARK   39  A    between atoms: C_32  and  C_26 
REMARK   40  A    between atoms: C_26  and  N_51 
REMARK   41  A    between atoms: C_27  and  O_53 
REMARK   42  A    between atoms: C_28  and  O_54 
REMARK   43  A    between atoms: O_56  and  C_30 
REMARK   44  A    between atoms: O_57  and  C_31 
REMARK   45  A    between atoms: O_58  and  C_32 
REMARK   46  A    between atoms: O_60  and  C_33 
REMARK   47  A    between atoms: O_62  and  C_34 
REMARK   48  A    between atoms: S_64  and  S_63 
ROOT
HETATM    1  C   UNK N   1      20.620  17.450   7.453  0.00  0.00     0.129 C 
HETATM    2  N   UNK N   1      20.298  16.812   8.524  0.00  0.00    -0.373 N 
ATOM      3  HN  UNK N   1      20.190  17.344   9.387  1.00  0.00     0.161 HD
HETATM    4  O   UNK N   1      20.812  18.780   7.521  0.00  0.00    -0.348 OA
HETATM    5  H   UNK N   1      20.856  19.713   7.582  0.00  0.00     0.219 HD
ENDROOT
BRANCH   1   6
HETATM    6  C   UNK N   1      20.709  16.783   6.107  0.00  0.00     0.205 C 
BRANCH   6   7
HETATM    7  N   UNK N   1      22.013  16.266   5.732  0.00  0.00    -0.365 N 
HETATM    8  C   UNK N   1      23.048  17.012   5.515  0.00  0.00     0.135 C 
ATOM      9  HN  UNK N   1      22.119  15.256   5.633  1.00  0.00     0.161 HD
BRANCH   8  10
HETATM   10  C   UNK N   1      24.334  16.383   5.006  0.00  0.00     0.168 C 
BRANCH  10  11
HETATM   11  C   UNK N   1      24.221  15.814   3.583  0.00  0.00     0.119 C 
BRANCH  11  12
HETATM   12  S   UNK N   1      24.446  14.029   3.365  0.00  0.00    -0.095 SA
BRANCH  12  13
HETATM   13  S   UNK N   1      24.158  14.318   1.269  0.00  0.00    -0.095 SA
BRANCH  13  14
HETATM   14  C   UNK N   1      22.577  13.419   1.211  0.00  0.00     0.119 C 
BRANCH  14  15
HETATM   15  C   UNK N   1      21.343  14.234   1.616  0.00  0.00     0.168 C 
BRANCH  15  16
HETATM   16  C   UNK N   1      20.180  13.291   1.542  0.00  0.00     0.135 C 
HETATM   17  N   UNK N   1      19.623  12.912   2.636  0.00  0.00    -0.365 N 
ATOM     18  HN  UNK N   1      19.970  13.304   3.512  1.00  0.00     0.161 HD
BRANCH  17  19
HETATM   19  C   UNK N   1      18.541  11.971   2.697  0.00  0.00     0.205 C 
BRANCH  19  20
HETATM   20  C   UNK N   1      18.864  10.736   3.525  0.00  0.00     0.129 C 
HETATM   21  N   UNK N   1      19.441   9.663   3.073  0.00  0.00    -0.373 N 
ATOM     22  HN  UNK N   1      19.615   8.913   3.741  1.00  0.00     0.161 HD
BRANCH  21  23
HETATM   23  C   UNK N   1      19.858   9.436   1.708  0.00  0.00     0.123 C 
BRANCH  23  24
HETATM   24  C   UNK N   1      21.331   9.766   1.543  0.00  0.00     0.039 C 
BRANCH  24  25
HETATM   25  C   UNK N   1      22.170   8.969   2.523  0.00  0.00     0.115 C 
BRANCH  25  26
HETATM   26  N   UNK N   1      23.227   9.809   3.059  0.00  0.00    -0.421 N 
HETATM   27  H   UNK N   1      24.223   9.740   2.842  0.00  0.00     0.153 HD
BRANCH  26  28
HETATM   28  C   UNK N   1      22.605  10.761   3.958  0.00  0.00     0.113 C 
BRANCH  28  29
HETATM   29  C   UNK N   1      22.373  10.114   5.308  0.00  0.00     0.021 C 
BRANCH  29  30
HETATM   30  C   UNK N   1      22.094  11.190   6.339  0.00  0.00     0.021 C 
BRANCH  30  31
HETATM   31  C   UNK N   1      21.688  12.481   5.654  0.00  0.00     0.111 C 
BRANCH  31  32
HETATM   32  N   UNK N   1      20.373  12.892   6.115  0.00  0.00    -0.430 N 
HETATM   33  H   UNK N   1      19.458  12.914   5.666  0.00  0.00     0.149 HD
HETATM   34  H   UNK N   1      20.364  13.227   7.079  0.00  0.00     0.149 HD
ENDBRANCH  31  32
ENDBRANCH  30  31
ENDBRANCH  29  30
ENDBRANCH  28  29
ENDBRANCH  26  28
ENDBRANCH  25  26
ENDBRANCH  24  25
ENDBRANCH  23  24
ENDBRANCH  21  23
BRANCH  20  35
HETATM   35  O   UNK N   1      18.515  10.766   4.824  0.00  0.00    -0.348 OA
HETATM   36  H   UNK N   1      19.070  10.377   5.471  0.00  0.00     0.219 HD
ENDBRANCH  20  35
ENDBRANCH  19  20
ENDBRANCH  17  19
BRANCH  16  37
HETATM   37  O   UNK N   1      19.753  12.819   0.358  0.00  0.00    -0.348 OA
HETATM   38  H   UNK N   1      20.357  12.549  -0.307  0.00  0.00     0.219 HD
ENDBRANCH  16  37
ENDBRANCH  15  16
BRANCH  15  39
HETATM   39  N   UNK N   1      21.043  15.310   0.681  0.00  0.00    -0.362 N 
HETATM   40  C   UNK N   1      20.527  16.462   0.943  0.00  0.00     0.111 C 
ATOM     41  HN  UNK N   1      21.268  15.130  -0.298  1.00  0.00     0.162 HD
BRANCH  40  42
HETATM   42  C   UNK N   1      20.168  16.881   2.334  0.00  0.00     0.086 C 
BRANCH  42  43
HETATM   43  C   UNK N   1      20.909  18.148   2.774  0.00  0.00     0.043 C 
BRANCH  43  44
HETATM   44  C   UNK N   1      20.095  19.442   2.696  0.00  0.00     0.173 C 
BRANCH  44  45
HETATM   45  C   UNK N   1      20.681  20.408   1.696  0.00  0.00     0.163 C 
HETATM   46  O   UNK N   1      20.899  20.050   0.551  0.00  0.00    -0.648 OA
BRANCH  45  47
HETATM   47  O   UNK N   1      20.992  21.668   2.064  0.00  0.00    -0.775 OA
HETATM   48  H   UNK N   1      20.869  21.963   2.945  0.00  0.00     0.167 HD
ENDBRANCH  45  47
ENDBRANCH  44  45
BRANCH  44  49
HETATM   49  N   UNK N   1      18.740  19.094   2.304  0.00  0.00    -0.418 N 
HETATM   50  H   UNK N   1      17.866  19.424   2.713  0.00  0.00     0.150 HD
HETATM   51  H   UNK N   1      18.652  18.440   1.525  0.00  0.00     0.150 HD
ENDBRANCH  44  49
ENDBRANCH  43  44
ENDBRANCH  42  43
ENDBRANCH  40  42
BRANCH  40  52
HETATM   52  O   UNK N   1      20.261  17.299  -0.078  0.00  0.00    -0.350 OA
HETATM   53  H   UNK N   1      20.381  17.395  -1.003  0.00  0.00     0.219 HD
ENDBRANCH  40  52
ENDBRANCH  15  39
ENDBRANCH  14  15
ENDBRANCH  13  14
ENDBRANCH  12  13
ENDBRANCH  11  12
ENDBRANCH  10  11
BRANCH  10  54
HETATM   54  N   UNK N   1      25.448  17.329   5.051  0.00  0.00    -0.362 N 
HETATM   55  C   UNK N   1      26.432  17.295   5.898  0.00  0.00     0.111 C 
ATOM     56  HN  UNK N   1      25.451  18.079   4.359  1.00  0.00     0.162 HD
BRANCH  55  57
HETATM   57  C   UNK N   1      27.501  18.344   5.845  0.00  0.00     0.086 C 
BRANCH  57  58
HETATM   58  C   UNK N   1      27.791  18.985   7.206  0.00  0.00     0.043 C 
BRANCH  58  59
HETATM   59  C   UNK N   1      29.034  18.461   7.930  0.00  0.00     0.173 C 
BRANCH  59  60
HETATM   60  C   UNK N   1      28.731  18.060   9.346  0.00  0.00     0.163 C 
HETATM   61  O   UNK N   1      27.738  17.396   9.596  0.00  0.00    -0.648 OA
BRANCH  60  62
HETATM   62  O   UNK N   1      29.544  18.446  10.349  0.00  0.00    -0.775 OA
HETATM   63  H   UNK N   1      29.386  19.007  11.084  0.00  0.00     0.167 HD
ENDBRANCH  60  62
ENDBRANCH  59  60
BRANCH  59  64
HETATM   64  N   UNK N   1      29.535  17.305   7.208  0.00  0.00    -0.418 N 
HETATM   65  H   UNK N   1      29.247  16.329   7.143  0.00  0.00     0.150 HD
HETATM   66  H   UNK N   1      30.358  17.515   6.642  0.00  0.00     0.150 HD
ENDBRANCH  59  64
ENDBRANCH  58  59
ENDBRANCH  57  58
ENDBRANCH  55  57
BRANCH  55  67
HETATM   67  O   UNK N   1      26.506  16.346   6.855  0.00  0.00    -0.350 OA
HETATM   68  H   UNK N   1      25.875  16.295   7.545  0.00  0.00     0.219 HD
ENDBRANCH  55  67
ENDBRANCH  10  54
ENDBRANCH   8  10
BRANCH   8  69
HETATM   69  O   UNK N   1      22.988  18.341   5.742  0.00  0.00    -0.348 OA
HETATM   70  H   UNK N   1      23.008  19.181   6.157  0.00  0.00     0.219 HD
ENDBRANCH   8  69
ENDBRANCH   6   7
ENDBRANCH   1   6
BRANCH   2  71
HETATM   71  C   UNK N   1      20.078  15.388   8.570  0.00  0.00     0.123 C 
BRANCH  71  72
HETATM   72  C   UNK N   1      21.252  14.712   9.270  0.00  0.00     0.039 C 
BRANCH  72  73
HETATM   73  C   UNK N   1      20.822  13.490  10.081  0.00  0.00     0.115 C 
BRANCH  73  74
HETATM   74  N   UNK N   1      21.660  12.343   9.750  0.00  0.00    -0.421 N 
HETATM   75  H   UNK N   1      21.401  11.580   9.124  0.00  0.00     0.153 HD
BRANCH  74  76
HETATM   76  C   UNK N   1      22.926  12.462  10.459  0.00  0.00     0.113 C 
BRANCH  76  77
HETATM   77  C   UNK N   1      24.087  12.046   9.569  0.00  0.00     0.021 C 
BRANCH  77  78
HETATM   78  C   UNK N   1      24.878  13.274   9.155  0.00  0.00     0.021 C 
BRANCH  78  79
HETATM   79  C   UNK N   1      24.497  13.709   7.755  0.00  0.00     0.111 C 
BRANCH  79  80
HETATM   80  N   UNK N   1      25.527  13.304   6.815  0.00  0.00    -0.430 N 
HETATM   81  H   UNK N   1      25.406  12.502   6.198  0.00  0.00     0.149 HD
HETATM   82  H   UNK N   1      26.396  13.837   6.772  0.00  0.00     0.149 HD
ENDBRANCH  79  80
ENDBRANCH  78  79
ENDBRANCH  77  78
ENDBRANCH  76  77
ENDBRANCH  74  76
ENDBRANCH  73  74
ENDBRANCH  72  73
ENDBRANCH  71  72
ENDBRANCH   2  71
TORSDOF 48
ENDMDL
MODEL 2
REMARK VINA RESULT:      -5.3      3.111      9.285
REMARK WARNING: 32 MAX_TORS EXCEEDED!!!
REMARK  48 active torsions:
REMARK  status: ('A' for Active; 'I' for Inactive)
REMARK    1  A    between atoms: C_3  and  C_1 
REMARK    2  A    between atoms: C_11  and  C_1 
REMARK    3  A    between atoms: C_4  and  C_2 
REMARK    4  A    between atoms: C_12  and  C_2 
REMARK    5  A    between atoms: C_13  and  C_3 
REMARK    6  A    between atoms: C_14  and  C_4 
REMARK    7  A    between atoms: C_15  and  C_5 
REMARK    8  A    between atoms: C_17  and  C_5 
REMARK    9  A    between atoms: C_16  and  C_6 
REMARK   10  A    between atoms: C_18  and  C_6 
REMARK   11  A    between atoms: C_9  and  C_7 
REMARK   12  A    between atoms: C_23  and  C_7 
REMARK   13  A    between atoms: C_10  and  C_8 
REMARK   14  A    between atoms: C_24  and  C_8 
REMARK   15  A    between atoms: C_27  and  C_9 
REMARK   16  A    between atoms: C_28  and  C_10 
REMARK   17  A    between atoms: N_35  and  C_11 
REMARK   18  A    between atoms: N_36  and  C_12 
REMARK   19  A    between atoms: N_39  and  C_13 
REMARK   20  A    between atoms: N_40  and  C_14 
REMARK   21  A    between atoms: N_39  and  C_15 
REMARK   22  A    between atoms: N_40  and  C_16 
REMARK   23  A    between atoms: N_41  and  C_17 
REMARK   24  A    between atoms: N_43  and  C_18 
REMARK   25  A    between atoms: C_29  and  C_19 
REMARK   26  A    between atoms: N_45  and  C_19 
REMARK   27  A    between atoms: C_30  and  C_20 
REMARK   28  A    between atoms: N_47  and  C_20 
REMARK   29  A    between atoms: C_25  and  C_21 
REMARK   30  A    between atoms: S_63  and  C_21 
REMARK   31  A    between atoms: C_26  and  C_22 
REMARK   32  A    between atoms: S_64  and  C_22 
REMARK   33  A    between atoms: C_33  and  C_23 
REMARK   34  A    between atoms: C_23  and  N_37 
REMARK   35  A    between atoms: C_34  and  C_24 
REMARK   36  A    between atoms: C_24  and  N_38 
REMARK   37  A    between atoms: C_31  and  C_25 
REMARK   38  A    between atoms: C_25  and  N_49 
REMARK   39  A    between atoms: C_32  and  C_26 
REMARK   40  A    between atoms: C_26  and  N_51 
REMARK   41  A    between atoms: C_27  and  O_53 
REMARK   42  A    between atoms: C_28  and  O_54 
REMARK   43  A    between atoms: O_56  and  C_30 
REMARK   44  A    between atoms: O_57  and  C_31 
REMARK   45  A    between atoms: O_58  and  C_32 
REMARK   46  A    between atoms: O_60  and  C_33 
REMARK   47  A    between atoms: O_62  and  C_34 
REMARK   48  A    between atoms: S_64  and  S_63 
ROOT
HETATM    1  C   UNK N   1      20.612  20.131   1.327  0.00  0.00     0.129 C 
HETATM    2  N   UNK N   1      19.919  19.093   1.641  0.00  0.00    -0.373 N 
ATOM      3  HN  UNK N   1      19.468  18.571   0.890  1.00  0.00     0.161 HD
HETATM    4  O   UNK N   1      20.702  20.487   0.033  0.00  0.00    -0.348 OA
HETATM    5  H   UNK N   1      20.813  20.660  -0.881  0.00  0.00     0.219 HD
ENDROOT
BRANCH   1   6
HETATM    6  C   UNK N   1      21.399  20.918   2.340  0.00  0.00     0.205 C 
BRANCH   6   7
HETATM    7  N   UNK N   1      22.274  20.151   3.208  0.00  0.00    -0.365 N 
HETATM    8  C   UNK N   1      23.562  20.116   3.084  0.00  0.00     0.135 C 
ATOM      9  HN  UNK N   1      21.849  19.607   3.960  1.00  0.00     0.161 HD
BRANCH   8  10
HETATM   10  C   UNK N   1      24.376  19.184   3.966  0.00  0.00     0.168 C 
BRANCH  10  11
HETATM   11  C   UNK N   1      25.515  19.888   4.721  0.00  0.00     0.119 C 
BRANCH  11  12
HETATM   12  S   UNK N   1      27.085  20.131   3.850  0.00  0.00    -0.095 SA
BRANCH  12  13
HETATM   13  S   UNK N   1      27.471  18.047   4.105  0.00  0.00    -0.095 SA
BRANCH  13  14
HETATM   14  C   UNK N   1      28.240  18.240   5.744  0.00  0.00     0.119 C 
BRANCH  14  15
HETATM   15  C   UNK N   1      29.336  17.220   6.079  0.00  0.00     0.168 C 
BRANCH  15  16
HETATM   16  C   UNK N   1      28.733  15.869   5.837  0.00  0.00     0.135 C 
HETATM   17  N   UNK N   1      29.370  15.033   5.099  0.00  0.00    -0.365 N 
ATOM     18  HN  UNK N   1      30.285  15.309   4.741  1.00  0.00     0.161 HD
BRANCH  17  19
HETATM   19  C   UNK N   1      28.870  13.734   4.750  0.00  0.00     0.205 C 
BRANCH  19  20
HETATM   20  C   UNK N   1      28.340  13.655   3.325  0.00  0.00     0.129 C 
HETATM   21  N   UNK N   1      27.084  13.595   2.999  0.00  0.00    -0.373 N 
ATOM     22  HN  UNK N   1      26.865  13.563   2.003  1.00  0.00     0.161 HD
BRANCH  21  23
HETATM   23  C   UNK N   1      25.969  13.566   3.917  0.00  0.00     0.123 C 
BRANCH  23  24
HETATM   24  C   UNK N   1      25.874  12.209   4.593  0.00  0.00     0.039 C 
BRANCH  24  25
HETATM   25  C   UNK N   1      25.090  12.311   5.887  0.00  0.00     0.115 C 
BRANCH  25  26
HETATM   26  N   UNK N   1      25.643  13.372   6.712  0.00  0.00    -0.421 N 
HETATM   27  H   UNK N   1      26.508  13.885   6.539  0.00  0.00     0.153 HD
BRANCH  26  28
HETATM   28  C   UNK N   1      24.736  13.565   7.827  0.00  0.00     0.113 C 
BRANCH  28  29
HETATM   29  C   UNK N   1      24.189  12.227   8.280  0.00  0.00     0.021 C 
BRANCH  29  30
HETATM   30  C   UNK N   1      24.322  12.115   9.786  0.00  0.00     0.021 C 
BRANCH  30  31
HETATM   31  C   UNK N   1      23.127  12.754  10.468  0.00  0.00     0.111 C 
BRANCH  31  32
HETATM   32  N   UNK N   1      21.900  12.137   9.994  0.00  0.00    -0.430 N 
HETATM   33  H   UNK N   1      21.680  11.198   9.663  0.00  0.00     0.149 HD
HETATM   34  H   UNK N   1      21.099  12.770   9.991  0.00  0.00     0.149 HD
ENDBRANCH  31  32
ENDBRANCH  30  31
ENDBRANCH  29  30
ENDBRANCH  28  29
ENDBRANCH  26  28
ENDBRANCH  25  26
ENDBRANCH  24  25
ENDBRANCH  23  24
ENDBRANCH  21  23
BRANCH  20  35
HETATM   35  O   UNK N   1      29.252  13.644   2.337  0.00  0.00    -0.348 OA
HETATM   36  H   UNK N   1      29.422  12.855   1.860  0.00  0.00     0.219 HD
ENDBRANCH  20  35
ENDBRANCH  19  20
ENDBRANCH  17  19
BRANCH  16  37
HETATM   37  O   UNK N   1      27.530  15.553   6.347  0.00  0.00    -0.348 OA
HETATM   38  H   UNK N   1      26.935  14.993   5.886  0.00  0.00     0.219 HD
ENDBRANCH  16  37
ENDBRANCH  15  16
BRANCH  15  39
HETATM   39  N   UNK N   1      29.717  17.240   7.484  0.00  0.00    -0.362 N 
HETATM   40  C   UNK N   1      30.908  17.228   7.980  0.00  0.00     0.111 C 
ATOM     41  HN  UNK N   1      28.950  17.265   8.158  1.00  0.00     0.162 HD
BRANCH  40  42
HETATM   42  C   UNK N   1      32.132  17.217   7.119  0.00  0.00     0.086 C 
BRANCH  42  43
HETATM   43  C   UNK N   1      33.276  18.045   7.716  0.00  0.00     0.043 C 
BRANCH  43  44
HETATM   44  C   UNK N   1      34.543  17.258   8.058  0.00  0.00     0.173 C 
BRANCH  44  45
HETATM   45  C   UNK N   1      34.643  16.982   9.538  0.00  0.00     0.163 C 
HETATM   46  O   UNK N   1      35.514  17.515  10.204  0.00  0.00    -0.648 OA
BRANCH  45  47
HETATM   47  O   UNK N   1      33.787  16.126  10.133  0.00  0.00    -0.775 OA
HETATM   48  H   UNK N   1      33.141  15.661   9.640  0.00  0.00     0.167 HD
ENDBRANCH  45  47
ENDBRANCH  44  45
BRANCH  44  49
HETATM   49  N   UNK N   1      34.499  16.002   7.329  0.00  0.00    -0.418 N 
HETATM   50  H   UNK N   1      35.285  15.438   7.008  0.00  0.00     0.150 HD
HETATM   51  H   UNK N   1      33.570  15.642   7.111  0.00  0.00     0.150 HD
ENDBRANCH  44  49
ENDBRANCH  43  44
ENDBRANCH  42  43
ENDBRANCH  40  42
BRANCH  40  52
HETATM   52  O   UNK N   1      31.052  17.179   9.318  0.00  0.00    -0.350 OA
HETATM   53  H   UNK N   1      30.696  16.771  10.083  0.00  0.00     0.219 HD
ENDBRANCH  40  52
ENDBRANCH  15  39
ENDBRANCH  14  15
ENDBRANCH  13  14
ENDBRANCH  12  13
ENDBRANCH  11  12
ENDBRANCH  10  11
BRANCH  10  54
HETATM   54  N   UNK N   1      23.530  18.482   4.930  0.00  0.00    -0.362 N 
HETATM   55  C   UNK N   1      23.392  17.194   5.014  0.00  0.00     0.111 C 
ATOM     56  HN  UNK N   1      23.004  19.053   5.591  1.00  0.00     0.162 HD
BRANCH  55  57
HETATM   57  C   UNK N   1      22.471  16.605   6.040  0.00  0.00     0.086 C 
BRANCH  57  58
HETATM   58  C   UNK N   1      22.101  15.146   5.759  0.00  0.00     0.043 C 
BRANCH  58  59
HETATM   59  C   UNK N   1      20.655  14.759   6.079  0.00  0.00     0.173 C 
BRANCH  59  60
HETATM   60  C   UNK N   1      20.574  13.795   7.229  0.00  0.00     0.163 C 
HETATM   61  O   UNK N   1      20.245  14.189   8.336  0.00  0.00    -0.648 OA
BRANCH  60  62
HETATM   62  O   UNK N   1      20.880  12.496   7.047  0.00  0.00    -0.775 OA
HETATM   63  H   UNK N   1      20.882  11.777   7.651  0.00  0.00     0.167 HD
ENDBRANCH  60  62
ENDBRANCH  59  60
BRANCH  59  64
HETATM   64  N   UNK N   1      19.919  15.964   6.418  0.00  0.00    -0.418 N 
HETATM   65  H   UNK N   1      19.913  16.589   7.224  0.00  0.00     0.150 HD
HETATM   66  H   UNK N   1      19.262  16.247   5.691  0.00  0.00     0.150 HD
ENDBRANCH  59  64
ENDBRANCH  58  59
ENDBRANCH  57  58
ENDBRANCH  55  57
BRANCH  55  67
HETATM   67  O   UNK N   1      24.041  16.359   4.176  0.00  0.00    -0.350 OA
HETATM   68  H   UNK N   1      24.152  16.564   3.268  0.00  0.00     0.219 HD
ENDBRANCH  55  67
ENDBRANCH  10  54
ENDBRANCH   8  10
BRANCH   8  69
HETATM   69  O   UNK N   1      24.180  20.904   2.180  0.00  0.00    -0.348 OA
HETATM   70  H   UNK N   1      24.398  21.366   1.394  0.00  0.00     0.219 HD
ENDBRANCH   8  69
ENDBRANCH   6   7
ENDBRANCH   1   6
BRANCH   2  71
HETATM   71  C   UNK N   1      19.747  18.626   2.994  0.00  0.00     0.123 C 
BRANCH  71  72
HETATM   72  C   UNK N   1      19.868  17.106   3.029  0.00  0.00     0.039 C 
BRANCH  72  73
HETATM   73  C   UNK N   1      21.015  16.593   2.158  0.00  0.00     0.115 C 
BRANCH  73  74
HETATM   74  N   UNK N   1      21.148  15.148   2.297  0.00  0.00    -0.421 N 
HETATM   75  H   UNK N   1      21.133  14.632   3.177  0.00  0.00     0.153 HD
BRANCH  74  76
HETATM   76  C   UNK N   1      21.307  14.558   0.975  0.00  0.00     0.113 C 
BRANCH  76  77
HETATM   77  C   UNK N   1      20.314  13.425   0.764  0.00  0.00     0.021 C 
BRANCH  77  78
HETATM   78  C   UNK N   1      18.921  13.888   1.153  0.00  0.00     0.021 C 
BRANCH  78  79
HETATM   79  C   UNK N   1      18.107  14.226  -0.079  0.00  0.00     0.111 C 
BRANCH  79  80
HETATM   80  N   UNK N   1      18.059  15.667  -0.258  0.00  0.00    -0.430 N 
HETATM   81  H   UNK N   1      18.179  16.098  -1.174  0.00  0.00     0.149 HD
HETATM   82  H   UNK N   1      17.903  16.263   0.555  0.00  0.00     0.149 HD
ENDBRANCH  79  80
ENDBRANCH  78  79
ENDBRANCH  77  78
ENDBRANCH  76  77
ENDBRANCH  74  76
ENDBRANCH  73  74
ENDBRANCH  72  73
ENDBRANCH  71  72
ENDBRANCH   2  71
TORSDOF 48
ENDMDL
MODEL 3
REMARK VINA RESULT:      -5.2      2.880      9.303
REMARK WARNING: 32 MAX_TORS EXCEEDED!!!
REMARK  48 active torsions:
REMARK  status: ('A' for Active; 'I' for Inactive)
REMARK    1  A    between atoms: C_3  and  C_1 
REMARK    2  A    between atoms: C_11  and  C_1 
REMARK    3  A    between atoms: C_4  and  C_2 
REMARK    4  A    between atoms: C_12  and  C_2 
REMARK    5  A    between atoms: C_13  and  C_3 
REMARK    6  A    between atoms: C_14  and  C_4 
REMARK    7  A    between atoms: C_15  and  C_5 
REMARK    8  A    between atoms: C_17  and  C_5 
REMARK    9  A    between atoms: C_16  and  C_6 
REMARK   10  A    between atoms: C_18  and  C_6 
REMARK   11  A    between atoms: C_9  and  C_7 
REMARK   12  A    between atoms: C_23  and  C_7 
REMARK   13  A    between atoms: C_10  and  C_8 
REMARK   14  A    between atoms: C_24  and  C_8 
REMARK   15  A    between atoms: C_27  and  C_9 
REMARK   16  A    between atoms: C_28  and  C_10 
REMARK   17  A    between atoms: N_35  and  C_11 
REMARK   18  A    between atoms: N_36  and  C_12 
REMARK   19  A    between atoms: N_39  and  C_13 
REMARK   20  A    between atoms: N_40  and  C_14 
REMARK   21  A    between atoms: N_39  and  C_15 
REMARK   22  A    between atoms: N_40  and  C_16 
REMARK   23  A    between atoms: N_41  and  C_17 
REMARK   24  A    between atoms: N_43  and  C_18 
REMARK   25  A    between atoms: C_29  and  C_19 
REMARK   26  A    between atoms: N_45  and  C_19 
REMARK   27  A    between atoms: C_30  and  C_20 
REMARK   28  A    between atoms: N_47  and  C_20 
REMARK   29  A    between atoms: C_25  and  C_21 
REMARK   30  A    between atoms: S_63  and  C_21 
REMARK   31  A    between atoms: C_26  and  C_22 
REMARK   32  A    between atoms: S_64  and  C_22 
REMARK   33  A    between atoms: C_33  and  C_23 
REMARK   34  A    between atoms: C_23  and  N_37 
REMARK   35  A    between atoms: C_34  and  C_24 
REMARK   36  A    between atoms: C_24  and  N_38 
REMARK   37  A    between atoms: C_31  and  C_25 
REMARK   38  A    between atoms: C_25  and  N_49 
REMARK   39  A    between atoms: C_32  and  C_26 
REMARK   40  A    between atoms: C_26  and  N_51 
REMARK   41  A    between atoms: C_27  and  O_53 
REMARK   42  A    between atoms: C_28  and  O_54 
REMARK   43  A    between atoms: O_56  and  C_30 
REMARK   44  A    between atoms: O_57  and  C_31 
REMARK   45  A    between atoms: O_58  and  C_32 
REMARK   46  A    between atoms: O_60  and  C_33 
REMARK   47  A    between atoms: O_62  and  C_34 
REMARK   48  A    between atoms: S_64  and  S_63 
ROOT
HETATM    1  C   UNK N   1      21.206  17.707   5.841  0.00  0.00     0.129 C 
HETATM    2  N   UNK N   1      22.184  18.338   5.292  0.00  0.00    -0.373 N 
ATOM      3  HN  UNK N   1      22.848  18.820   5.898  1.00  0.00     0.161 HD
HETATM    4  O   UNK N   1      21.095  17.718   7.181  0.00  0.00    -0.348 OA
HETATM    5  H   UNK N   1      21.093  17.675   8.117  0.00  0.00     0.219 HD
ENDROOT
BRANCH   1   6
HETATM    6  C   UNK N   1      20.227  16.882   5.050  0.00  0.00     0.205 C 
BRANCH   6   7
HETATM    7  N   UNK N   1      20.764  15.706   4.390  0.00  0.00    -0.365 N 
HETATM    8  C   UNK N   1      20.535  14.494   4.780  0.00  0.00     0.135 C 
ATOM      9  HN  UNK N   1      21.357  15.844   3.571  1.00  0.00     0.161 HD
BRANCH   8  10
HETATM   10  C   UNK N   1      21.245  13.338   4.096  0.00  0.00     0.168 C 
BRANCH  10  11
HETATM   11  C   UNK N   1      21.201  12.027   4.896  0.00  0.00     0.119 C 
BRANCH  11  12
HETATM   12  S   UNK N   1      22.309  10.686   4.387  0.00  0.00    -0.095 SA
BRANCH  12  13
HETATM   13  S   UNK N   1      22.674  10.295   6.453  0.00  0.00    -0.095 SA
BRANCH  13  14
HETATM   14  C   UNK N   1      24.272  11.168   6.488  0.00  0.00     0.119 C 
BRANCH  14  15
HETATM   15  C   UNK N   1      24.214  12.624   6.965  0.00  0.00     0.168 C 
BRANCH  15  16
HETATM   16  C   UNK N   1      24.960  13.425   5.941  0.00  0.00     0.135 C 
HETATM   17  N   UNK N   1      24.343  14.370   5.328  0.00  0.00    -0.365 N 
ATOM     18  HN  UNK N   1      23.377  14.564   5.594  1.00  0.00     0.161 HD
BRANCH  17  19
HETATM   19  C   UNK N   1      24.932  15.167   4.290  0.00  0.00     0.205 C 
BRANCH  19  20
HETATM   20  C   UNK N   1      25.639  16.410   4.813  0.00  0.00     0.129 C 
HETATM   21  N   UNK N   1      26.835  16.786   4.475  0.00  0.00    -0.373 N 
ATOM     22  HN  UNK N   1      27.183  17.652   4.889  1.00  0.00     0.161 HD
BRANCH  21  23
HETATM   23  C   UNK N   1      27.719  16.091   3.568  0.00  0.00     0.123 C 
BRANCH  23  24
HETATM   24  C   UNK N   1      28.933  16.946   3.251  0.00  0.00     0.039 C 
BRANCH  24  25
HETATM   25  C   UNK N   1      30.172  16.381   3.918  0.00  0.00     0.115 C 
BRANCH  25  26
HETATM   26  N   UNK N   1      31.094  17.459   4.234  0.00  0.00    -0.421 N 
HETATM   27  H   UNK N   1      31.197  18.337   3.722  0.00  0.00     0.153 HD
BRANCH  26  28
HETATM   28  C   UNK N   1      31.838  17.057   5.412  0.00  0.00     0.113 C 
BRANCH  28  29
HETATM   29  C   UNK N   1      33.234  17.644   5.360  0.00  0.00     0.021 C 
BRANCH  29  30
HETATM   30  C   UNK N   1      34.007  17.207   6.589  0.00  0.00     0.021 C 
BRANCH  30  31
HETATM   31  C   UNK N   1      33.547  17.990   7.804  0.00  0.00     0.111 C 
BRANCH  31  32
HETATM   32  N   UNK N   1      34.663  18.729   8.367  0.00  0.00    -0.430 N 
HETATM   33  H   UNK N   1      34.900  19.009   9.318  0.00  0.00     0.149 HD
HETATM   34  H   UNK N   1      35.347  19.029   7.671  0.00  0.00     0.149 HD
ENDBRANCH  31  32
ENDBRANCH  30  31
ENDBRANCH  29  30
ENDBRANCH  28  29
ENDBRANCH  26  28
ENDBRANCH  25  26
ENDBRANCH  24  25
ENDBRANCH  23  24
ENDBRANCH  21  23
BRANCH  20  35
HETATM   35  O   UNK N   1      24.963  17.166   5.697  0.00  0.00    -0.348 OA
HETATM   36  H   UNK N   1      25.208  18.060   5.839  0.00  0.00     0.219 HD
ENDBRANCH  20  35
ENDBRANCH  19  20
ENDBRANCH  17  19
BRANCH  16  37
HETATM   37  O   UNK N   1      26.239  13.135   5.640  0.00  0.00    -0.348 OA
HETATM   38  H   UNK N   1      26.803  13.770   5.244  0.00  0.00     0.219 HD
ENDBRANCH  16  37
ENDBRANCH  15  16
BRANCH  15  39
HETATM   39  N   UNK N   1      24.914  12.836   8.224  0.00  0.00    -0.362 N 
HETATM   40  C   UNK N   1      24.435  12.747   9.418  0.00  0.00     0.111 C 
ATOM     41  HN  UNK N   1      25.902  13.085   8.153  1.00  0.00     0.162 HD
BRANCH  40  42
HETATM   42  C   UNK N   1      23.013  12.365   9.683  0.00  0.00     0.086 C 
BRANCH  42  43
HETATM   43  C   UNK N   1      22.110  13.585   9.902  0.00  0.00     0.043 C 
BRANCH  43  44
HETATM   44  C   UNK N   1      21.248  13.983   8.702  0.00  0.00     0.173 C 
BRANCH  44  45
HETATM   45  C   UNK N   1      19.932  14.581   9.136  0.00  0.00     0.163 C 
HETATM   46  O   UNK N   1      19.294  14.070  10.041  0.00  0.00    -0.648 OA
BRANCH  45  47
HETATM   47  O   UNK N   1      19.438  15.671   8.512  0.00  0.00    -0.775 OA
HETATM   48  H   UNK N   1      19.265  15.669   7.592  0.00  0.00     0.167 HD
ENDBRANCH  45  47
ENDBRANCH  44  45
BRANCH  44  49
HETATM   49  N   UNK N   1      21.992  14.956   7.920  0.00  0.00    -0.418 N 
HETATM   50  H   UNK N   1      22.786  14.786   7.303  0.00  0.00     0.150 HD
HETATM   51  H   UNK N   1      21.684  15.925   7.998  0.00  0.00     0.150 HD
ENDBRANCH  44  49
ENDBRANCH  43  44
ENDBRANCH  42  43
ENDBRANCH  40  42
BRANCH  40  52
HETATM   52  O   UNK N   1      25.233  13.051  10.460  0.00  0.00    -0.350 OA
HETATM   53  H   UNK N   1      25.605  13.781  10.915  0.00  0.00     0.219 HD
ENDBRANCH  40  52
ENDBRANCH  15  39
ENDBRANCH  14  15
ENDBRANCH  13  14
ENDBRANCH  12  13
ENDBRANCH  11  12
ENDBRANCH  10  11
BRANCH  10  54
HETATM   54  N   UNK N   1      20.709  13.096   2.758  0.00  0.00    -0.362 N 
HETATM   55  C   UNK N   1      19.453  12.944   2.465  0.00  0.00     0.111 C 
ATOM     56  HN  UNK N   1      21.378  13.039   1.989  1.00  0.00     0.162 HD
BRANCH  55  57
HETATM   57  C   UNK N   1      19.041  12.679   1.048  0.00  0.00     0.086 C 
BRANCH  57  58
HETATM   58  C   UNK N   1      19.359  13.836   0.096  0.00  0.00     0.043 C 
BRANCH  58  59
HETATM   59  C   UNK N   1      18.989  15.230   0.605  0.00  0.00     0.173 C 
BRANCH  59  60
HETATM   60  C   UNK N   1      20.183  16.140   0.668  0.00  0.00     0.163 C 
HETATM   61  O   UNK N   1      21.129  15.860   1.386  0.00  0.00    -0.648 OA
BRANCH  60  62
HETATM   62  O   UNK N   1      20.207  17.278  -0.054  0.00  0.00    -0.775 OA
HETATM   63  H   UNK N   1      20.543  17.451  -0.912  0.00  0.00     0.167 HD
ENDBRANCH  60  62
ENDBRANCH  59  60
BRANCH  59  64
HETATM   64  N   UNK N   1      18.003  15.804  -0.294  0.00  0.00    -0.418 N 
HETATM   65  H   UNK N   1      17.505  16.693  -0.326  0.00  0.00     0.150 HD
HETATM   66  H   UNK N   1      17.755  15.181  -1.062  0.00  0.00     0.150 HD
ENDBRANCH  59  64
ENDBRANCH  58  59
ENDBRANCH  57  58
ENDBRANCH  55  57
BRANCH  55  67
HETATM   67  O   UNK N   1      18.496  12.993   3.416  0.00  0.00    -0.350 OA
HETATM   68  H   UNK N   1      17.880  12.296   3.528  0.00  0.00     0.219 HD
ENDBRANCH  55  67
ENDBRANCH  10  54
ENDBRANCH   8  10
BRANCH   8  69
HETATM   69  O   UNK N   1      19.668  14.255   5.786  0.00  0.00    -0.348 OA
HETATM   70  H   UNK N   1      18.981  13.892   6.310  0.00  0.00     0.219 HD
ENDBRANCH   8  69
ENDBRANCH   6   7
ENDBRANCH   1   6
BRANCH   2  71
HETATM   71  C   UNK N   1      22.395  18.402   3.867  0.00  0.00     0.123 C 
BRANCH  71  72
HETATM   72  C   UNK N   1      22.299  19.850   3.400  0.00  0.00     0.039 C 
BRANCH  72  73
HETATM   73  C   UNK N   1      23.656  20.421   2.987  0.00  0.00     0.115 C 
BRANCH  73  74
HETATM   74  N   UNK N   1      24.733  19.697   3.653  0.00  0.00    -0.421 N 
HETATM   75  H   UNK N   1      24.611  18.928   4.312  0.00  0.00     0.153 HD
BRANCH  74  76
HETATM   76  C   UNK N   1      26.010  20.250   3.226  0.00  0.00     0.113 C 
BRANCH  76  77
HETATM   77  C   UNK N   1      26.969  20.370   4.400  0.00  0.00     0.021 C 
BRANCH  77  78
HETATM   78  C   UNK N   1      26.199  20.245   5.703  0.00  0.00     0.021 C 
BRANCH  78  79
HETATM   79  C   UNK N   1      26.652  21.297   6.695  0.00  0.00     0.111 C 
BRANCH  79  80
HETATM   80  N   UNK N   1      25.908  21.157   7.934  0.00  0.00    -0.430 N 
HETATM   81  H   UNK N   1      25.949  21.865   8.667  0.00  0.00     0.149 HD
HETATM   82  H   UNK N   1      25.331  20.329   8.075  0.00  0.00     0.149 HD
ENDBRANCH  79  80
ENDBRANCH  78  79
ENDBRANCH  77  78
ENDBRANCH  76  77
ENDBRANCH  74  76
ENDBRANCH  73  74
ENDBRANCH  72  73
ENDBRANCH  71  72
ENDBRANCH   2  71
TORSDOF 48
ENDMDL
MODEL 4
REMARK VINA RESULT:      -5.0      3.036      8.290
REMARK WARNING: 32 MAX_TORS EXCEEDED!!!
REMARK  48 active torsions:
REMARK  status: ('A' for Active; 'I' for Inactive)
REMARK    1  A    between atoms: C_3  and  C_1 
REMARK    2  A    between atoms: C_11  and  C_1 
REMARK    3  A    between atoms: C_4  and  C_2 
REMARK    4  A    between atoms: C_12  and  C_2 
REMARK    5  A    between atoms: C_13  and  C_3 
REMARK    6  A    between atoms: C_14  and  C_4 
REMARK    7  A    between atoms: C_15  and  C_5 
REMARK    8  A    between atoms: C_17  and  C_5 
REMARK    9  A    between atoms: C_16  and  C_6 
REMARK   10  A    between atoms: C_18  and  C_6 
REMARK   11  A    between atoms: C_9  and  C_7 
REMARK   12  A    between atoms: C_23  and  C_7 
REMARK   13  A    between atoms: C_10  and  C_8 
REMARK   14  A    between atoms: C_24  and  C_8 
REMARK   15  A    between atoms: C_27  and  C_9 
REMARK   16  A    between atoms: C_28  and  C_10 
REMARK   17  A    between atoms: N_35  and  C_11 
REMARK   18  A    between atoms: N_36  and  C_12 
REMARK   19  A    between atoms: N_39  and  C_13 
REMARK   20  A    between atoms: N_40  and  C_14 
REMARK   21  A    between atoms: N_39  and  C_15 
REMARK   22  A    between atoms: N_40  and  C_16 
REMARK   23  A    between atoms: N_41  and  C_17 
REMARK   24  A    between atoms: N_43  and  C_18 
REMARK   25  A    between atoms: C_29  and  C_19 
REMARK   26  A    between atoms: N_45  and  C_19 
REMARK   27  A    between atoms: C_30  and  C_20 
REMARK   28  A    between atoms: N_47  and  C_20 
REMARK   29  A    between atoms: C_25  and  C_21 
REMARK   30  A    between atoms: S_63  and  C_21 
REMARK   31  A    between atoms: C_26  and  C_22 
REMARK   32  A    between atoms: S_64  and  C_22 
REMARK   33  A    between atoms: C_33  and  C_23 
REMARK   34  A    between atoms: C_23  and  N_37 
REMARK   35  A    between atoms: C_34  and  C_24 
REMARK   36  A    between atoms: C_24  and  N_38 
REMARK   37  A    between atoms: C_31  and  C_25 
REMARK   38  A    between atoms: C_25  and  N_49 
REMARK   39  A    between atoms: C_32  and  C_26 
REMARK   40  A    between atoms: C_26  and  N_51 
REMARK   41  A    between atoms: C_27  and  O_53 
REMARK   42  A    between atoms: C_28  and  O_54 
REMARK   43  A    between atoms: O_56  and  C_30 
REMARK   44  A    between atoms: O_57  and  C_31 
REMARK   45  A    between atoms: O_58  and  C_32 
REMARK   46  A    between atoms: O_60  and  C_33 
REMARK   47  A    between atoms: O_62  and  C_34 
REMARK   48  A    between atoms: S_64  and  S_63 
ROOT
HETATM    1  C   UNK N   1      20.978  16.234   1.850  0.00  0.00     0.129 C 
HETATM    2  N   UNK N   1      20.090  17.161   1.771  0.00  0.00    -0.373 N 
ATOM      3  HN  UNK N   1      19.484  17.179   0.951  1.00  0.00     0.161 HD
HETATM    4  O   UNK N   1      21.078  15.340   0.849  0.00  0.00    -0.348 OA
HETATM    5  H   UNK N   1      21.066  14.686   0.179  0.00  0.00     0.219 HD
ENDROOT
BRANCH   1   6
HETATM    6  C   UNK N   1      21.857  16.053   3.058  0.00  0.00     0.205 C 
BRANCH   6   7
HETATM    7  N   UNK N   1      22.380  14.717   3.277  0.00  0.00    -0.365 N 
HETATM    8  C   UNK N   1      22.599  14.211   4.448  0.00  0.00     0.135 C 
ATOM      9  HN  UNK N   1      22.588  14.142   2.459  1.00  0.00     0.161 HD
BRANCH   8  10
HETATM   10  C   UNK N   1      23.265  12.851   4.567  0.00  0.00     0.168 C 
BRANCH  10  11
HETATM   11  C   UNK N   1      22.301  11.672   4.357  0.00  0.00     0.119 C 
BRANCH  11  12
HETATM   12  S   UNK N   1      21.534  10.935   5.824  0.00  0.00    -0.095 SA
BRANCH  12  13
HETATM   13  S   UNK N   1      23.431  10.082   6.304  0.00  0.00    -0.095 SA
BRANCH  13  14
HETATM   14  C   UNK N   1      23.508  10.818   7.967  0.00  0.00     0.119 C 
BRANCH  14  15
HETATM   15  C   UNK N   1      22.889  12.216   8.095  0.00  0.00     0.168 C 
BRANCH  15  16
HETATM   16  C   UNK N   1      24.029  13.149   8.373  0.00  0.00     0.135 C 
HETATM   17  N   UNK N   1      24.427  13.932   7.436  0.00  0.00    -0.365 N 
ATOM     18  HN  UNK N   1      23.922  13.915   6.550  1.00  0.00     0.161 HD
BRANCH  17  19
HETATM   19  C   UNK N   1      25.541  14.828   7.563  0.00  0.00     0.205 C 
BRANCH  19  20
HETATM   20  C   UNK N   1      25.705  15.758   6.370  0.00  0.00     0.129 C 
HETATM   21  N   UNK N   1      26.811  15.939   5.712  0.00  0.00    -0.373 N 
ATOM     22  HN  UNK N   1      26.778  16.581   4.919  1.00  0.00     0.161 HD
BRANCH  21  23
HETATM   23  C   UNK N   1      28.082  15.317   6.001  0.00  0.00     0.123 C 
BRANCH  23  24
HETATM   24  C   UNK N   1      29.182  16.363   6.064  0.00  0.00     0.039 C 
BRANCH  24  25
HETATM   25  C   UNK N   1      29.078  17.169   7.344  0.00  0.00     0.115 C 
BRANCH  25  26
HETATM   26  N   UNK N   1      30.293  17.941   7.537  0.00  0.00    -0.421 N 
HETATM   27  H   UNK N   1      30.583  18.758   6.997  0.00  0.00     0.153 HD
BRANCH  26  28
HETATM   28  C   UNK N   1      31.018  17.335   8.637  0.00  0.00     0.113 C 
BRANCH  28  29
HETATM   29  C   UNK N   1      32.506  17.541   8.445  0.00  0.00     0.021 C 
BRANCH  29  30
HETATM   30  C   UNK N   1      33.203  16.194   8.452  0.00  0.00     0.021 C 
BRANCH  30  31
HETATM   31  C   UNK N   1      32.380  15.180   9.223  0.00  0.00     0.111 C 
BRANCH  31  32
HETATM   32  N   UNK N   1      32.927  15.012  10.558  0.00  0.00    -0.430 N 
HETATM   33  H   UNK N   1      33.415  14.242  11.015  0.00  0.00     0.149 HD
HETATM   34  H   UNK N   1      32.797  15.826  11.159  0.00  0.00     0.149 HD
ENDBRANCH  31  32
ENDBRANCH  30  31
ENDBRANCH  29  30
ENDBRANCH  28  29
ENDBRANCH  26  28
ENDBRANCH  25  26
ENDBRANCH  24  25
ENDBRANCH  23  24
ENDBRANCH  21  23
BRANCH  20  35
HETATM   35  O   UNK N   1      24.617  16.444   5.979  0.00  0.00    -0.348 OA
HETATM   36  H   UNK N   1      23.813  16.366   6.455  0.00  0.00     0.219 HD
ENDBRANCH  20  35
ENDBRANCH  19  20
ENDBRANCH  17  19
BRANCH  16  37
HETATM   37  O   UNK N   1      24.649  13.140   9.567  0.00  0.00    -0.348 OA
HETATM   38  H   UNK N   1      24.823  13.934  10.033  0.00  0.00     0.219 HD
ENDBRANCH  16  37
ENDBRANCH  15  16
BRANCH  15  39
HETATM   39  N   UNK N   1      21.990  12.334   9.234  0.00  0.00    -0.362 N 
HETATM   40  C   UNK N   1      20.999  13.148   9.376  0.00  0.00     0.111 C 
ATOM     41  HN  UNK N   1      22.165  11.699  10.014  1.00  0.00     0.162 HD
BRANCH  40  42
HETATM   42  C   UNK N   1      20.603  14.120   8.310  0.00  0.00     0.086 C 
BRANCH  42  43
HETATM   43  C   UNK N   1      20.651  15.574   8.796  0.00  0.00     0.043 C 
BRANCH  43  44
HETATM   44  C   UNK N   1      19.740  16.545   8.041  0.00  0.00     0.173 C 
BRANCH  44  45
HETATM   45  C   UNK N   1      20.241  17.965   8.137  0.00  0.00     0.163 C 
HETATM   46  O   UNK N   1      21.004  18.405   7.295  0.00  0.00    -0.648 OA
BRANCH  45  47
HETATM   47  O   UNK N   1      19.869  18.753   9.168  0.00  0.00    -0.775 OA
HETATM   48  H   UNK N   1      19.049  19.205   9.165  0.00  0.00     0.167 HD
ENDBRANCH  45  47
ENDBRANCH  44  45
BRANCH  44  49
HETATM   49  N   UNK N   1      19.705  16.132   6.649  0.00  0.00    -0.418 N 
HETATM   50  H   UNK N   1      20.291  16.463   5.883  0.00  0.00     0.150 HD
HETATM   51  H   UNK N   1      19.009  15.426   6.408  0.00  0.00     0.150 HD
ENDBRANCH  44  49
ENDBRANCH  43  44
ENDBRANCH  42  43
ENDBRANCH  40  42
BRANCH  40  52
HETATM   52  O   UNK N   1      20.326  13.150  10.543  0.00  0.00    -0.350 OA
HETATM   53  H   UNK N   1      19.560  12.799  10.953  0.00  0.00     0.219 HD
ENDBRANCH  40  52
ENDBRANCH  15  39
ENDBRANCH  14  15
ENDBRANCH  13  14
ENDBRANCH  12  13
ENDBRANCH  11  12
ENDBRANCH  10  11
BRANCH  10  54
HETATM   54  N   UNK N   1      24.384  12.719   3.635  0.00  0.00    -0.362 N 
HETATM   55  C   UNK N   1      25.621  12.506   3.969  0.00  0.00     0.111 C 
ATOM     56  HN  UNK N   1      24.176  12.802   2.640  1.00  0.00     0.162 HD
BRANCH  55  57
HETATM   57  C   UNK N   1      26.677  12.413   2.909  0.00  0.00     0.086 C 
BRANCH  57  58
HETATM   58  C   UNK N   1      26.501  13.438   1.784  0.00  0.00     0.043 C 
BRANCH  58  59
HETATM   59  C   UNK N   1      27.363  14.698   1.899  0.00  0.00     0.173 C 
BRANCH  59  60
HETATM   60  C   UNK N   1      26.638  15.810   2.603  0.00  0.00     0.163 C 
HETATM   61  O   UNK N   1      27.243  16.813   2.946  0.00  0.00    -0.648 OA
BRANCH  60  62
HETATM   62  O   UNK N   1      25.323  15.699   2.872  0.00  0.00    -0.775 OA
HETATM   63  H   UNK N   1      24.778  14.940   2.960  0.00  0.00     0.167 HD
ENDBRANCH  60  62
ENDBRANCH  59  60
BRANCH  59  64
HETATM   64  N   UNK N   1      28.564  14.369   2.646  0.00  0.00    -0.418 N 
HETATM   65  H   UNK N   1      29.409  14.884   2.893  0.00  0.00     0.150 HD
HETATM   66  H   UNK N   1      28.563  13.412   3.000  0.00  0.00     0.150 HD
ENDBRANCH  59  64
ENDBRANCH  58  59
ENDBRANCH  57  58
ENDBRANCH  55  57
BRANCH  55  67
HETATM   67  O   UNK N   1      25.993  12.392   5.261  0.00  0.00    -0.350 OA
HETATM   68  H   UNK N   1      25.746  13.030   5.901  0.00  0.00     0.219 HD
ENDBRANCH  55  67
ENDBRANCH  10  54
ENDBRANCH   8  10
BRANCH   8  69
HETATM   69  O   UNK N   1      22.235  14.886   5.559  0.00  0.00    -0.348 OA
HETATM   70  H   UNK N   1      21.732  15.265   6.252  0.00  0.00     0.219 HD
ENDBRANCH   8  69
ENDBRANCH   6   7
ENDBRANCH   1   6
BRANCH   2  71
HETATM   71  C   UNK N   1      19.901  18.175   2.778  0.00  0.00     0.123 C 
BRANCH  71  72
HETATM   72  C   UNK N   1      20.186  19.548   2.180  0.00  0.00     0.039 C 
BRANCH  72  73
HETATM   73  C   UNK N   1      21.543  20.103   2.615  0.00  0.00     0.115 C 
BRANCH  73  74
HETATM   74  N   UNK N   1      22.026  19.392   3.794  0.00  0.00    -0.421 N 
HETATM   75  H   UNK N   1      21.443  19.044   4.556  0.00  0.00     0.153 HD
BRANCH  74  76
HETATM   76  C   UNK N   1      23.473  19.261   3.708  0.00  0.00     0.113 C 
BRANCH  76  77
HETATM   77  C   UNK N   1      24.102  20.535   3.166  0.00  0.00     0.021 C 
BRANCH  77  78
HETATM   78  C   UNK N   1      25.517  20.245   2.697  0.00  0.00     0.021 C 
BRANCH  78  79
HETATM   79  C   UNK N   1      26.516  20.538   3.797  0.00  0.00     0.111 C 
BRANCH  79  80
HETATM   80  N   UNK N   1      27.616  19.593   3.729  0.00  0.00    -0.430 N 
HETATM   81  H   UNK N   1      28.497  19.827   3.272  0.00  0.00     0.149 HD
HETATM   82  H   UNK N   1      27.503  18.670   4.148  0.00  0.00     0.149 HD
ENDBRANCH  79  80
ENDBRANCH  78  79
ENDBRANCH  77  78
ENDBRANCH  76  77
ENDBRANCH  74  76
ENDBRANCH  73  74
ENDBRANCH  72  73
ENDBRANCH  71  72
ENDBRANCH   2  71
TORSDOF 48
ENDMDL
MODEL 5
REMARK VINA RESULT:      -5.0      6.915     11.917
REMARK WARNING: 32 MAX_TORS EXCEEDED!!!
REMARK  48 active torsions:
REMARK  status: ('A' for Active; 'I' for Inactive)
REMARK    1  A    between atoms: C_3  and  C_1 
REMARK    2  A    between atoms: C_11  and  C_1 
REMARK    3  A    between atoms: C_4  and  C_2 
REMARK    4  A    between atoms: C_12  and  C_2 
REMARK    5  A    between atoms: C_13  and  C_3 
REMARK    6  A    between atoms: C_14  and  C_4 
REMARK    7  A    between atoms: C_15  and  C_5 
REMARK    8  A    between atoms: C_17  and  C_5 
REMARK    9  A    between atoms: C_16  and  C_6 
REMARK   10  A    between atoms: C_18  and  C_6 
REMARK   11  A    between atoms: C_9  and  C_7 
REMARK   12  A    between atoms: C_23  and  C_7 
REMARK   13  A    between atoms: C_10  and  C_8 
REMARK   14  A    between atoms: C_24  and  C_8 
REMARK   15  A    between atoms: C_27  and  C_9 
REMARK   16  A    between atoms: C_28  and  C_10 
REMARK   17  A    between atoms: N_35  and  C_11 
REMARK   18  A    between atoms: N_36  and  C_12 
REMARK   19  A    between atoms: N_39  and  C_13 
REMARK   20  A    between atoms: N_40  and  C_14 
REMARK   21  A    between atoms: N_39  and  C_15 
REMARK   22  A    between atoms: N_40  and  C_16 
REMARK   23  A    between atoms: N_41  and  C_17 
REMARK   24  A    between atoms: N_43  and  C_18 
REMARK   25  A    between atoms: C_29  and  C_19 
REMARK   26  A    between atoms: N_45  and  C_19 
REMARK   27  A    between atoms: C_30  and  C_20 
REMARK   28  A    between atoms: N_47  and  C_20 
REMARK   29  A    between atoms: C_25  and  C_21 
REMARK   30  A    between atoms: S_63  and  C_21 
REMARK   31  A    between atoms: C_26  and  C_22 
REMARK   32  A    between atoms: S_64  and  C_22 
REMARK   33  A    between atoms: C_33  and  C_23 
REMARK   34  A    between atoms: C_23  and  N_37 
REMARK   35  A    between atoms: C_34  and  C_24 
REMARK   36  A    between atoms: C_24  and  N_38 
REMARK   37  A    between atoms: C_31  and  C_25 
REMARK   38  A    between atoms: C_25  and  N_49 
REMARK   39  A    between atoms: C_32  and  C_26 
REMARK   40  A    between atoms: C_26  and  N_51 
REMARK   41  A    between atoms: C_27  and  O_53 
REMARK   42  A    between atoms: C_28  and  O_54 
REMARK   43  A    between atoms: O_56  and  C_30 
REMARK   44  A    between atoms: O_57  and  C_31 
REMARK   45  A    between atoms: O_58  and  C_32 
REMARK   46  A    between atoms: O_60  and  C_33 
REMARK   47  A    between atoms: O_62  and  C_34 
REMARK   48  A    between atoms: S_64  and  S_63 
ROOT
HETATM    1  C   UNK N   1      36.018  15.434  11.693  0.00  0.00     0.129 C 
HETATM    2  N   UNK N   1      36.488  14.911  12.771  0.00  0.00    -0.373 N 
ATOM      3  HN  UNK N   1      37.456  15.110  13.020  1.00  0.00     0.161 HD
HETATM    4  O   UNK N   1      36.822  16.206  10.940  0.00  0.00    -0.348 OA
HETATM    5  H   UNK N   1      37.379  16.804  10.482  0.00  0.00     0.219 HD
ENDROOT
BRANCH   1   6
HETATM    6  C   UNK N   1      34.577  15.288  11.281  0.00  0.00     0.205 C 
BRANCH   6   7
HETATM    7  N   UNK N   1      34.312  14.369  10.189  0.00  0.00    -0.365 N 
HETATM    8  C   UNK N   1      34.478  14.666   8.941  0.00  0.00     0.135 C 
ATOM      9  HN  UNK N   1      33.975  13.433  10.420  1.00  0.00     0.161 HD
BRANCH   8  10
HETATM   10  C   UNK N   1      34.054  13.676   7.870  0.00  0.00     0.168 C 
BRANCH  10  11
HETATM   11  C   UNK N   1      34.583  14.019   6.469  0.00  0.00     0.119 C 
BRANCH  11  12
HETATM   12  S   UNK N   1      34.095  12.944   5.093  0.00  0.00    -0.095 SA
BRANCH  12  13
HETATM   13  S   UNK N   1      32.060  13.280   5.642  0.00  0.00    -0.095 SA
BRANCH  13  14
HETATM   14  C   UNK N   1      31.926  14.863   4.752  0.00  0.00     0.119 C 
BRANCH  14  15
HETATM   15  C   UNK N   1      31.444  16.050   5.593  0.00  0.00     0.168 C 
BRANCH  15  16
HETATM   16  C   UNK N   1      30.578  16.874   4.689  0.00  0.00     0.135 C 
HETATM   17  N   UNK N   1      29.314  16.643   4.666  0.00  0.00    -0.365 N 
ATOM     18  HN  UNK N   1      28.945  15.933   5.299  1.00  0.00     0.161 HD
BRANCH  17  19
HETATM   19  C   UNK N   1      28.393  17.326   3.803  0.00  0.00     0.205 C 
BRANCH  19  20
HETATM   20  C   UNK N   1      27.806  18.586   4.425  0.00  0.00     0.129 C 
HETATM   21  N   UNK N   1      26.610  18.685   4.920  0.00  0.00    -0.373 N 
ATOM     22  HN  UNK N   1      26.348  19.586   5.322  1.00  0.00     0.161 HD
BRANCH  21  23
HETATM   23  C   UNK N   1      25.615  17.638   4.952  0.00  0.00     0.123 C 
BRANCH  23  24
HETATM   24  C   UNK N   1      24.221  18.228   4.822  0.00  0.00     0.039 C 
BRANCH  24  25
HETATM   25  C   UNK N   1      23.167  17.162   5.048  0.00  0.00     0.115 C 
BRANCH  25  26
HETATM   26  N   UNK N   1      23.782  15.980   5.628  0.00  0.00    -0.421 N 
HETATM   27  H   UNK N   1      24.674  15.565   5.353  0.00  0.00     0.153 HD
BRANCH  26  28
HETATM   28  C   UNK N   1      22.894  15.501   6.669  0.00  0.00     0.113 C 
BRANCH  28  29
HETATM   29  C   UNK N   1      21.652  16.367   6.721  0.00  0.00     0.021 C 
BRANCH  29  30
HETATM   30  C   UNK N   1      20.598  15.681   7.568  0.00  0.00     0.021 C 
BRANCH  30  31
HETATM   31  C   UNK N   1      21.249  14.951   8.728  0.00  0.00     0.111 C 
BRANCH  31  32
HETATM   32  N   UNK N   1      20.227  14.363   9.576  0.00  0.00    -0.430 N 
HETATM   33  H   UNK N   1      19.221  14.243   9.467  0.00  0.00     0.149 HD
HETATM   34  H   UNK N   1      20.589  13.996  10.457  0.00  0.00     0.149 HD
ENDBRANCH  31  32
ENDBRANCH  30  31
ENDBRANCH  29  30
ENDBRANCH  28  29
ENDBRANCH  26  28
ENDBRANCH  25  26
ENDBRANCH  24  25
ENDBRANCH  23  24
ENDBRANCH  21  23
BRANCH  20  35
HETATM   35  O   UNK N   1      28.596  19.674   4.453  0.00  0.00    -0.348 OA
HETATM   36  H   UNK N   1      28.504  20.307   5.137  0.00  0.00     0.219 HD
ENDBRANCH  20  35
ENDBRANCH  19  20
ENDBRANCH  17  19
BRANCH  16  37
HETATM   37  O   UNK N   1      31.116  17.810   3.887  0.00  0.00    -0.348 OA
HETATM   38  H   UNK N   1      30.813  18.697   3.899  0.00  0.00     0.219 HD
ENDBRANCH  16  37
ENDBRANCH  15  16
BRANCH  15  39
HETATM   39  N   UNK N   1      32.529  16.926   6.011  0.00  0.00    -0.362 N 
HETATM   40  C   UNK N   1      32.694  17.485   7.162  0.00  0.00     0.111 C 
ATOM     41  HN  UNK N   1      33.245  17.121   5.311  1.00  0.00     0.162 HD
BRANCH  40  42
HETATM   42  C   UNK N   1      31.743  17.274   8.298  0.00  0.00     0.086 C 
BRANCH  42  43
HETATM   43  C   UNK N   1      31.077  18.577   8.755  0.00  0.00     0.043 C 
BRANCH  43  44
HETATM   44  C   UNK N   1      29.630  18.438   9.233  0.00  0.00     0.173 C 
BRANCH  44  45
HETATM   45  C   UNK N   1      28.673  18.290   8.076  0.00  0.00     0.163 C 
HETATM   46  O   UNK N   1      28.105  19.267   7.620  0.00  0.00    -0.648 OA
BRANCH  45  47
HETATM   47  O   UNK N   1      28.420  17.073   7.551  0.00  0.00    -0.775 OA
HETATM   48  H   UNK N   1      28.376  16.941   6.625  0.00  0.00     0.167 HD
ENDBRANCH  45  47
ENDBRANCH  44  45
BRANCH  44  49
HETATM   49  N   UNK N   1      29.551  17.264  10.085  0.00  0.00    -0.418 N 
HETATM   50  H   UNK N   1      28.891  16.489  10.023  0.00  0.00     0.150 HD
HETATM   51  H   UNK N   1      30.239  17.208  10.836  0.00  0.00     0.150 HD
ENDBRANCH  44  49
ENDBRANCH  43  44
ENDBRANCH  42  43
ENDBRANCH  40  42
BRANCH  40  52
HETATM   52  O   UNK N   1      33.734  18.324   7.332  0.00  0.00    -0.350 OA
HETATM   53  H   UNK N   1      33.994  19.091   7.803  0.00  0.00     0.219 HD
ENDBRANCH  40  52
ENDBRANCH  15  39
ENDBRANCH  14  15
ENDBRANCH  13  14
ENDBRANCH  12  13
ENDBRANCH  11  12
ENDBRANCH  10  11
BRANCH  10  54
HETATM   54  N   UNK N   1      34.459  12.313   8.209  0.00  0.00    -0.362 N 
HETATM   55  C   UNK N   1      33.753  11.465   8.895  0.00  0.00     0.111 C 
ATOM     56  HN  UNK N   1      35.373  12.002   7.881  1.00  0.00     0.162 HD
BRANCH  55  57
HETATM   57  C   UNK N   1      34.301  10.101   9.190  0.00  0.00     0.086 C 
BRANCH  57  58
HETATM   58  C   UNK N   1      33.446   9.305  10.181  0.00  0.00     0.043 C 
BRANCH  58  59
HETATM   59  C   UNK N   1      32.691   8.111   9.590  0.00  0.00     0.173 C 
BRANCH  59  60
HETATM   60  C   UNK N   1      31.250   8.437   9.318  0.00  0.00     0.163 C 
HETATM   61  O   UNK N   1      30.366   7.857   9.928  0.00  0.00    -0.648 OA
BRANCH  60  62
HETATM   62  O   UNK N   1      30.926   9.357   8.389  0.00  0.00    -0.775 OA
HETATM   63  H   UNK N   1      30.111   9.785   8.209  0.00  0.00     0.167 HD
ENDBRANCH  60  62
ENDBRANCH  59  60
BRANCH  59  64
HETATM   64  N   UNK N   1      33.333   7.730   8.344  0.00  0.00    -0.418 N 
HETATM   65  H   UNK N   1      34.152   8.064   7.837  0.00  0.00     0.150 HD
HETATM   66  H   UNK N   1      32.860   6.959   7.872  0.00  0.00     0.150 HD
ENDBRANCH  59  64
ENDBRANCH  58  59
ENDBRANCH  57  58
ENDBRANCH  55  57
BRANCH  55  67
HETATM   67  O   UNK N   1      32.536  11.790   9.380  0.00  0.00    -0.350 OA
HETATM   68  H   UNK N   1      32.183  11.371  10.140  0.00  0.00     0.219 HD
ENDBRANCH  55  67
ENDBRANCH  10  54
ENDBRANCH   8  10
BRANCH   8  69
HETATM   69  O   UNK N   1      35.028  15.848   8.591  0.00  0.00    -0.348 OA
HETATM   70  H   UNK N   1      35.589  16.597   8.546  0.00  0.00     0.219 HD
ENDBRANCH   8  69
ENDBRANCH   6   7
ENDBRANCH   1   6
BRANCH   2  71
HETATM   71  C   UNK N   1      35.721  14.062  13.647  0.00  0.00     0.123 C 
BRANCH  71  72
HETATM   72  C   UNK N   1      36.604  13.582  14.795  0.00  0.00     0.039 C 
BRANCH  72  73
HETATM   73  C   UNK N   1      36.812  12.068  14.775  0.00  0.00     0.115 C 
BRANCH  73  74
HETATM   74  N   UNK N   1      38.108  11.743  14.190  0.00  0.00    -0.421 N 
HETATM   75  H   UNK N   1      38.980  12.242  14.366  0.00  0.00     0.153 HD
BRANCH  74  76
HETATM   76  C   UNK N   1      37.956  10.591  13.312  0.00  0.00     0.113 C 
BRANCH  76  77
HETATM   77  C   UNK N   1      36.910  10.859  12.242  0.00  0.00     0.021 C 
BRANCH  77  78
HETATM   78  C   UNK N   1      37.585  10.975  10.887  0.00  0.00     0.021 C 
BRANCH  78  79
HETATM   79  C   UNK N   1      37.534  12.404  10.384  0.00  0.00     0.111 C 
BRANCH  79  80
HETATM   80  N   UNK N   1      38.700  13.132  10.851  0.00  0.00    -0.430 N 
HETATM   81  H   UNK N   1      38.616  14.005  11.370  0.00  0.00     0.149 HD
HETATM   82  H   UNK N   1      39.629  12.759  10.653  0.00  0.00     0.149 HD
ENDBRANCH  79  80
ENDBRANCH  78  79
ENDBRANCH  77  78
ENDBRANCH  76  77
ENDBRANCH  74  76
ENDBRANCH  73  74
ENDBRANCH  72  73
ENDBRANCH  71  72
ENDBRANCH   2  71
TORSDOF 48
ENDMDL
MODEL 6
REMARK VINA RESULT:      -5.0      2.599      7.430
REMARK WARNING: 32 MAX_TORS EXCEEDED!!!
REMARK  48 active torsions:
REMARK  status: ('A' for Active; 'I' for Inactive)
REMARK    1  A    between atoms: C_3  and  C_1 
REMARK    2  A    between atoms: C_11  and  C_1 
REMARK    3  A    between atoms: C_4  and  C_2 
REMARK    4  A    between atoms: C_12  and  C_2 
REMARK    5  A    between atoms: C_13  and  C_3 
REMARK    6  A    between atoms: C_14  and  C_4 
REMARK    7  A    between atoms: C_15  and  C_5 
REMARK    8  A    between atoms: C_17  and  C_5 
REMARK    9  A    between atoms: C_16  and  C_6 
REMARK   10  A    between atoms: C_18  and  C_6 
REMARK   11  A    between atoms: C_9  and  C_7 
REMARK   12  A    between atoms: C_23  and  C_7 
REMARK   13  A    between atoms: C_10  and  C_8 
REMARK   14  A    between atoms: C_24  and  C_8 
REMARK   15  A    between atoms: C_27  and  C_9 
REMARK   16  A    between atoms: C_28  and  C_10 
REMARK   17  A    between atoms: N_35  and  C_11 
REMARK   18  A    between atoms: N_36  and  C_12 
REMARK   19  A    between atoms: N_39  and  C_13 
REMARK   20  A    between atoms: N_40  and  C_14 
REMARK   21  A    between atoms: N_39  and  C_15 
REMARK   22  A    between atoms: N_40  and  C_16 
REMARK   23  A    between atoms: N_41  and  C_17 
REMARK   24  A    between atoms: N_43  and  C_18 
REMARK   25  A    between atoms: C_29  and  C_19 
REMARK   26  A    between atoms: N_45  and  C_19 
REMARK   27  A    between atoms: C_30  and  C_20 
REMARK   28  A    between atoms: N_47  and  C_20 
REMARK   29  A    between atoms: C_25  and  C_21 
REMARK   30  A    between atoms: S_63  and  C_21 
REMARK   31  A    between atoms: C_26  and  C_22 
REMARK   32  A    between atoms: S_64  and  C_22 
REMARK   33  A    between atoms: C_33  and  C_23 
REMARK   34  A    between atoms: C_23  and  N_37 
REMARK   35  A    between atoms: C_34  and  C_24 
REMARK   36  A    between atoms: C_24  and  N_38 
REMARK   37  A    between atoms: C_31  and  C_25 
REMARK   38  A    between atoms: C_25  and  N_49 
REMARK   39  A    between atoms: C_32  and  C_26 
REMARK   40  A    between atoms: C_26  and  N_51 
REMARK   41  A    between atoms: C_27  and  O_53 
REMARK   42  A    between atoms: C_28  and  O_54 
REMARK   43  A    between atoms: O_56  and  C_30 
REMARK   44  A    between atoms: O_57  and  C_31 
REMARK   45  A    between atoms: O_58  and  C_32 
REMARK   46  A    between atoms: O_60  and  C_33 
REMARK   47  A    between atoms: O_62  and  C_34 
REMARK   48  A    between atoms: S_64  and  S_63 
ROOT
HETATM    1  C   UNK N   1      25.830  20.195   3.247  0.00  0.00     0.129 C 
HETATM    2  N   UNK N   1      27.104  20.226   3.429  0.00  0.00    -0.373 N 
ATOM      3  HN  UNK N   1      27.678  20.701   2.733  1.00  0.00     0.161 HD
HETATM    4  O   UNK N   1      25.315  20.775   2.148  0.00  0.00    -0.348 OA
HETATM    5  H   UNK N   1      24.981  21.259   1.419  0.00  0.00     0.219 HD
ENDROOT
BRANCH   1   6
HETATM    6  C   UNK N   1      24.880  19.610   4.257  0.00  0.00     0.205 C 
BRANCH   6   7
HETATM    7  N   UNK N   1      24.322  18.309   3.934  0.00  0.00    -0.365 N 
HETATM    8  C   UNK N   1      24.623  17.220   4.563  0.00  0.00     0.135 C 
ATOM      9  HN  UNK N   1      23.652  18.251   3.166  1.00  0.00     0.161 HD
BRANCH   8  10
HETATM   10  C   UNK N   1      24.079  15.890   4.067  0.00  0.00     0.168 C 
BRANCH  10  11
HETATM   11  C   UNK N   1      24.998  14.696   4.369  0.00  0.00     0.119 C 
BRANCH  11  12
HETATM   12  S   UNK N   1      26.136  14.152   3.069  0.00  0.00    -0.095 SA
BRANCH  12  13
HETATM   13  S   UNK N   1      26.524  12.406   4.233  0.00  0.00    -0.095 SA
BRANCH  13  14
HETATM   14  C   UNK N   1      25.059  12.609   5.295  0.00  0.00     0.119 C 
BRANCH  14  15
HETATM   15  C   UNK N   1      24.154  11.375   5.409  0.00  0.00     0.168 C 
BRANCH  15  16
HETATM   16  C   UNK N   1      23.919  10.904   4.006  0.00  0.00     0.135 C 
HETATM   17  N   UNK N   1      23.175  11.612   3.234  0.00  0.00    -0.365 N 
ATOM     18  HN  UNK N   1      22.807  12.491   3.596  1.00  0.00     0.161 HD
BRANCH  17  19
HETATM   19  C   UNK N   1      22.832  11.237   1.892  0.00  0.00     0.205 C 
BRANCH  19  20
HETATM   20  C   UNK N   1      23.105  12.333   0.872  0.00  0.00     0.129 C 
HETATM   21  N   UNK N   1      22.215  13.155   0.404  0.00  0.00    -0.373 N 
ATOM     22  HN  UNK N   1      22.536  13.856  -0.264  1.00  0.00     0.161 HD
BRANCH  21  23
HETATM   23  C   UNK N   1      20.810  13.167   0.742  0.00  0.00     0.123 C 
BRANCH  23  24
HETATM   24  C   UNK N   1      20.356  14.579   1.070  0.00  0.00     0.039 C 
BRANCH  24  25
HETATM   25  C   UNK N   1      19.638  14.612   2.405  0.00  0.00     0.115 C 
BRANCH  25  26
HETATM   26  N   UNK N   1      19.746  15.939   2.986  0.00  0.00    -0.421 N 
HETATM   27  H   UNK N   1      19.622  16.181   3.971  0.00  0.00     0.153 HD
BRANCH  26  28
HETATM   28  C   UNK N   1      20.063  16.855   1.908  0.00  0.00     0.113 C 
BRANCH  28  29
HETATM   29  C   UNK N   1      19.602  18.252   2.271  0.00  0.00     0.021 C 
BRANCH  29  30
HETATM   30  C   UNK N   1      20.780  19.204   2.194  0.00  0.00     0.021 C 
BRANCH  30  31
HETATM   31  C   UNK N   1      20.904  19.991   3.486  0.00  0.00     0.111 C 
BRANCH  31  32
HETATM   32  N   UNK N   1      21.092  19.080   4.602  0.00  0.00    -0.430 N 
HETATM   33  H   UNK N   1      21.311  19.228   5.587  0.00  0.00     0.149 HD
HETATM   34  H   UNK N   1      20.982  18.098   4.351  0.00  0.00     0.149 HD
ENDBRANCH  31  32
ENDBRANCH  30  31
ENDBRANCH  29  30
ENDBRANCH  28  29
ENDBRANCH  26  28
ENDBRANCH  25  26
ENDBRANCH  24  25
ENDBRANCH  23  24
ENDBRANCH  21  23
BRANCH  20  35
HETATM   35  O   UNK N   1      24.368  12.447   0.424  0.00  0.00    -0.348 OA
HETATM   36  H   UNK N   1      24.914  11.689   0.351  0.00  0.00     0.219 HD
ENDBRANCH  20  35
ENDBRANCH  19  20
ENDBRANCH  17  19
BRANCH  16  37
HETATM   37  O   UNK N   1      24.443   9.742   3.575  0.00  0.00    -0.348 OA
HETATM   38  H   UNK N   1      25.042   9.251   4.102  0.00  0.00     0.219 HD
ENDBRANCH  16  37
ENDBRANCH  15  16
BRANCH  15  39
HETATM   39  N   UNK N   1      22.839  11.686   5.950  0.00  0.00    -0.362 N 
HETATM   40  C   UNK N   1      22.446  11.585   7.175  0.00  0.00     0.111 C 
ATOM     41  HN  UNK N   1      22.146  12.024   5.282  1.00  0.00     0.162 HD
BRANCH  40  42
HETATM   42  C   UNK N   1      23.355  11.130   8.273  0.00  0.00     0.086 C 
BRANCH  42  43
HETATM   43  C   UNK N   1      22.843  11.529   9.661  0.00  0.00     0.043 C 
BRANCH  43  44
HETATM   44  C   UNK N   1      23.225  12.939  10.118  0.00  0.00     0.173 C 
BRANCH  44  45
HETATM   45  C   UNK N   1      24.674  13.245   9.827  0.00  0.00     0.163 C 
HETATM   46  O   UNK N   1      25.008  13.639   8.723  0.00  0.00    -0.648 OA
BRANCH  45  47
HETATM   47  O   UNK N   1      25.615  13.061  10.777  0.00  0.00    -0.775 OA
HETATM   48  H   UNK N   1      25.400  13.089  11.688  0.00  0.00     0.167 HD
ENDBRANCH  45  47
ENDBRANCH  44  45
BRANCH  44  49
HETATM   49  N   UNK N   1      22.375  13.883   9.413  0.00  0.00    -0.418 N 
HETATM   50  H   UNK N   1      21.361  13.853   9.306  0.00  0.00     0.150 HD
HETATM   51  H   UNK N   1      22.849  14.670   8.970  0.00  0.00     0.150 HD
ENDBRANCH  44  49
ENDBRANCH  43  44
ENDBRANCH  42  43
ENDBRANCH  40  42
BRANCH  40  52
HETATM   52  O   UNK N   1      21.159  11.857   7.466  0.00  0.00    -0.350 OA
HETATM   53  H   UNK N   1      20.487  12.492   7.313  0.00  0.00     0.219 HD
ENDBRANCH  40  52
ENDBRANCH  15  39
ENDBRANCH  14  15
ENDBRANCH  13  14
ENDBRANCH  12  13
ENDBRANCH  11  12
ENDBRANCH  10  11
BRANCH  10  54
HETATM   54  N   UNK N   1      22.751  15.618   4.613  0.00  0.00    -0.362 N 
HETATM   55  C   UNK N   1      22.486  15.361   5.858  0.00  0.00     0.111 C 
ATOM     56  HN  UNK N   1      21.966  15.629   3.961  1.00  0.00     0.162 HD
BRANCH  55  57
HETATM   57  C   UNK N   1      21.076  15.077   6.281  0.00  0.00     0.086 C 
BRANCH  57  58
HETATM   58  C   UNK N   1      20.283  16.338   6.640  0.00  0.00     0.043 C 
BRANCH  58  59
HETATM   59  C   UNK N   1      20.268  16.706   8.125  0.00  0.00     0.173 C 
BRANCH  59  60
HETATM   60  C   UNK N   1      20.275  18.194   8.334  0.00  0.00     0.163 C 
HETATM   61  O   UNK N   1      20.735  18.931   7.477  0.00  0.00    -0.648 OA
BRANCH  60  62
HETATM   62  O   UNK N   1      19.789  18.721   9.476  0.00  0.00    -0.775 OA
HETATM   63  H   UNK N   1      19.186  18.370  10.103  0.00  0.00     0.167 HD
ENDBRANCH  60  62
ENDBRANCH  59  60
BRANCH  59  64
HETATM   64  N   UNK N   1      19.069  16.149   8.727  0.00  0.00    -0.418 N 
HETATM   65  H   UNK N   1      18.093  16.443   8.767  0.00  0.00     0.150 HD
HETATM   66  H   UNK N   1      19.241  15.272   9.218  0.00  0.00     0.150 HD
ENDBRANCH  59  64
ENDBRANCH  58  59
ENDBRANCH  57  58
ENDBRANCH  55  57
BRANCH  55  67
HETATM   67  O   UNK N   1      23.460  15.315   6.792  0.00  0.00    -0.350 OA
HETATM   68  H   UNK N   1      24.087  14.619   6.813  0.00  0.00     0.219 HD
ENDBRANCH  55  67
ENDBRANCH  10  54
ENDBRANCH   8  10
BRANCH   8  69
HETATM   69  O   UNK N   1      25.414  17.261   5.655  0.00  0.00    -0.348 OA
HETATM   70  H   UNK N   1      25.750  17.437   6.512  0.00  0.00     0.219 HD
ENDBRANCH   8  69
ENDBRANCH   6   7
ENDBRANCH   1   6
BRANCH   2  71
HETATM   71  C   UNK N   1      27.763  19.630   4.564  0.00  0.00     0.123 C 
BRANCH  71  72
HETATM   72  C   UNK N   1      27.873  20.655   5.687  0.00  0.00     0.039 C 
BRANCH  72  73
HETATM   73  C   UNK N   1      27.305  20.135   7.008  0.00  0.00     0.115 C 
BRANCH  73  74
HETATM   74  N   UNK N   1      27.522  18.697   7.121  0.00  0.00    -0.421 N 
HETATM   75  H   UNK N   1      27.125  17.988   6.505  0.00  0.00     0.153 HD
BRANCH  74  76
HETATM   76  C   UNK N   1      28.396  18.438   8.255  0.00  0.00     0.113 C 
BRANCH  76  77
HETATM   77  C   UNK N   1      29.727  17.864   7.795  0.00  0.00     0.021 C 
BRANCH  77  78
HETATM   78  C   UNK N   1      29.537  17.128   6.480  0.00  0.00     0.021 C 
BRANCH  78  79
HETATM   79  C   UNK N   1      30.840  17.065   5.709  0.00  0.00     0.111 C 
BRANCH  79  80
HETATM   80  N   UNK N   1      30.660  17.642   4.389  0.00  0.00    -0.430 N 
HETATM   81  H   UNK N   1      30.532  18.645   4.254  0.00  0.00     0.149 HD
HETATM   82  H   UNK N   1      30.660  17.027   3.575  0.00  0.00     0.149 HD
ENDBRANCH  79  80
ENDBRANCH  78  79
ENDBRANCH  77  78
ENDBRANCH  76  77
ENDBRANCH  74  76
ENDBRANCH  73  74
ENDBRANCH  72  73
ENDBRANCH  71  72
ENDBRANCH   2  71
TORSDOF 48
ENDMDL
MODEL 7
REMARK VINA RESULT:      -4.9      3.081      8.883
REMARK WARNING: 32 MAX_TORS EXCEEDED!!!
REMARK  48 active torsions:
REMARK  status: ('A' for Active; 'I' for Inactive)
REMARK    1  A    between atoms: C_3  and  C_1 
REMARK    2  A    between atoms: C_11  and  C_1 
REMARK    3  A    between atoms: C_4  and  C_2 
REMARK    4  A    between atoms: C_12  and  C_2 
REMARK    5  A    between atoms: C_13  and  C_3 
REMARK    6  A    between atoms: C_14  and  C_4 
REMARK    7  A    between atoms: C_15  and  C_5 
REMARK    8  A    between atoms: C_17  and  C_5 
REMARK    9  A    between atoms: C_16  and  C_6 
REMARK   10  A    between atoms: C_18  and  C_6 
REMARK   11  A    between atoms: C_9  and  C_7 
REMARK   12  A    between atoms: C_23  and  C_7 
REMARK   13  A    between atoms: C_10  and  C_8 
REMARK   14  A    between atoms: C_24  and  C_8 
REMARK   15  A    between atoms: C_27  and  C_9 
REMARK   16  A    between atoms: C_28  and  C_10 
REMARK   17  A    between atoms: N_35  and  C_11 
REMARK   18  A    between atoms: N_36  and  C_12 
REMARK   19  A    between atoms: N_39  and  C_13 
REMARK   20  A    between atoms: N_40  and  C_14 
REMARK   21  A    between atoms: N_39  and  C_15 
REMARK   22  A    between atoms: N_40  and  C_16 
REMARK   23  A    between atoms: N_41  and  C_17 
REMARK   24  A    between atoms: N_43  and  C_18 
REMARK   25  A    between atoms: C_29  and  C_19 
REMARK   26  A    between atoms: N_45  and  C_19 
REMARK   27  A    between atoms: C_30  and  C_20 
REMARK   28  A    between atoms: N_47  and  C_20 
REMARK   29  A    between atoms: C_25  and  C_21 
REMARK   30  A    between atoms: S_63  and  C_21 
REMARK   31  A    between atoms: C_26  and  C_22 
REMARK   32  A    between atoms: S_64  and  C_22 
REMARK   33  A    between atoms: C_33  and  C_23 
REMARK   34  A    between atoms: C_23  and  N_37 
REMARK   35  A    between atoms: C_34  and  C_24 
REMARK   36  A    between atoms: C_24  and  N_38 
REMARK   37  A    between atoms: C_31  and  C_25 
REMARK   38  A    between atoms: C_25  and  N_49 
REMARK   39  A    between atoms: C_32  and  C_26 
REMARK   40  A    between atoms: C_26  and  N_51 
REMARK   41  A    between atoms: C_27  and  O_53 
REMARK   42  A    between atoms: C_28  and  O_54 
REMARK   43  A    between atoms: O_56  and  C_30 
REMARK   44  A    between atoms: O_57  and  C_31 
REMARK   45  A    between atoms: O_58  and  C_32 
REMARK   46  A    between atoms: O_60  and  C_33 
REMARK   47  A    between atoms: O_62  and  C_34 
REMARK   48  A    between atoms: S_64  and  S_63 
ROOT
HETATM    1  C   UNK N   1      20.976  20.245   1.250  0.00  0.00     0.129 C 
HETATM    2  N   UNK N   1      22.126  20.641   1.670  0.00  0.00    -0.373 N 
ATOM      3  HN  UNK N   1      22.702  21.201   1.042  1.00  0.00     0.161 HD
HETATM    4  O   UNK N   1      20.591  20.573   0.003  0.00  0.00    -0.348 OA
HETATM    5  H   UNK N   1      20.316  20.887  -0.835  0.00  0.00     0.219 HD
ENDROOT
BRANCH   1   6
HETATM    6  C   UNK N   1      20.005  19.500   2.125  0.00  0.00     0.205 C 
BRANCH   6   7
HETATM    7  N   UNK N   1      20.284  18.091   2.339  0.00  0.00    -0.365 N 
HETATM    8  C   UNK N   1      20.152  17.184   1.426  0.00  0.00     0.135 C 
ATOM      9  HN  UNK N   1      20.603  17.800   3.264  1.00  0.00     0.161 HD
BRANCH   8  10
HETATM   10  C   UNK N   1      20.350  15.721   1.786  0.00  0.00     0.168 C 
BRANCH  10  11
HETATM   11  C   UNK N   1      21.602  15.094   1.153  0.00  0.00     0.119 C 
BRANCH  11  12
HETATM   12  S   UNK N   1      22.129  13.467   1.752  0.00  0.00    -0.095 SA
BRANCH  12  13
HETATM   13  S   UNK N   1      24.002  13.792   0.780  0.00  0.00    -0.095 SA
BRANCH  13  14
HETATM   14  C   UNK N   1      24.843  12.409   1.613  0.00  0.00     0.119 C 
BRANCH  14  15
HETATM   15  C   UNK N   1      25.325  12.698   3.039  0.00  0.00     0.168 C 
BRANCH  15  16
HETATM   16  C   UNK N   1      26.727  13.213   2.907  0.00  0.00     0.135 C 
HETATM   17  N   UNK N   1      27.295  13.727   3.937  0.00  0.00    -0.365 N 
ATOM     18  HN  UNK N   1      26.782  13.726   4.819  1.00  0.00     0.161 HD
BRANCH  17  19
HETATM   19  C   UNK N   1      28.610  14.302   3.920  0.00  0.00     0.205 C 
BRANCH  19  20
HETATM   20  C   UNK N   1      28.622  15.788   4.252  0.00  0.00     0.129 C 
HETATM   21  N   UNK N   1      29.638  16.580   4.091  0.00  0.00    -0.373 N 
ATOM     22  HN  UNK N   1      29.505  17.561   4.338  1.00  0.00     0.161 HD
BRANCH  21  23
HETATM   23  C   UNK N   1      30.941  16.199   3.595  0.00  0.00     0.123 C 
BRANCH  23  24
HETATM   24  C   UNK N   1      31.939  16.117   4.737  0.00  0.00     0.039 C 
BRANCH  24  25
HETATM   25  C   UNK N   1      32.603  17.461   4.963  0.00  0.00     0.115 C 
BRANCH  25  26
HETATM   26  N   UNK N   1      33.874  17.272   5.641  0.00  0.00    -0.421 N 
HETATM   27  H   UNK N   1      34.800  17.463   5.255  0.00  0.00     0.153 HD
BRANCH  26  28
HETATM   28  C   UNK N   1      33.581  16.762   6.966  0.00  0.00     0.113 C 
BRANCH  28  29
HETATM   29  C   UNK N   1      33.009  17.870   7.826  0.00  0.00     0.021 C 
BRANCH  29  30
HETATM   30  C   UNK N   1      31.800  17.348   8.578  0.00  0.00     0.021 C 
BRANCH  30  31
HETATM   31  C   UNK N   1      31.818  15.832   8.613  0.00  0.00     0.111 C 
BRANCH  31  32
HETATM   32  N   UNK N   1      31.894  15.371   9.988  0.00  0.00    -0.430 N 
HETATM   33  H   UNK N   1      31.859  15.856  10.885  0.00  0.00     0.149 HD
HETATM   34  H   UNK N   1      32.005  14.360  10.076  0.00  0.00     0.149 HD
ENDBRANCH  31  32
ENDBRANCH  30  31
ENDBRANCH  29  30
ENDBRANCH  28  29
ENDBRANCH  26  28
ENDBRANCH  25  26
ENDBRANCH  24  25
ENDBRANCH  23  24
ENDBRANCH  21  23
BRANCH  20  35
HETATM   35  O   UNK N   1      27.488  16.308   4.755  0.00  0.00    -0.348 OA
HETATM   36  H   UNK N   1      26.656  16.055   4.405  0.00  0.00     0.219 HD
ENDBRANCH  20  35
ENDBRANCH  19  20
ENDBRANCH  17  19
BRANCH  16  37
HETATM   37  O   UNK N   1      27.363  13.174   1.722  0.00  0.00    -0.348 OA
HETATM   38  H   UNK N   1      26.986  13.552   0.953  0.00  0.00     0.219 HD
ENDBRANCH  16  37
ENDBRANCH  15  16
BRANCH  15  39
HETATM   39  N   UNK N   1      25.417  11.498   3.859  0.00  0.00    -0.362 N 
HETATM   40  C   UNK N   1      24.641  11.141   4.826  0.00  0.00     0.111 C 
ATOM     41  HN  UNK N   1      26.188  10.865   3.645  1.00  0.00     0.162 HD
BRANCH  40  42
HETATM   42  C   UNK N   1      23.454  11.953   5.240  0.00  0.00     0.086 C 
BRANCH  42  43
HETATM   43  C   UNK N   1      23.694  12.717   6.547  0.00  0.00     0.043 C 
BRANCH  43  44
HETATM   44  C   UNK N   1      23.745  14.241   6.413  0.00  0.00     0.173 C 
BRANCH  44  45
HETATM   45  C   UNK N   1      25.156  14.763   6.533  0.00  0.00     0.163 C 
HETATM   46  O   UNK N   1      26.100  13.992   6.506  0.00  0.00    -0.648 OA
BRANCH  45  47
HETATM   47  O   UNK N   1      25.385  16.082   6.695  0.00  0.00    -0.775 OA
HETATM   48  H   UNK N   1      25.899  16.567   6.080  0.00  0.00     0.167 HD
ENDBRANCH  45  47
ENDBRANCH  44  45
BRANCH  44  49
HETATM   49  N   UNK N   1      23.202  14.593   5.112  0.00  0.00    -0.418 N 
HETATM   50  H   UNK N   1      23.530  15.317   4.473  0.00  0.00     0.150 HD
HETATM   51  H   UNK N   1      22.397  14.051   4.801  0.00  0.00     0.150 HD
ENDBRANCH  44  49
ENDBRANCH  43  44
ENDBRANCH  42  43
ENDBRANCH  40  42
BRANCH  40  52
HETATM   52  O   UNK N   1      24.936  10.021   5.513  0.00  0.00    -0.350 OA
HETATM   53  H   UNK N   1      24.771   9.099   5.526  0.00  0.00     0.219 HD
ENDBRANCH  40  52
ENDBRANCH  15  39
ENDBRANCH  14  15
ENDBRANCH  13  14
ENDBRANCH  12  13
ENDBRANCH  11  12
ENDBRANCH  10  11
BRANCH  10  54
HETATM   54  N   UNK N   1      20.404  15.529   3.235  0.00  0.00    -0.362 N 
HETATM   55  C   UNK N   1      19.610  14.767   3.924  0.00  0.00     0.111 C 
ATOM     56  HN  UNK N   1      21.126  16.036   3.747  1.00  0.00     0.162 HD
BRANCH  55  57
HETATM   57  C   UNK N   1      19.763  14.677   5.412  0.00  0.00     0.086 C 
BRANCH  57  58
HETATM   58  C   UNK N   1      19.477  15.998   6.134  0.00  0.00     0.043 C 
BRANCH  58  59
HETATM   59  C   UNK N   1      20.663  16.614   6.878  0.00  0.00     0.173 C 
BRANCH  59  60
HETATM   60  C   UNK N   1      21.488  17.498   5.986  0.00  0.00     0.163 C 
HETATM   61  O   UNK N   1      20.948  18.170   5.122  0.00  0.00    -0.648 OA
BRANCH  60  62
HETATM   62  O   UNK N   1      22.828  17.539   6.124  0.00  0.00    -0.775 OA
HETATM   63  H   UNK N   1      23.398  17.070   6.702  0.00  0.00     0.167 HD
ENDBRANCH  60  62
ENDBRANCH  59  60
BRANCH  59  64
HETATM   64  N   UNK N   1      20.154  17.403   7.986  0.00  0.00    -0.418 N 
HETATM   65  H   UNK N   1      19.231  17.750   8.244  0.00  0.00     0.150 HD
HETATM   66  H   UNK N   1      20.880  17.668   8.652  0.00  0.00     0.150 HD
ENDBRANCH  59  64
ENDBRANCH  58  59
ENDBRANCH  57  58
ENDBRANCH  55  57
BRANCH  55  67
HETATM   67  O   UNK N   1      18.619  14.064   3.335  0.00  0.00    -0.350 OA
HETATM   68  H   UNK N   1      18.597  13.930   2.408  0.00  0.00     0.219 HD
ENDBRANCH  55  67
ENDBRANCH  10  54
ENDBRANCH   8  10
BRANCH   8  69
HETATM   69  O   UNK N   1      19.843  17.533   0.160  0.00  0.00    -0.348 OA
HETATM   70  H   UNK N   1      19.524  17.997  -0.590  0.00  0.00     0.219 HD
ENDBRANCH   8  69
ENDBRANCH   6   7
ENDBRANCH   1   6
BRANCH   2  71
HETATM   71  C   UNK N   1      22.644  20.340   2.982  0.00  0.00     0.123 C 
BRANCH  71  72
HETATM   72  C   UNK N   1      24.160  20.505   2.981  0.00  0.00     0.039 C 
BRANCH  72  73
HETATM   73  C   UNK N   1      24.839  19.654   4.054  0.00  0.00     0.115 C 
BRANCH  73  74
HETATM   74  N   UNK N   1      26.276  19.908   4.068  0.00  0.00    -0.421 N 
HETATM   75  H   UNK N   1      26.845  20.139   3.254  0.00  0.00     0.153 HD
BRANCH  74  76
HETATM   76  C   UNK N   1      26.766  19.779   5.433  0.00  0.00     0.113 C 
BRANCH  76  77
HETATM   77  C   UNK N   1      27.433  21.066   5.893  0.00  0.00     0.021 C 
BRANCH  77  78
HETATM   78  C   UNK N   1      26.415  21.943   6.601  0.00  0.00     0.021 C 
BRANCH  78  79
HETATM   79  C   UNK N   1      25.955  21.295   7.890  0.00  0.00     0.111 C 
BRANCH  79  80
HETATM   80  N   UNK N   1      25.380  22.299   8.768  0.00  0.00    -0.430 N 
HETATM   81  H   UNK N   1      25.962  22.889   9.361  0.00  0.00     0.149 HD
HETATM   82  H   UNK N   1      24.367  22.415   8.793  0.00  0.00     0.149 HD
ENDBRANCH  79  80
ENDBRANCH  78  79
ENDBRANCH  77  78
ENDBRANCH  76  77
ENDBRANCH  74  76
ENDBRANCH  73  74
ENDBRANCH  72  73
ENDBRANCH  71  72
ENDBRANCH   2  71
TORSDOF 48
ENDMDL
MODEL 8
REMARK VINA RESULT:      -4.9      3.044      8.675
REMARK WARNING: 32 MAX_TORS EXCEEDED!!!
REMARK  48 active torsions:
REMARK  status: ('A' for Active; 'I' for Inactive)
REMARK    1  A    between atoms: C_3  and  C_1 
REMARK    2  A    between atoms: C_11  and  C_1 
REMARK    3  A    between atoms: C_4  and  C_2 
REMARK    4  A    between atoms: C_12  and  C_2 
REMARK    5  A    between atoms: C_13  and  C_3 
REMARK    6  A    between atoms: C_14  and  C_4 
REMARK    7  A    between atoms: C_15  and  C_5 
REMARK    8  A    between atoms: C_17  and  C_5 
REMARK    9  A    between atoms: C_16  and  C_6 
REMARK   10  A    between atoms: C_18  and  C_6 
REMARK   11  A    between atoms: C_9  and  C_7 
REMARK   12  A    between atoms: C_23  and  C_7 
REMARK   13  A    between atoms: C_10  and  C_8 
REMARK   14  A    between atoms: C_24  and  C_8 
REMARK   15  A    between atoms: C_27  and  C_9 
REMARK   16  A    between atoms: C_28  and  C_10 
REMARK   17  A    between atoms: N_35  and  C_11 
REMARK   18  A    between atoms: N_36  and  C_12 
REMARK   19  A    between atoms: N_39  and  C_13 
REMARK   20  A    between atoms: N_40  and  C_14 
REMARK   21  A    between atoms: N_39  and  C_15 
REMARK   22  A    between atoms: N_40  and  C_16 
REMARK   23  A    between atoms: N_41  and  C_17 
REMARK   24  A    between atoms: N_43  and  C_18 
REMARK   25  A    between atoms: C_29  and  C_19 
REMARK   26  A    between atoms: N_45  and  C_19 
REMARK   27  A    between atoms: C_30  and  C_20 
REMARK   28  A    between atoms: N_47  and  C_20 
REMARK   29  A    between atoms: C_25  and  C_21 
REMARK   30  A    between atoms: S_63  and  C_21 
REMARK   31  A    between atoms: C_26  and  C_22 
REMARK   32  A    between atoms: S_64  and  C_22 
REMARK   33  A    between atoms: C_33  and  C_23 
REMARK   34  A    between atoms: C_23  and  N_37 
REMARK   35  A    between atoms: C_34  and  C_24 
REMARK   36  A    between atoms: C_24  and  N_38 
REMARK   37  A    between atoms: C_31  and  C_25 
REMARK   38  A    between atoms: C_25  and  N_49 
REMARK   39  A    between atoms: C_32  and  C_26 
REMARK   40  A    between atoms: C_26  and  N_51 
REMARK   41  A    between atoms: C_27  and  O_53 
REMARK   42  A    between atoms: C_28  and  O_54 
REMARK   43  A    between atoms: O_56  and  C_30 
REMARK   44  A    between atoms: O_57  and  C_31 
REMARK   45  A    between atoms: O_58  and  C_32 
REMARK   46  A    between atoms: O_60  and  C_33 
REMARK   47  A    between atoms: O_62  and  C_34 
REMARK   48  A    between atoms: S_64  and  S_63 
ROOT
HETATM    1  C   UNK N   1      19.781  14.964   2.462  0.00  0.00     0.129 C 
HETATM    2  N   UNK N   1      19.505  16.185   2.169  0.00  0.00    -0.373 N 
ATOM      3  HN  UNK N   1      18.541  16.501   2.280  1.00  0.00     0.161 HD
HETATM    4  O   UNK N   1      18.793  14.157   2.889  0.00  0.00    -0.348 OA
HETATM    5  H   UNK N   1      18.103  13.645   3.262  0.00  0.00     0.219 HD
ENDROOT
BRANCH   1   6
HETATM    6  C   UNK N   1      21.184  14.419   2.430  0.00  0.00     0.205 C 
BRANCH   6   7
HETATM    7  N   UNK N   1      21.562  13.554   3.533  0.00  0.00    -0.365 N 
HETATM    8  C   UNK N   1      22.575  13.775   4.307  0.00  0.00     0.135 C 
ATOM      9  HN  UNK N   1      20.995  12.724   3.708  1.00  0.00     0.161 HD
BRANCH   8  10
HETATM   10  C   UNK N   1      22.959  12.743   5.354  0.00  0.00     0.168 C 
BRANCH  10  11
HETATM   11  C   UNK N   1      24.465  12.438   5.396  0.00  0.00     0.119 C 
BRANCH  11  12
HETATM   12  S   UNK N   1      25.197  11.589   3.973  0.00  0.00    -0.095 SA
BRANCH  12  13
HETATM   13  S   UNK N   1      27.069  12.471   4.497  0.00  0.00    -0.095 SA
BRANCH  13  14
HETATM   14  C   UNK N   1      27.079  13.639   3.101  0.00  0.00     0.119 C 
BRANCH  14  15
HETATM   15  C   UNK N   1      27.303  15.109   3.476  0.00  0.00     0.168 C 
BRANCH  15  16
HETATM   16  C   UNK N   1      28.684  15.183   4.054  0.00  0.00     0.135 C 
HETATM   17  N   UNK N   1      29.689  14.995   3.276  0.00  0.00    -0.365 N 
ATOM     18  HN  UNK N   1      29.506  14.843   2.284  1.00  0.00     0.161 HD
BRANCH  17  19
HETATM   19  C   UNK N   1      31.053  14.986   3.721  0.00  0.00     0.205 C 
BRANCH  19  20
HETATM   20  C   UNK N   1      31.765  16.314   3.506  0.00  0.00     0.129 C 
HETATM   21  N   UNK N   1      32.809  16.716   4.166  0.00  0.00    -0.373 N 
ATOM     22  HN  UNK N   1      33.199  17.623   3.909  1.00  0.00     0.161 HD
BRANCH  21  23
HETATM   23  C   UNK N   1      33.467  15.997   5.233  0.00  0.00     0.123 C 
BRANCH  23  24
HETATM   24  C   UNK N   1      33.769  16.930   6.393  0.00  0.00     0.039 C 
BRANCH  24  25
HETATM   25  C   UNK N   1      33.267  16.341   7.697  0.00  0.00     0.115 C 
BRANCH  25  26
HETATM   26  N   UNK N   1      33.429  17.309   8.767  0.00  0.00    -0.421 N 
HETATM   27  H   UNK N   1      34.133  17.282   9.507  0.00  0.00     0.153 HD
BRANCH  26  28
HETATM   28  C   UNK N   1      32.406  18.321   8.589  0.00  0.00     0.113 C 
BRANCH  28  29
HETATM   29  C   UNK N   1      31.050  17.659   8.458  0.00  0.00     0.021 C 
BRANCH  29  30
HETATM   30  C   UNK N   1      29.997  18.541   9.103  0.00  0.00     0.021 C 
BRANCH  30  31
HETATM   31  C   UNK N   1      28.771  17.721   9.457  0.00  0.00     0.111 C 
BRANCH  31  32
HETATM   32  N   UNK N   1      27.568  18.464   9.124  0.00  0.00    -0.430 N 
HETATM   33  H   UNK N   1      26.747  18.733   9.667  0.00  0.00     0.149 HD
HETATM   34  H   UNK N   1      27.537  18.780   8.154  0.00  0.00     0.149 HD
ENDBRANCH  31  32
ENDBRANCH  30  31
ENDBRANCH  29  30
ENDBRANCH  28  29
ENDBRANCH  26  28
ENDBRANCH  25  26
ENDBRANCH  24  25
ENDBRANCH  23  24
ENDBRANCH  21  23
BRANCH  20  35
HETATM   35  O   UNK N   1      31.264  17.127   2.559  0.00  0.00    -0.348 OA
HETATM   36  H   UNK N   1      31.543  17.044   1.669  0.00  0.00     0.219 HD
ENDBRANCH  20  35
ENDBRANCH  19  20
ENDBRANCH  17  19
BRANCH  16  37
HETATM   37  O   UNK N   1      28.868  15.403   5.368  0.00  0.00    -0.348 OA
HETATM   38  H   UNK N   1      29.701  15.665   5.707  0.00  0.00     0.219 HD
ENDBRANCH  16  37
ENDBRANCH  15  16
BRANCH  15  39
HETATM   39  N   UNK N   1      26.406  15.567   4.527  0.00  0.00    -0.362 N 
HETATM   40  C   UNK N   1      25.787  16.697   4.600  0.00  0.00     0.111 C 
ATOM     41  HN  UNK N   1      26.249  14.918   5.299  1.00  0.00     0.162 HD
BRANCH  40  42
HETATM   42  C   UNK N   1      25.898  17.740   3.533  0.00  0.00     0.086 C 
BRANCH  42  43
HETATM   43  C   UNK N   1      25.169  19.037   3.903  0.00  0.00     0.043 C 
BRANCH  43  44
HETATM   44  C   UNK N   1      26.073  20.200   4.317  0.00  0.00     0.173 C 
BRANCH  44  45
HETATM   45  C   UNK N   1      27.165  19.749   5.255  0.00  0.00     0.163 C 
HETATM   46  O   UNK N   1      28.315  19.659   4.860  0.00  0.00    -0.648 OA
BRANCH  45  47
HETATM   47  O   UNK N   1      26.876  19.418   6.531  0.00  0.00    -0.775 OA
HETATM   48  H   UNK N   1      26.018  19.545   6.885  0.00  0.00     0.167 HD
ENDBRANCH  45  47
ENDBRANCH  44  45
BRANCH  44  49
HETATM   49  N   UNK N   1      26.663  20.757   3.111  0.00  0.00    -0.418 N 
HETATM   50  H   UNK N   1      26.265  20.778   2.172  0.00  0.00     0.150 HD
HETATM   51  H   UNK N   1      27.586  21.178   3.217  0.00  0.00     0.150 HD
ENDBRANCH  44  49
ENDBRANCH  43  44
ENDBRANCH  42  43
ENDBRANCH  40  42
BRANCH  40  52
HETATM   52  O   UNK N   1      25.052  16.963   5.697  0.00  0.00    -0.350 OA
HETATM   53  H   UNK N   1      25.130  17.260   6.582  0.00  0.00     0.219 HD
ENDBRANCH  40  52
ENDBRANCH  15  39
ENDBRANCH  14  15
ENDBRANCH  13  14
ENDBRANCH  12  13
ENDBRANCH  11  12
ENDBRANCH  10  11
BRANCH  10  54
HETATM   54  N   UNK N   1      22.519  13.145   6.689  0.00  0.00    -0.362 N 
HETATM   55  C   UNK N   1      21.503  12.651   7.329  0.00  0.00     0.111 C 
ATOM     56  HN  UNK N   1      23.056  13.876   7.157  1.00  0.00     0.162 HD
BRANCH  55  57
HETATM   57  C   UNK N   1      21.149  13.173   8.689  0.00  0.00     0.086 C 
BRANCH  57  58
HETATM   58  C   UNK N   1      22.343  13.764   9.444  0.00  0.00     0.043 C 
BRANCH  58  59
HETATM   59  C   UNK N   1      23.398  12.755   9.903  0.00  0.00     0.173 C 
BRANCH  59  60
HETATM   60  C   UNK N   1      24.795  13.242   9.636  0.00  0.00     0.163 C 
HETATM   61  O   UNK N   1      25.143  13.506   8.497  0.00  0.00    -0.648 OA
BRANCH  60  62
HETATM   62  O   UNK N   1      25.672  13.372  10.650  0.00  0.00    -0.775 OA
HETATM   63  H   UNK N   1      26.610  13.334  10.656  0.00  0.00     0.167 HD
ENDBRANCH  60  62
ENDBRANCH  59  60
BRANCH  59  64
HETATM   64  N   UNK N   1      23.238  12.536  11.330  0.00  0.00    -0.418 N 
HETATM   65  H   UNK N   1      23.810  12.745  12.148  0.00  0.00     0.150 HD
HETATM   66  H   UNK N   1      22.361  12.071  11.565  0.00  0.00     0.150 HD
ENDBRANCH  59  64
ENDBRANCH  58  59
ENDBRANCH  57  58
ENDBRANCH  55  57
BRANCH  55  67
HETATM   67  O   UNK N   1      20.729  11.688   6.786  0.00  0.00    -0.350 OA
HETATM   68  H   UNK N   1      21.098  10.905   6.428  0.00  0.00     0.219 HD
ENDBRANCH  55  67
ENDBRANCH  10  54
ENDBRANCH   8  10
BRANCH   8  69
HETATM   69  O   UNK N   1      23.286  14.916   4.189  0.00  0.00    -0.348 OA
HETATM   70  H   UNK N   1      23.690  15.743   4.366  0.00  0.00     0.219 HD
ENDBRANCH   8  69
ENDBRANCH   6   7
ENDBRANCH   1   6
BRANCH   2  71
HETATM   71  C   UNK N   1      20.480  17.134   1.693  0.00  0.00     0.123 C 
BRANCH  71  72
HETATM   72  C   UNK N   1      20.589  18.292   2.680  0.00  0.00     0.039 C 
BRANCH  72  73
HETATM   73  C   UNK N   1      21.951  18.341   3.373  0.00  0.00     0.115 C 
BRANCH  73  74
HETATM   74  N   UNK N   1      21.993  17.385   4.474  0.00  0.00    -0.421 N 
HETATM   75  H   UNK N   1      22.620  16.583   4.538  0.00  0.00     0.153 HD
BRANCH  74  76
HETATM   76  C   UNK N   1      20.997  17.761   5.466  0.00  0.00     0.113 C 
BRANCH  76  77
HETATM   77  C   UNK N   1      21.302  17.120   6.811  0.00  0.00     0.021 C 
BRANCH  77  78
HETATM   78  C   UNK N   1      20.055  16.439   7.346  0.00  0.00     0.021 C 
BRANCH  78  79
HETATM   79  C   UNK N   1      19.803  16.841   8.785  0.00  0.00     0.111 C 
BRANCH  79  80
HETATM   80  N   UNK N   1      18.773  15.994   9.360  0.00  0.00    -0.430 N 
HETATM   81  H   UNK N   1      18.103  15.492   8.777  0.00  0.00     0.149 HD
HETATM   82  H   UNK N   1      18.719  15.898  10.374  0.00  0.00     0.149 HD
ENDBRANCH  79  80
ENDBRANCH  78  79
ENDBRANCH  77  78
ENDBRANCH  76  77
ENDBRANCH  74  76
ENDBRANCH  73  74
ENDBRANCH  72  73
ENDBRANCH  71  72
ENDBRANCH   2  71
TORSDOF 48
ENDMDL
MODEL 9
REMARK VINA RESULT:      -4.8      3.243      7.332
REMARK WARNING: 32 MAX_TORS EXCEEDED!!!
REMARK  48 active torsions:
REMARK  status: ('A' for Active; 'I' for Inactive)
REMARK    1  A    between atoms: C_3  and  C_1 
REMARK    2  A    between atoms: C_11  and  C_1 
REMARK    3  A    between atoms: C_4  and  C_2 
REMARK    4  A    between atoms: C_12  and  C_2 
REMARK    5  A    between atoms: C_13  and  C_3 
REMARK    6  A    between atoms: C_14  and  C_4 
REMARK    7  A    between atoms: C_15  and  C_5 
REMARK    8  A    between atoms: C_17  and  C_5 
REMARK    9  A    between atoms: C_16  and  C_6 
REMARK   10  A    between atoms: C_18  and  C_6 
REMARK   11  A    between atoms: C_9  and  C_7 
REMARK   12  A    between atoms: C_23  and  C_7 
REMARK   13  A    between atoms: C_10  and  C_8 
REMARK   14  A    between atoms: C_24  and  C_8 
REMARK   15  A    between atoms: C_27  and  C_9 
REMARK   16  A    between atoms: C_28  and  C_10 
REMARK   17  A    between atoms: N_35  and  C_11 
REMARK   18  A    between atoms: N_36  and  C_12 
REMARK   19  A    between atoms: N_39  and  C_13 
REMARK   20  A    between atoms: N_40  and  C_14 
REMARK   21  A    between atoms: N_39  and  C_15 
REMARK   22  A    between atoms: N_40  and  C_16 
REMARK   23  A    between atoms: N_41  and  C_17 
REMARK   24  A    between atoms: N_43  and  C_18 
REMARK   25  A    between atoms: C_29  and  C_19 
REMARK   26  A    between atoms: N_45  and  C_19 
REMARK   27  A    between atoms: C_30  and  C_20 
REMARK   28  A    between atoms: N_47  and  C_20 
REMARK   29  A    between atoms: C_25  and  C_21 
REMARK   30  A    between atoms: S_63  and  C_21 
REMARK   31  A    between atoms: C_26  and  C_22 
REMARK   32  A    between atoms: S_64  and  C_22 
REMARK   33  A    between atoms: C_33  and  C_23 
REMARK   34  A    between atoms: C_23  and  N_37 
REMARK   35  A    between atoms: C_34  and  C_24 
REMARK   36  A    between atoms: C_24  and  N_38 
REMARK   37  A    between atoms: C_31  and  C_25 
REMARK   38  A    between atoms: C_25  and  N_49 
REMARK   39  A    between atoms: C_32  and  C_26 
REMARK   40  A    between atoms: C_26  and  N_51 
REMARK   41  A    between atoms: C_27  and  O_53 
REMARK   42  A    between atoms: C_28  and  O_54 
REMARK   43  A    between atoms: O_56  and  C_30 
REMARK   44  A    between atoms: O_57  and  C_31 
REMARK   45  A    between atoms: O_58  and  C_32 
REMARK   46  A    between atoms: O_60  and  C_33 
REMARK   47  A    between atoms: O_62  and  C_34 
REMARK   48  A    between atoms: S_64  and  S_63 
ROOT
HETATM    1  C   UNK N   1      28.467  18.040   8.953  0.00  0.00     0.129 C 
HETATM    2  N   UNK N   1      29.633  17.678   9.358  0.00  0.00    -0.373 N 
ATOM      3  HN  UNK N   1      29.704  16.837   9.931  1.00  0.00     0.161 HD
HETATM    4  O   UNK N   1      27.397  17.307   9.310  0.00  0.00    -0.348 OA
HETATM    5  H   UNK N   1      26.684  16.731   9.504  0.00  0.00     0.219 HD
ENDROOT
BRANCH   1   6
HETATM    6  C   UNK N   1      28.256  19.204   8.022  0.00  0.00     0.205 C 
BRANCH   6   7
HETATM    7  N   UNK N   1      27.595  18.909   6.764  0.00  0.00    -0.365 N 
HETATM    8  C   UNK N   1      27.907  17.909   6.004  0.00  0.00     0.135 C 
ATOM      9  HN  UNK N   1      26.840  19.526   6.462  1.00  0.00     0.161 HD
BRANCH   8  10
HETATM   10  C   UNK N   1      27.239  17.760   4.648  0.00  0.00     0.168 C 
BRANCH  10  11
HETATM   11  C   UNK N   1      27.885  16.686   3.758  0.00  0.00     0.119 C 
BRANCH  11  12
HETATM   12  S   UNK N   1      26.791  15.666   2.734  0.00  0.00    -0.095 SA
BRANCH  12  13
HETATM   13  S   UNK N   1      27.114  14.063   4.107  0.00  0.00    -0.095 SA
BRANCH  13  14
HETATM   14  C   UNK N   1      26.315  12.808   3.059  0.00  0.00     0.119 C 
BRANCH  14  15
HETATM   15  C   UNK N   1      24.811  13.004   2.831  0.00  0.00     0.168 C 
BRANCH  15  16
HETATM   16  C   UNK N   1      24.138  11.834   3.482  0.00  0.00     0.135 C 
HETATM   17  N   UNK N   1      23.949  11.859   4.752  0.00  0.00    -0.365 N 
ATOM     18  HN  UNK N   1      24.230  12.697   5.262  1.00  0.00     0.161 HD
BRANCH  17  19
HETATM   19  C   UNK N   1      23.367  10.778   5.495  0.00  0.00     0.205 C 
BRANCH  19  20
HETATM   20  C   UNK N   1      22.801  11.207   6.841  0.00  0.00     0.129 C 
HETATM   21  N   UNK N   1      21.647  11.776   7.018  0.00  0.00    -0.373 N 
ATOM     22  HN  UNK N   1      21.382  11.997   7.978  1.00  0.00     0.161 HD
BRANCH  21  23
HETATM   23  C   UNK N   1      20.705  12.125   5.979  0.00  0.00     0.123 C 
BRANCH  23  24
HETATM   24  C   UNK N   1      20.800  13.605   5.653  0.00  0.00     0.039 C 
BRANCH  24  25
HETATM   25  C   UNK N   1      20.972  14.420   6.920  0.00  0.00     0.115 C 
BRANCH  25  26
HETATM   26  N   UNK N   1      20.132  15.604   6.859  0.00  0.00    -0.421 N 
HETATM   27  H   UNK N   1      19.241  15.689   6.366  0.00  0.00     0.153 HD
BRANCH  26  28
HETATM   28  C   UNK N   1      20.793  16.640   7.628  0.00  0.00     0.113 C 
BRANCH  28  29
HETATM   29  C   UNK N   1      19.758  17.540   8.271  0.00  0.00     0.021 C 
BRANCH  29  30
HETATM   30  C   UNK N   1      18.791  16.695   9.077  0.00  0.00     0.021 C 
BRANCH  30  31
HETATM   31  C   UNK N   1      17.364  17.143   8.824  0.00  0.00     0.111 C 
BRANCH  31  32
HETATM   32  N   UNK N   1      16.938  18.050   9.876  0.00  0.00    -0.430 N 
HETATM   33  H   UNK N   1      16.360  17.926  10.706  0.00  0.00     0.149 HD
HETATM   34  H   UNK N   1      17.286  19.002   9.760  0.00  0.00     0.149 HD
ENDBRANCH  31  32
ENDBRANCH  30  31
ENDBRANCH  29  30
ENDBRANCH  28  29
ENDBRANCH  26  28
ENDBRANCH  25  26
ENDBRANCH  24  25
ENDBRANCH  23  24
ENDBRANCH  21  23
BRANCH  20  35
HETATM   35  O   UNK N   1      23.567  10.980   7.923  0.00  0.00    -0.348 OA
HETATM   36  H   UNK N   1      23.685  10.108   8.244  0.00  0.00     0.219 HD
ENDBRANCH  20  35
ENDBRANCH  19  20
ENDBRANCH  17  19
BRANCH  16  37
HETATM   37  O   UNK N   1      23.773  10.761   2.757  0.00  0.00    -0.348 OA
HETATM   38  H   UNK N   1      23.845   9.892   3.102  0.00  0.00     0.219 HD
ENDBRANCH  16  37
ENDBRANCH  15  16
BRANCH  15  39
HETATM   39  N   UNK N   1      24.440  12.945   1.424  0.00  0.00    -0.362 N 
HETATM   40  C   UNK N   1      23.599  13.696   0.798  0.00  0.00     0.111 C 
ATOM     41  HN  UNK N   1      24.899  12.224   0.867  1.00  0.00     0.162 HD
BRANCH  40  42
HETATM   42  C   UNK N   1      22.866  14.813   1.473  0.00  0.00     0.086 C 
BRANCH  42  43
HETATM   43  C   UNK N   1      21.364  14.797   1.169  0.00  0.00     0.043 C 
BRANCH  43  44
HETATM   44  C   UNK N   1      20.535  15.846   1.913  0.00  0.00     0.173 C 
BRANCH  44  45
HETATM   45  C   UNK N   1      19.983  16.889   0.973  0.00  0.00     0.163 C 
HETATM   46  O   UNK N   1      20.298  16.882  -0.204  0.00  0.00    -0.648 OA
BRANCH  45  47
HETATM   47  O   UNK N   1      19.156  17.852   1.430  0.00  0.00    -0.775 OA
HETATM   48  H   UNK N   1      18.230  17.804   1.295  0.00  0.00     0.167 HD
ENDBRANCH  45  47
ENDBRANCH  44  45
BRANCH  44  49
HETATM   49  N   UNK N   1      19.441  15.160   2.579  0.00  0.00    -0.418 N 
HETATM   50  H   UNK N   1      18.993  14.284   2.307  0.00  0.00     0.150 HD
HETATM   51  H   UNK N   1      19.076  15.607   3.420  0.00  0.00     0.150 HD
ENDBRANCH  44  49
ENDBRANCH  43  44
ENDBRANCH  42  43
ENDBRANCH  40  42
BRANCH  40  52
HETATM   52  O   UNK N   1      23.339  13.436  -0.498  0.00  0.00    -0.350 OA
HETATM   53  H   UNK N   1      23.763  13.314  -1.325  0.00  0.00     0.219 HD
ENDBRANCH  40  52
ENDBRANCH  15  39
ENDBRANCH  14  15
ENDBRANCH  13  14
ENDBRANCH  12  13
ENDBRANCH  11  12
ENDBRANCH  10  11
BRANCH  10  54
HETATM   54  N   UNK N   1      25.813  17.469   4.782  0.00  0.00    -0.362 N 
HETATM   55  C   UNK N   1      24.862  18.354   4.806  0.00  0.00     0.111 C 
ATOM     56  HN  UNK N   1      25.541  16.489   4.865  1.00  0.00     0.162 HD
BRANCH  55  57
HETATM   57  C   UNK N   1      23.437  17.918   4.972  0.00  0.00     0.086 C 
BRANCH  57  58
HETATM   58  C   UNK N   1      22.569  18.198   3.741  0.00  0.00     0.043 C 
BRANCH  58  59
HETATM   59  C   UNK N   1      21.654  19.420   3.844  0.00  0.00     0.173 C 
BRANCH  59  60
HETATM   60  C   UNK N   1      21.838  20.359   2.686  0.00  0.00     0.163 C 
HETATM   61  O   UNK N   1      22.608  21.301   2.778  0.00  0.00    -0.648 OA
BRANCH  60  62
HETATM   62  O   UNK N   1      21.142  20.176   1.547  0.00  0.00    -0.775 OA
HETATM   63  H   UNK N   1      21.318  19.633   0.802  0.00  0.00     0.167 HD
ENDBRANCH  60  62
ENDBRANCH  59  60
BRANCH  59  64
HETATM   64  N   UNK N   1      20.275  18.963   3.868  0.00  0.00    -0.418 N 
HETATM   65  H   UNK N   1      19.664  18.592   4.594  0.00  0.00     0.150 HD
HETATM   66  H   UNK N   1      19.819  19.027   2.958  0.00  0.00     0.150 HD
ENDBRANCH  59  64
ENDBRANCH  58  59
ENDBRANCH  57  58
ENDBRANCH  55  57
BRANCH  55  67
HETATM   67  O   UNK N   1      25.125  19.674   4.714  0.00  0.00    -0.350 OA
HETATM   68  H   UNK N   1      25.592  20.130   5.387  0.00  0.00     0.219 HD
ENDBRANCH  55  67
ENDBRANCH  10  54
ENDBRANCH   8  10
BRANCH   8  69
HETATM   69  O   UNK N   1      28.819  17.002   6.413  0.00  0.00    -0.348 OA
HETATM   70  H   UNK N   1      29.238  16.288   6.852  0.00  0.00     0.219 HD
ENDBRANCH   8  69
ENDBRANCH   6   7
ENDBRANCH   1   6
BRANCH   2  71
HETATM   71  C   UNK N   1      30.845  18.392   9.045  0.00  0.00     0.123 C 
BRANCH  71  72
HETATM   72  C   UNK N   1      31.792  17.478   8.273  0.00  0.00     0.039 C 
BRANCH  72  73
HETATM   73  C   UNK N   1      33.234  17.984   8.291  0.00  0.00     0.115 C 
BRANCH  73  74
HETATM   74  N   UNK N   1      33.979  17.354   9.375  0.00  0.00    -0.421 N 
HETATM   75  H   UNK N   1      33.987  17.663  10.347  0.00  0.00     0.153 HD
BRANCH  74  76
HETATM   76  C   UNK N   1      34.710  16.212   8.846  0.00  0.00     0.113 C 
BRANCH  76  77
HETATM   77  C   UNK N   1      34.497  14.982   9.714  0.00  0.00     0.021 C 
BRANCH  77  78
HETATM   78  C   UNK N   1      35.829  14.520  10.279  0.00  0.00     0.021 C 
BRANCH  78  79
HETATM   79  C   UNK N   1      35.701  14.194  11.753  0.00  0.00     0.111 C 
BRANCH  79  80
HETATM   80  N   UNK N   1      36.317  15.245  12.545  0.00  0.00    -0.430 N 
HETATM   81  H   UNK N   1      36.761  15.050  13.442  0.00  0.00     0.149 HD
HETATM   82  H   UNK N   1      36.304  16.202  12.194  0.00  0.00     0.149 HD
ENDBRANCH  79  80
ENDBRANCH  78  79
ENDBRANCH  77  78
ENDBRANCH  76  77
ENDBRANCH  74  76
ENDBRANCH  73  74
ENDBRANCH  72  73
ENDBRANCH  71  72
ENDBRANCH   2  71
TORSDOF 48
ENDMDL
