MODEL 1
REMARK VINA RESULT:      -4.0      0.000      0.000
REMARK  5 active torsions:
REMARK  status: ('A' for Active; 'I' for Inactive)
REMARK    1  A    between atoms: C_2  and  C_3 
REMARK    2  A    between atoms: C_3  and  C_4 
REMARK    3  A    between atoms: C_4  and  C_5 
REMARK    4  A    between atoms: C_5  and  C_6 
REMARK    5  A    between atoms: C_6  and  C_7 
REMARK       I    between atoms: C_7  and  N_8 
ROOT
HETATM    1  C   UNK N   1      26.081  27.974  -5.273  0.00  0.00     0.102 C 
ENDROOT
BRANCH   1   2
HETATM    2  C   UNK N   1      24.976  27.015  -5.678  0.00  0.00     0.009 C 
BRANCH   2   3
HETATM    3  C   UNK N   1      25.522  25.745  -6.290  0.00  0.00     0.000 C 
BRANCH   3   4
HETATM    4  C   UNK N   1      25.483  24.687  -5.207  0.00  0.00    -0.000 C 
BRANCH   4   5
HETATM    5  C   UNK N   1      26.876  24.251  -4.818  0.00  0.00    -0.005 C 
HETATM    6  C   UNK N   1      27.080  24.550  -3.347  0.00  0.00     0.005 C 
ENDBRANCH   4   5
ENDBRANCH   3   4
ENDBRANCH   2   3
ENDBRANCH   1   2
BRANCH   1   7
HETATM    7  C   UNK N   1      25.860  28.505  -3.884  0.00  0.00     0.215 C 
HETATM    8  N   UNK N   1      26.092  29.805  -3.625  0.00  0.00    -0.370 N 
HETATM    9  H   UNK N   1      25.950  30.159  -2.718  0.00  0.00     0.159 HD
HETATM   10  H   UNK N   1      26.405  30.402  -4.343  0.00  0.00     0.159 HD
HETATM   11  O   UNK N   1      25.471  27.771  -2.985  0.00  0.00    -0.274 OA
ENDBRANCH   1   7
TORSDOF 5
ENDMDL
MODEL 2
REMARK VINA RESULT:      -4.0     26.236     27.279
REMARK  5 active torsions:
REMARK  status: ('A' for Active; 'I' for Inactive)
REMARK    1  A    between atoms: C_2  and  C_3 
REMARK    2  A    between atoms: C_3  and  C_4 
REMARK    3  A    between atoms: C_4  and  C_5 
REMARK    4  A    between atoms: C_5  and  C_6 
REMARK    5  A    between atoms: C_6  and  C_7 
REMARK       I    between atoms: C_7  and  N_8 
ROOT
HETATM    1  C   UNK N   1      35.172  12.334  17.650  0.00  0.00     0.102 C 
ENDROOT
BRANCH   1   2
HETATM    2  C   UNK N   1      34.637  13.044  16.419  0.00  0.00     0.009 C 
BRANCH   2   3
HETATM    3  C   UNK N   1      35.436  12.712  15.179  0.00  0.00     0.000 C 
BRANCH   3   4
HETATM    4  C   UNK N   1      36.813  13.310  15.375  0.00  0.00    -0.000 C 
BRANCH   4   5
HETATM    5  C   UNK N   1      36.851  14.754  14.930  0.00  0.00    -0.005 C 
HETATM    6  C   UNK N   1      37.420  15.589  16.058  0.00  0.00     0.005 C 
ENDBRANCH   4   5
ENDBRANCH   3   4
ENDBRANCH   2   3
ENDBRANCH   1   2
BRANCH   1   7
HETATM    7  C   UNK N   1      35.300  13.279  18.812  0.00  0.00     0.215 C 
HETATM    8  N   UNK N   1      35.431  12.787  20.057  0.00  0.00    -0.370 N 
HETATM    9  H   UNK N   1      35.515  13.400  20.822  0.00  0.00     0.159 HD
HETATM   10  H   UNK N   1      35.443  11.813  20.203  0.00  0.00     0.159 HD
HETATM   11  O   UNK N   1      35.287  14.491  18.641  0.00  0.00    -0.274 OA
ENDBRANCH   1   7
TORSDOF 5
ENDMDL
MODEL 3
REMARK VINA RESULT:      -3.9     15.147     16.417
REMARK  5 active torsions:
REMARK  status: ('A' for Active; 'I' for Inactive)
REMARK    1  A    between atoms: C_2  and  C_3 
REMARK    2  A    between atoms: C_3  and  C_4 
REMARK    3  A    between atoms: C_4  and  C_5 
REMARK    4  A    between atoms: C_5  and  C_6 
REMARK    5  A    between atoms: C_6  and  C_7 
REMARK       I    between atoms: C_7  and  N_8 
ROOT
HETATM    1  C   UNK N   1      33.318  17.916   7.721  0.00  0.00     0.102 C 
ENDROOT
BRANCH   1   2
HETATM    2  C   UNK N   1      33.699  17.544   6.299  0.00  0.00     0.009 C 
BRANCH   2   3
HETATM    3  C   UNK N   1      32.498  17.134   5.478  0.00  0.00     0.000 C 
BRANCH   3   4
HETATM    4  C   UNK N   1      32.674  17.752   4.107  0.00  0.00    -0.000 C 
BRANCH   4   5
HETATM    5  C   UNK N   1      32.335  16.767   3.014  0.00  0.00    -0.005 C 
HETATM    6  C   UNK N   1      33.429  15.722   2.952  0.00  0.00     0.005 C 
ENDBRANCH   4   5
ENDBRANCH   3   4
ENDBRANCH   2   3
ENDBRANCH   1   2
BRANCH   1   7
HETATM    7  C   UNK N   1      34.537  18.180   8.560  0.00  0.00     0.215 C 
HETATM    8  N   UNK N   1      34.864  17.324   9.546  0.00  0.00    -0.370 N 
HETATM    9  H   UNK N   1      35.660  17.492  10.099  0.00  0.00     0.159 HD
HETATM   10  H   UNK N   1      34.305  16.530   9.714  0.00  0.00     0.159 HD
HETATM   11  O   UNK N   1      35.237  19.164   8.360  0.00  0.00    -0.274 OA
ENDBRANCH   1   7
TORSDOF 5
ENDMDL
MODEL 4
REMARK VINA RESULT:      -3.9     16.388     17.139
REMARK  5 active torsions:
REMARK  status: ('A' for Active; 'I' for Inactive)
REMARK    1  A    between atoms: C_2  and  C_3 
REMARK    2  A    between atoms: C_3  and  C_4 
REMARK    3  A    between atoms: C_4  and  C_5 
REMARK    4  A    between atoms: C_5  and  C_6 
REMARK    5  A    between atoms: C_6  and  C_7 
REMARK       I    between atoms: C_7  and  N_8 
ROOT
HETATM    1  C   UNK N   1      33.899  17.735   7.160  0.00  0.00     0.102 C 
ENDROOT
BRANCH   1   2
HETATM    2  C   UNK N   1      32.685  16.870   7.450  0.00  0.00     0.009 C 
BRANCH   2   3
HETATM    3  C   UNK N   1      31.558  17.129   6.475  0.00  0.00     0.000 C 
BRANCH   3   4
HETATM    4  C   UNK N   1      30.302  17.313   7.300  0.00  0.00    -0.000 C 
BRANCH   4   5
HETATM    5  C   UNK N   1      30.624  17.424   8.772  0.00  0.00    -0.005 C 
HETATM    6  C   UNK N   1      29.954  18.669   9.317  0.00  0.00     0.005 C 
ENDBRANCH   4   5
ENDBRANCH   3   4
ENDBRANCH   2   3
ENDBRANCH   1   2
BRANCH   1   7
HETATM    7  C   UNK N   1      34.582  18.158   8.431  0.00  0.00     0.215 C 
HETATM    8  N   UNK N   1      34.442  17.412   9.541  0.00  0.00    -0.370 N 
HETATM    9  H   UNK N   1      34.886  17.684  10.377  0.00  0.00     0.159 HD
HETATM   10  H   UNK N   1      33.895  16.593   9.518  0.00  0.00     0.159 HD
HETATM   11  O   UNK N   1      35.264  19.174   8.470  0.00  0.00    -0.274 OA
ENDBRANCH   1   7
TORSDOF 5
ENDMDL
MODEL 5
REMARK VINA RESULT:      -3.8     20.081     21.344
REMARK  5 active torsions:
REMARK  status: ('A' for Active; 'I' for Inactive)
REMARK    1  A    between atoms: C_2  and  C_3 
REMARK    2  A    between atoms: C_3  and  C_4 
REMARK    3  A    between atoms: C_4  and  C_5 
REMARK    4  A    between atoms: C_5  and  C_6 
REMARK    5  A    between atoms: C_6  and  C_7 
REMARK       I    between atoms: C_7  and  N_8 
ROOT
HETATM    1  C   UNK N   1      24.057  11.945  11.244  0.00  0.00     0.102 C 
ENDROOT
BRANCH   1   2
HETATM    2  C   UNK N   1      23.415  12.870  10.223  0.00  0.00     0.009 C 
BRANCH   2   3
HETATM    3  C   UNK N   1      22.821  12.107   9.061  0.00  0.00     0.000 C 
BRANCH   3   4
HETATM    4  C   UNK N   1      21.493  12.760   8.744  0.00  0.00    -0.000 C 
BRANCH   4   5
HETATM    5  C   UNK N   1      21.132  13.799   9.779  0.00  0.00    -0.005 C 
HETATM    6  C   UNK N   1      20.380  14.921   9.093  0.00  0.00     0.005 C 
ENDBRANCH   4   5
ENDBRANCH   3   4
ENDBRANCH   2   3
ENDBRANCH   1   2
BRANCH   1   7
HETATM    7  C   UNK N   1      23.254  11.896  12.514  0.00  0.00     0.215 C 
HETATM    8  N   UNK N   1      21.944  11.594  12.462  0.00  0.00    -0.370 N 
HETATM    9  H   UNK N   1      21.413  11.560  13.290  0.00  0.00     0.159 HD
HETATM   10  H   UNK N   1      21.516  11.407  11.594  0.00  0.00     0.159 HD
HETATM   11  O   UNK N   1      23.777  12.127  13.597  0.00  0.00    -0.274 OA
ENDBRANCH   1   7
TORSDOF 5
ENDMDL
MODEL 6
REMARK VINA RESULT:      -3.8     19.372     20.904
REMARK  5 active torsions:
REMARK  status: ('A' for Active; 'I' for Inactive)
REMARK    1  A    between atoms: C_2  and  C_3 
REMARK    2  A    between atoms: C_3  and  C_4 
REMARK    3  A    between atoms: C_4  and  C_5 
REMARK    4  A    between atoms: C_5  and  C_6 
REMARK    5  A    between atoms: C_6  and  C_7 
REMARK       I    between atoms: C_7  and  N_8 
ROOT
HETATM    1  C   UNK N   1      22.289  11.927  11.634  0.00  0.00     0.102 C 
ENDROOT
BRANCH   1   2
HETATM    2  C   UNK N   1      22.150  12.816  10.410  0.00  0.00     0.009 C 
BRANCH   2   3
HETATM    3  C   UNK N   1      20.719  13.247  10.182  0.00  0.00     0.000 C 
BRANCH   3   4
HETATM    4  C   UNK N   1      20.774  14.570   9.447  0.00  0.00    -0.000 C 
BRANCH   4   5
HETATM    5  C   UNK N   1      20.959  14.363   7.962  0.00  0.00    -0.005 C 
HETATM    6  C   UNK N   1      21.599  15.606   7.380  0.00  0.00     0.005 C 
ENDBRANCH   4   5
ENDBRANCH   3   4
ENDBRANCH   2   3
ENDBRANCH   1   2
BRANCH   1   7
HETATM    7  C   UNK N   1      23.646  12.072  12.262  0.00  0.00     0.215 C 
HETATM    8  N   UNK N   1      24.728  12.230  11.478  0.00  0.00    -0.370 N 
HETATM    9  H   UNK N   1      25.620  12.326  11.883  0.00  0.00     0.159 HD
HETATM   10  H   UNK N   1      24.628  12.249  10.498  0.00  0.00     0.159 HD
HETATM   11  O   UNK N   1      23.782  12.050  13.478  0.00  0.00    -0.274 OA
ENDBRANCH   1   7
TORSDOF 5
ENDMDL
MODEL 7
REMARK VINA RESULT:      -3.8     16.220     16.614
REMARK  5 active torsions:
REMARK  status: ('A' for Active; 'I' for Inactive)
REMARK    1  A    between atoms: C_2  and  C_3 
REMARK    2  A    between atoms: C_3  and  C_4 
REMARK    3  A    between atoms: C_4  and  C_5 
REMARK    4  A    between atoms: C_5  and  C_6 
REMARK    5  A    between atoms: C_6  and  C_7 
REMARK       I    between atoms: C_7  and  N_8 
ROOT
HETATM    1  C   UNK N   1      29.786  18.081   9.051  0.00  0.00     0.102 C 
ENDROOT
BRANCH   1   2
HETATM    2  C   UNK N   1      30.288  17.350   7.818  0.00  0.00     0.009 C 
BRANCH   2   3
HETATM    3  C   UNK N   1      31.699  16.838   7.998  0.00  0.00     0.000 C 
BRANCH   3   4
HETATM    4  C   UNK N   1      32.566  18.044   8.291  0.00  0.00    -0.000 C 
BRANCH   4   5
HETATM    5  C   UNK N   1      33.901  17.943   7.590  0.00  0.00    -0.005 C 
HETATM    6  C   UNK N   1      33.662  17.483   6.166  0.00  0.00     0.005 C 
ENDBRANCH   4   5
ENDBRANCH   3   4
ENDBRANCH   2   3
ENDBRANCH   1   2
BRANCH   1   7
HETATM    7  C   UNK N   1      28.290  17.991   9.166  0.00  0.00     0.215 C 
HETATM    8  N   UNK N   1      27.524  18.982   8.675  0.00  0.00    -0.370 N 
HETATM    9  H   UNK N   1      26.544  18.929   8.747  0.00  0.00     0.159 HD
HETATM   10  H   UNK N   1      27.945  19.760   8.242  0.00  0.00     0.159 HD
HETATM   11  O   UNK N   1      27.758  17.028   9.702  0.00  0.00    -0.274 OA
ENDBRANCH   1   7
TORSDOF 5
ENDMDL
MODEL 8
REMARK VINA RESULT:      -3.8     24.905     26.831
REMARK  5 active torsions:
REMARK  status: ('A' for Active; 'I' for Inactive)
REMARK    1  A    between atoms: C_2  and  C_3 
REMARK    2  A    between atoms: C_3  and  C_4 
REMARK    3  A    between atoms: C_4  and  C_5 
REMARK    4  A    between atoms: C_5  and  C_6 
REMARK    5  A    between atoms: C_6  and  C_7 
REMARK       I    between atoms: C_7  and  N_8 
ROOT
HETATM    1  C   UNK N   1      36.160  12.708  14.932  0.00  0.00     0.102 C 
ENDROOT
BRANCH   1   2
HETATM    2  C   UNK N   1      35.931  13.546  16.178  0.00  0.00     0.009 C 
BRANCH   2   3
HETATM    3  C   UNK N   1      34.981  12.877  17.145  0.00  0.00     0.000 C 
BRANCH   3   4
HETATM    4  C   UNK N   1      35.181  13.547  18.488  0.00  0.00    -0.000 C 
BRANCH   4   5
HETATM    5  C   UNK N   1      35.323  12.528  19.594  0.00  0.00    -0.005 C 
HETATM    6  C   UNK N   1      35.349  11.146  18.973  0.00  0.00     0.005 C 
ENDBRANCH   4   5
ENDBRANCH   3   4
ENDBRANCH   2   3
ENDBRANCH   1   2
BRANCH   1   7
HETATM    7  C   UNK N   1      35.818  13.478  13.688  0.00  0.00     0.215 C 
HETATM    8  N   UNK N   1      36.770  14.203  13.072  0.00  0.00    -0.370 N 
HETATM    9  H   UNK N   1      36.553  14.710  12.256  0.00  0.00     0.159 HD
HETATM   10  H   UNK N   1      37.684  14.228  13.438  0.00  0.00     0.159 HD
HETATM   11  O   UNK N   1      34.685  13.455  13.225  0.00  0.00    -0.274 OA
ENDBRANCH   1   7
TORSDOF 5
ENDMDL
MODEL 9
REMARK VINA RESULT:      -3.7     17.783     19.109
REMARK  5 active torsions:
REMARK  status: ('A' for Active; 'I' for Inactive)
REMARK    1  A    between atoms: C_2  and  C_3 
REMARK    2  A    between atoms: C_3  and  C_4 
REMARK    3  A    between atoms: C_4  and  C_5 
REMARK    4  A    between atoms: C_5  and  C_6 
REMARK    5  A    between atoms: C_6  and  C_7 
REMARK       I    between atoms: C_7  and  N_8 
ROOT
HETATM    1  C   UNK N   1      19.413  15.895   8.873  0.00  0.00     0.102 C 
ENDROOT
BRANCH   1   2
HETATM    2  C   UNK N   1      20.783  15.254   9.004  0.00  0.00     0.009 C 
BRANCH   2   3
HETATM    3  C   UNK N   1      20.723  13.930   9.732  0.00  0.00     0.000 C 
BRANCH   3   4
HETATM    4  C   UNK N   1      22.153  13.478   9.935  0.00  0.00    -0.000 C 
BRANCH   4   5
HETATM    5  C   UNK N   1      22.214  12.037  10.383  0.00  0.00    -0.005 C 
HETATM    6  C   UNK N   1      22.971  11.973  11.693  0.00  0.00     0.005 C 
ENDBRANCH   4   5
ENDBRANCH   3   4
ENDBRANCH   2   3
ENDBRANCH   1   2
BRANCH   1   7
HETATM    7  C   UNK N   1      19.515  17.394   8.824  0.00  0.00     0.215 C 
HETATM    8  N   UNK N   1      18.522  18.145   9.336  0.00  0.00    -0.370 N 
HETATM    9  H   UNK N   1      18.583  19.127   9.307  0.00  0.00     0.159 HD
HETATM   10  H   UNK N   1      17.735  17.712   9.739  0.00  0.00     0.159 HD
HETATM   11  O   UNK N   1      20.489  17.942   8.325  0.00  0.00    -0.274 OA
ENDBRANCH   1   7
TORSDOF 5
ENDMDL
