REMARK  12 active torsions:
REMARK  status: ('A' for Active; 'I' for Inactive)
REMARK    1  A    between atoms: C_9  and  C_5 
REMARK    2  A    between atoms: O_24  and  C_5 
REMARK    3  A    between atoms: O_25  and  C_7 
REMARK    4  A    between atoms: C_8  and  O_25 
REMARK    5  A    between atoms: C_10  and  N_15 
REMARK    6  A    between atoms: O_17  and  C_11 
REMARK    7  A    between atoms: P_28  and  O_19 
REMARK    8  A    between atoms: P_28  and  O_20 
REMARK    9  A    between atoms: P_29  and  O_22 
REMARK   10  A    between atoms: P_29  and  O_24 
REMARK   11  A    between atoms: P_28  and  O_27 
REMARK   12  A    between atoms: P_29  and  O_27 
ROOT
HETATM    1  C   UNK N   1      -0.049   2.391  -1.021  0.00  0.00     0.089 C 
HETATM    2  C   UNK N   1      -0.626   3.150   0.128  0.00  0.00     0.167 C 
HETATM    3  C   UNK N   1      -2.028   2.545   0.192  0.00  0.00     0.178 C 
HETATM    4  C   UNK N   1      -0.747   1.033  -0.902  0.00  0.00     0.235 C 
HETATM    5  O   UNK N   1      -1.843   1.167  -0.013  0.00  0.00    -0.356 OA
ENDROOT
BRANCH   3   6
HETATM    6  C   UNK N   1      -3.034   3.071  -0.862  0.00  0.00     0.215 C 
BRANCH   6   7
HETATM    7  O   UNK N   1      -4.116   2.192  -1.088  0.00  0.00    -0.294 OA
BRANCH   7   8
HETATM    8  P   UNK N   1      -5.176   2.193   0.310  0.00  0.00     0.401 P 
HETATM    9  O   UNK N   1      -4.995   0.818   1.013  0.00  0.00    -0.631 OA
BRANCH   8  10
HETATM   10  O   UNK N   1      -4.721   3.376   1.496  0.00  0.00    -0.307 OA
HETATM   11  H   UNK N   1      -4.022   3.487   2.159  0.00  0.00     0.222 HD
ENDBRANCH   8  10
BRANCH   8  12
HETATM   12  O   UNK N   1      -6.874   2.433  -0.062  0.00  0.00    -0.195 OA
BRANCH  12  13
HETATM   13  P   UNK N   1      -7.594   0.891  -0.453  0.00  0.00     0.399 P 
HETATM   14  O   UNK N   1      -7.743   0.793   1.091  0.00  0.00    -0.631 OA
BRANCH  13  15
HETATM   15  O   UNK N   1      -9.293   0.551  -0.336  0.00  0.00    -0.307 OA
HETATM   16  H   UNK N   1      -9.932   1.278  -0.271  0.00  0.00     0.222 HD
ENDBRANCH  13  15
BRANCH  13  17
HETATM   17  O   UNK N   1      -8.596   2.233  -0.913  0.00  0.00    -0.307 OA
HETATM   18  H   UNK N   1      -8.227   3.092  -1.170  0.00  0.00     0.222 HD
ENDBRANCH  13  17
ENDBRANCH  12  13
ENDBRANCH   8  12
ENDBRANCH   7   8
ENDBRANCH   6   7
ENDBRANCH   3   6
BRANCH   2  19
HETATM   19  O   UNK N   1      -0.468   4.522  -0.052  0.00  0.00    -0.314 OA
BRANCH  19  20
HETATM   20  C   UNK N   1      -1.365   5.532   0.111  0.00  0.00     0.255 C 
HETATM   21  C   UNK N   1      -0.976   6.914  -0.288  0.00  0.00     0.126 C 
HETATM   22  O   UNK N   1      -2.457   5.344   0.622  0.00  0.00    -0.266 OA
ENDBRANCH  19  20
ENDBRANCH   2  19
BRANCH   4  23
HETATM   23  N   UNK N   1       0.090  -0.109  -0.467  0.00  0.00    -0.282 N 
HETATM   24  C   UNK N   1      -0.530  -1.324  -0.456  0.00  0.00     0.109 A 
HETATM   25  C   UNK N   1       0.146  -2.479  -0.083  0.00  0.00     0.005 A 
HETATM   26  C   UNK N   1      -0.568  -3.787  -0.090  0.00  0.00     0.054 C 
HETATM   27  C   UNK N   1       1.485  -2.383   0.286  0.00  0.00     0.151 A 
HETATM   28  N   UNK N   1       2.098  -1.174   0.279  0.00  0.00    -0.288 N 
HETATM   29  C   UNK N   1       1.428  -0.035  -0.091  0.00  0.00     0.330 A 
ATOM     30  HN  UNK N   1       3.078  -1.110   0.554  1.00  0.00     0.172 HD
HETATM   31  O   UNK N   1       2.023   1.026  -0.079  0.00  0.00    -0.246 OA
BRANCH  27  32
HETATM   32  O   UNK N   1       2.174  -3.480   0.648  0.00  0.00    -0.346 OA
HETATM   33  H   UNK N   1       1.752  -4.278   0.901  0.00  0.00     0.219 HD
ENDBRANCH  27  32
ENDBRANCH   4  23
TORSDOF 12
