REMARK  5 active torsions:
REMARK  status: ('A' for Active; 'I' for Inactive)
REMARK    1  A    between atoms: C_6  and  C_7 
REMARK    2  A    between atoms: C_7  and  C_8 
REMARK    3  A    between atoms: C_8  and  N_9 
REMARK    4  A    between atoms: C_8  and  C_10 
REMARK    5  A    between atoms: C_10  and  O_11 
ROOT
HETATM    1  C   UNK N   1       0.786   2.494  -0.049  0.00  0.00     0.074 C 
ENDROOT
BRANCH   1   2
HETATM    2  C   UNK N   1       0.855   0.991  -0.061  0.00  0.00    -0.055 A 
HETATM    3  C   UNK N   1      -0.289   0.183  -0.164  0.00  0.00     0.007 A 
HETATM    4  C   UNK N   1      -0.173  -1.210  -0.129  0.00  0.00     0.001 A 
HETATM    5  C   UNK N   1       1.085  -1.804   0.006  0.00  0.00     0.007 A 
HETATM    6  C   UNK N   1       2.227  -1.004   0.101  0.00  0.00    -0.061 A 
HETATM    7  C   UNK N   1       3.566  -1.633   0.240  0.00  0.00     0.048 C 
HETATM    8  C   UNK N   1       2.110   0.388   0.071  0.00  0.00     0.013 A 
ENDBRANCH   1   2
BRANCH   1   9
HETATM    9  C   UNK N   1      -0.597   3.141  -0.223  0.00  0.00     0.177 C 
BRANCH   9  10
HETATM   10  N   UNK N   1      -1.530   2.636   0.772  0.00  0.00    -0.417 N 
HETATM   11  H   UNK N   1      -2.164   3.025   1.469  0.00  0.00     0.150 HD
HETATM   12  H   UNK N   1      -1.558   1.616   0.772  0.00  0.00     0.150 HD
ENDBRANCH   9  10
BRANCH   9  13
HETATM   13  C   UNK N   1      -0.518   4.640  -0.086  0.00  0.00     0.163 C 
HETATM   14  O   UNK N   1       0.538   5.192   0.187  0.00  0.00    -0.648 OA
BRANCH  13  15
HETATM   15  O   UNK N   1      -1.630   5.381  -0.245  0.00  0.00    -0.775 OA
HETATM   16  H   UNK N   1      -1.570   6.310  -0.356  0.00  0.00     0.167 HD
ENDBRANCH  13  15
ENDBRANCH   9  13
ENDBRANCH   1   9
TORSDOF 5
