MODEL 1
REMARK VINA RESULT:      -6.0      0.000      0.000
REMARK  9 active torsions:
REMARK  status: ('A' for Active; 'I' for Inactive)
REMARK    1  A    between atoms: C_4  and  C_3 
REMARK    2  A    between atoms: O_13  and  C_3 
REMARK    3  A    between atoms: O_14  and  C_5 
REMARK    4  A    between atoms: C_6  and  O_15 
REMARK    5  A    between atoms: C_7  and  O_21 
REMARK    6  A    between atoms: C_8  and  N_12 
REMARK    7  A    between atoms: P_22  and  O_17 
REMARK    8  A    between atoms: P_22  and  O_18 
REMARK    9  A    between atoms: P_22  and  O_21 
ROOT
HETATM    1  C   UNK N   1      31.937  15.763   6.830  0.00  0.00     0.180 C 
HETATM    2  C   UNK N   1      31.385  17.541   8.160  0.00  0.00     0.199 C 
HETATM    3  C   UNK N   1      32.239  16.292   8.236  0.00  0.00     0.197 C 
HETATM    4  C   UNK N   1      30.130  16.946   7.516  0.00  0.00     0.264 C 
HETATM    5  O   UNK N   1      30.594  16.071   6.506  0.00  0.00    -0.353 OA
ENDROOT
BRANCH   4   6
HETATM    6  N   UNK N   1      29.127  17.892   6.963  0.00  0.00    -0.280 N 
HETATM    7  C   UNK N   1      29.097  17.992   5.600  0.00  0.00     0.103 A 
HETATM    8  C   UNK N   1      28.201  18.837   4.954  0.00  0.00     0.073 A 
HETATM    9  C   UNK N   1      27.316  19.582   5.716  0.00  0.00     0.144 A 
HETATM   10  N   UNK N   1      27.337  19.479   7.066  0.00  0.00    -0.289 N 
HETATM   11  C   UNK N   1      28.223  18.651   7.704  0.00  0.00     0.330 A 
ATOM     12  HN  UNK N   1      26.679  20.029   7.620  1.00  0.00     0.172 HD
HETATM   13  O   UNK N   1      28.187  18.588   8.919  0.00  0.00    -0.246 OA
BRANCH   9  14
HETATM   14  O   UNK N   1      26.436  20.401   5.118  0.00  0.00    -0.346 OA
HETATM   15  H   UNK N   1      26.020  20.144   4.318  0.00  0.00     0.219 HD
ENDBRANCH   9  14
ENDBRANCH   4   6
BRANCH   2  16
HETATM   16  O   UNK N   1      31.110  18.092   9.414  0.00  0.00    -0.388 OA
HETATM   17  H   UNK N   1      30.535  17.998  10.190  0.00  0.00     0.210 HD
ENDBRANCH   2  16
BRANCH   3  18
HETATM   18  O   UNK N   1      33.647  16.420   8.376  0.00  0.00    -0.286 OA
BRANCH  18  19
HETATM   19  P   UNK N   1      34.281  15.835   9.904  0.00  0.00     0.391 P 
HETATM   20  O   UNK N   1      35.351  14.751   9.608  0.00  0.00    -0.632 OA
BRANCH  19  21
HETATM   21  O   UNK N   1      35.003  17.068  10.889  0.00  0.00    -0.307 OA
HETATM   22  H   UNK N   1      35.251  17.743  11.540  0.00  0.00     0.222 HD
ENDBRANCH  19  21
BRANCH  19  23
HETATM   23  O   UNK N   1      33.026  15.022  10.786  0.00  0.00    -0.307 OA
HETATM   24  H   UNK N   1      32.134  15.374  10.938  0.00  0.00     0.222 HD
ENDBRANCH  19  23
ENDBRANCH  18  19
ENDBRANCH   3  18
BRANCH   1  25
HETATM   25  C   UNK N   1      32.205  14.268   6.690  0.00  0.00     0.198 C 
BRANCH  25  26
HETATM   26  O   UNK N   1      32.291  13.663   7.946  0.00  0.00    -0.398 OA
HETATM   27  H   UNK N   1      32.121  13.598   8.899  0.00  0.00     0.209 HD
ENDBRANCH  25  26
ENDBRANCH   1  25
TORSDOF 9
ENDMDL
MODEL 2
REMARK VINA RESULT:      -5.8      3.848      5.681
REMARK  9 active torsions:
REMARK  status: ('A' for Active; 'I' for Inactive)
REMARK    1  A    between atoms: C_4  and  C_3 
REMARK    2  A    between atoms: O_13  and  C_3 
REMARK    3  A    between atoms: O_14  and  C_5 
REMARK    4  A    between atoms: C_6  and  O_15 
REMARK    5  A    between atoms: C_7  and  O_21 
REMARK    6  A    between atoms: C_8  and  N_12 
REMARK    7  A    between atoms: P_22  and  O_17 
REMARK    8  A    between atoms: P_22  and  O_18 
REMARK    9  A    between atoms: P_22  and  O_21 
ROOT
HETATM    1  C   UNK N   1      36.634  14.385   9.973  0.00  0.00     0.180 C 
HETATM    2  C   UNK N   1      34.559  15.187  10.507  0.00  0.00     0.199 C 
HETATM    3  C   UNK N   1      35.642  14.340  11.141  0.00  0.00     0.197 C 
HETATM    4  C   UNK N   1      34.549  14.571   9.106  0.00  0.00     0.264 C 
HETATM    5  O   UNK N   1      35.907  14.383   8.758  0.00  0.00    -0.353 OA
ENDROOT
BRANCH   4   6
HETATM    6  N   UNK N   1      33.837  15.313   8.034  0.00  0.00    -0.280 N 
HETATM    7  C   UNK N   1      34.394  16.508   7.671  0.00  0.00     0.103 A 
HETATM    8  C   UNK N   1      33.831  17.299   6.676  0.00  0.00     0.073 A 
HETATM    9  C   UNK N   1      32.685  16.854   6.037  0.00  0.00     0.144 A 
HETATM   10  N   UNK N   1      32.134  15.669   6.387  0.00  0.00    -0.289 N 
HETATM   11  C   UNK N   1      32.686  14.890   7.371  0.00  0.00     0.330 A 
ATOM     12  HN  UNK N   1      31.292  15.347   5.909  1.00  0.00     0.172 HD
HETATM   13  O   UNK N   1      32.156  13.826   7.635  0.00  0.00    -0.246 OA
BRANCH   9  14
HETATM   14  O   UNK N   1      32.124  17.596   5.068  0.00  0.00    -0.346 OA
HETATM   15  H   UNK N   1      31.313  17.331   4.680  0.00  0.00     0.219 HD
ENDBRANCH   9  14
ENDBRANCH   4   6
BRANCH   2  16
HETATM   16  O   UNK N   1      33.320  15.052  11.139  0.00  0.00    -0.388 OA
HETATM   17  H   UNK N   1      32.606  14.418  11.313  0.00  0.00     0.210 HD
ENDBRANCH   2  16
BRANCH   3  18
HETATM   18  O   UNK N   1      36.301  14.813  12.308  0.00  0.00    -0.286 OA
BRANCH  18  19
HETATM   19  P   UNK N   1      36.224  13.720  13.678  0.00  0.00     0.391 P 
HETATM   20  O   UNK N   1      36.674  14.491  14.948  0.00  0.00    -0.632 OA
BRANCH  19  21
HETATM   21  O   UNK N   1      34.647  13.056  13.966  0.00  0.00    -0.307 OA
HETATM   22  H   UNK N   1      33.855  12.522  14.137  0.00  0.00     0.222 HD
ENDBRANCH  19  21
BRANCH  19  23
HETATM   23  O   UNK N   1      37.382  12.442  13.474  0.00  0.00    -0.307 OA
HETATM   24  H   UNK N   1      37.238  11.515  13.721  0.00  0.00     0.222 HD
ENDBRANCH  19  23
ENDBRANCH  18  19
ENDBRANCH   3  18
BRANCH   1  25
HETATM   25  C   UNK N   1      37.643  13.242  10.009  0.00  0.00     0.198 C 
BRANCH  25  26
HETATM   26  O   UNK N   1      38.638  13.492  10.957  0.00  0.00    -0.398 OA
HETATM   27  H   UNK N   1      38.967  13.724  11.840  0.00  0.00     0.209 HD
ENDBRANCH  25  26
ENDBRANCH   1  25
TORSDOF 9
ENDMDL
MODEL 3
REMARK VINA RESULT:      -5.7      1.733      2.309
REMARK  9 active torsions:
REMARK  status: ('A' for Active; 'I' for Inactive)
REMARK    1  A    between atoms: C_4  and  C_3 
REMARK    2  A    between atoms: O_13  and  C_3 
REMARK    3  A    between atoms: O_14  and  C_5 
REMARK    4  A    between atoms: C_6  and  O_15 
REMARK    5  A    between atoms: C_7  and  O_21 
REMARK    6  A    between atoms: C_8  and  N_12 
REMARK    7  A    between atoms: P_22  and  O_17 
REMARK    8  A    between atoms: P_22  and  O_18 
REMARK    9  A    between atoms: P_22  and  O_21 
ROOT
HETATM    1  C   UNK N   1      33.216  14.206   7.737  0.00  0.00     0.180 C 
HETATM    2  C   UNK N   1      32.914  16.448   8.073  0.00  0.00     0.199 C 
HETATM    3  C   UNK N   1      33.591  15.282   8.761  0.00  0.00     0.197 C 
HETATM    4  C   UNK N   1      31.588  15.782   7.699  0.00  0.00     0.264 C 
HETATM    5  O   UNK N   1      31.925  14.491   7.228  0.00  0.00    -0.353 OA
ENDROOT
BRANCH   4   6
HETATM    6  N   UNK N   1      30.720  16.482   6.717  0.00  0.00    -0.280 N 
HETATM    7  C   UNK N   1      30.884  16.109   5.412  0.00  0.00     0.103 A 
HETATM    8  C   UNK N   1      30.129  16.681   4.393  0.00  0.00     0.073 A 
HETATM    9  C   UNK N   1      29.186  17.643   4.720  0.00  0.00     0.144 A 
HETATM   10  N   UNK N   1      29.015  18.009   6.012  0.00  0.00    -0.289 N 
HETATM   11  C   UNK N   1      29.761  17.449   7.016  0.00  0.00     0.330 A 
ATOM     12  HN  UNK N   1      28.316  18.715   6.243  1.00  0.00     0.172 HD
HETATM   13  O   UNK N   1      29.555  17.806   8.161  0.00  0.00    -0.246 OA
BRANCH   9  14
HETATM   14  O   UNK N   1      28.440  18.208   3.756  0.00  0.00    -0.346 OA
HETATM   15  H   UNK N   1      28.815  18.395   2.918  0.00  0.00     0.219 HD
ENDBRANCH   9  14
ENDBRANCH   4   6
BRANCH   2  16
HETATM   16  O   UNK N   1      32.720  17.544   8.919  0.00  0.00    -0.388 OA
HETATM   17  H   UNK N   1      32.423  17.790   9.810  0.00  0.00     0.210 HD
ENDBRANCH   2  16
BRANCH   3  18
HETATM   18  O   UNK N   1      35.004  15.287   8.910  0.00  0.00    -0.286 OA
BRANCH  18  19
HETATM   19  P   UNK N   1      35.564  15.740  10.510  0.00  0.00     0.391 P 
HETATM   20  O   UNK N   1      34.929  14.771  11.544  0.00  0.00    -0.632 OA
BRANCH  19  21
HETATM   21  O   UNK N   1      37.288  15.691  10.696  0.00  0.00    -0.307 OA
HETATM   22  H   UNK N   1      38.218  15.736  10.969  0.00  0.00     0.222 HD
ENDBRANCH  19  21
BRANCH  19  23
HETATM   23  O   UNK N   1      34.962  17.316  10.918  0.00  0.00    -0.307 OA
HETATM   24  H   UNK N   1      35.512  18.100  11.071  0.00  0.00     0.222 HD
ENDBRANCH  19  23
ENDBRANCH  18  19
ENDBRANCH   3  18
BRANCH   1  25
HETATM   25  C   UNK N   1      33.278  12.794   8.311  0.00  0.00     0.198 C 
BRANCH  25  26
HETATM   26  O   UNK N   1      33.426  12.833   9.699  0.00  0.00    -0.398 OA
HETATM   27  H   UNK N   1      33.681  13.242  10.540  0.00  0.00     0.209 HD
ENDBRANCH  25  26
ENDBRANCH   1  25
TORSDOF 9
ENDMDL
MODEL 4
REMARK VINA RESULT:      -5.7      3.277      6.758
REMARK  9 active torsions:
REMARK  status: ('A' for Active; 'I' for Inactive)
REMARK    1  A    between atoms: C_4  and  C_3 
REMARK    2  A    between atoms: O_13  and  C_3 
REMARK    3  A    between atoms: O_14  and  C_5 
REMARK    4  A    between atoms: C_6  and  O_15 
REMARK    5  A    between atoms: C_7  and  O_21 
REMARK    6  A    between atoms: C_8  and  N_12 
REMARK    7  A    between atoms: P_22  and  O_17 
REMARK    8  A    between atoms: P_22  and  O_18 
REMARK    9  A    between atoms: P_22  and  O_21 
ROOT
HETATM    1  C   UNK N   1      31.533  16.337   6.158  0.00  0.00     0.180 C 
HETATM    2  C   UNK N   1      31.099  16.988   8.308  0.00  0.00     0.199 C 
HETATM    3  C   UNK N   1      30.500  17.167   6.929  0.00  0.00     0.197 C 
HETATM    4  C   UNK N   1      32.575  17.212   7.970  0.00  0.00     0.264 C 
HETATM    5  O   UNK N   1      32.803  16.519   6.758  0.00  0.00    -0.353 OA
ENDROOT
BRANCH   4   6
HETATM    6  N   UNK N   1      33.582  16.820   8.989  0.00  0.00    -0.280 N 
HETATM    7  C   UNK N   1      33.337  15.642   9.638  0.00  0.00     0.103 A 
HETATM    8  C   UNK N   1      34.203  15.155  10.611  0.00  0.00     0.073 A 
HETATM    9  C   UNK N   1      35.342  15.883  10.917  0.00  0.00     0.144 A 
HETATM   10  N   UNK N   1      35.592  17.047  10.271  0.00  0.00    -0.289 N 
HETATM   11  C   UNK N   1      34.736  17.529   9.315  0.00  0.00     0.330 A 
ATOM     12  HN  UNK N   1      36.434  17.575  10.500  1.00  0.00     0.172 HD
HETATM   13  O   UNK N   1      35.019  18.574   8.758  0.00  0.00    -0.246 OA
BRANCH   9  14
HETATM   14  O   UNK N   1      36.199  15.434  11.849  0.00  0.00    -0.346 OA
HETATM   15  H   UNK N   1      37.104  15.676  11.814  0.00  0.00     0.219 HD
ENDBRANCH   9  14
ENDBRANCH   4   6
BRANCH   2  16
HETATM   16  O   UNK N   1      30.633  17.927   9.232  0.00  0.00    -0.388 OA
HETATM   17  H   UNK N   1      29.901  18.116   9.840  0.00  0.00     0.210 HD
ENDBRANCH   2  16
BRANCH   3  18
HETATM   18  O   UNK N   1      29.209  16.640   6.658  0.00  0.00    -0.286 OA
BRANCH  18  19
HETATM   19  P   UNK N   1      27.926  17.837   6.644  0.00  0.00     0.391 P 
HETATM   20  O   UNK N   1      28.309  18.955   5.637  0.00  0.00    -0.632 OA
BRANCH  19  21
HETATM   21  O   UNK N   1      26.373  17.203   6.198  0.00  0.00    -0.307 OA
HETATM   22  H   UNK N   1      25.603  16.710   5.873  0.00  0.00     0.222 HD
ENDBRANCH  19  21
BRANCH  19  23
HETATM   23  O   UNK N   1      27.832  18.616   8.192  0.00  0.00    -0.307 OA
HETATM   24  H   UNK N   1      28.537  18.615   8.859  0.00  0.00     0.222 HD
ENDBRANCH  19  23
ENDBRANCH  18  19
ENDBRANCH   3  18
BRANCH   1  25
HETATM   25  C   UNK N   1      31.577  16.679   4.672  0.00  0.00     0.198 C 
BRANCH  25  26
HETATM   26  O   UNK N   1      30.860  17.849   4.414  0.00  0.00    -0.398 OA
HETATM   27  H   UNK N   1      30.488  18.540   3.843  0.00  0.00     0.209 HD
ENDBRANCH  25  26
ENDBRANCH   1  25
TORSDOF 9
ENDMDL
MODEL 5
REMARK VINA RESULT:      -5.6      9.821     11.978
REMARK  9 active torsions:
REMARK  status: ('A' for Active; 'I' for Inactive)
REMARK    1  A    between atoms: C_4  and  C_3 
REMARK    2  A    between atoms: O_13  and  C_3 
REMARK    3  A    between atoms: O_14  and  C_5 
REMARK    4  A    between atoms: C_6  and  O_15 
REMARK    5  A    between atoms: C_7  and  O_21 
REMARK    6  A    between atoms: C_8  and  N_12 
REMARK    7  A    between atoms: P_22  and  O_17 
REMARK    8  A    between atoms: P_22  and  O_18 
REMARK    9  A    between atoms: P_22  and  O_21 
ROOT
HETATM    1  C   UNK N   1      22.068  16.439   6.092  0.00  0.00     0.180 C 
HETATM    2  C   UNK N   1      20.919  14.462   6.049  0.00  0.00     0.199 C 
HETATM    3  C   UNK N   1      20.979  15.752   5.260  0.00  0.00     0.197 C 
HETATM    4  C   UNK N   1      20.940  15.035   7.468  0.00  0.00     0.264 C 
HETATM    5  O   UNK N   1      21.903  16.071   7.450  0.00  0.00    -0.353 OA
ENDROOT
BRANCH   4   6
HETATM    6  N   UNK N   1      21.210  14.095   8.585  0.00  0.00    -0.280 N 
HETATM    7  C   UNK N   1      22.425  13.468   8.550  0.00  0.00     0.103 A 
HETATM    8  C   UNK N   1      22.807  12.568   9.539  0.00  0.00     0.073 A 
HETATM    9  C   UNK N   1      21.933  12.315  10.585  0.00  0.00     0.144 A 
HETATM   10  N   UNK N   1      20.733  12.939  10.628  0.00  0.00    -0.289 N 
HETATM   11  C   UNK N   1      20.354  13.823   9.651  0.00  0.00     0.330 A 
ATOM     12  HN  UNK N   1      20.097  12.748  11.403  1.00  0.00     0.172 HD
HETATM   13  O   UNK N   1      19.269  14.365   9.749  0.00  0.00    -0.246 OA
BRANCH   9  14
HETATM   14  O   UNK N   1      22.279  11.454  11.557  0.00  0.00    -0.346 OA
HETATM   15  H   UNK N   1      21.643  11.173  12.186  0.00  0.00     0.219 HD
ENDBRANCH   9  14
ENDBRANCH   4   6
BRANCH   2  16
HETATM   16  O   UNK N   1      19.754  13.727   5.806  0.00  0.00    -0.388 OA
HETATM   17  H   UNK N   1      18.801  13.819   5.648  0.00  0.00     0.210 HD
ENDBRANCH   2  16
BRANCH   3  18
HETATM   18  O   UNK N   1      21.405  15.719   3.904  0.00  0.00    -0.286 OA
BRANCH  18  19
HETATM   19  P   UNK N   1      20.102  15.810   2.732  0.00  0.00     0.391 P 
HETATM   20  O   UNK N   1      20.720  15.785   1.309  0.00  0.00    -0.632 OA
BRANCH  19  21
HETATM   21  O   UNK N   1      18.949  14.519   2.856  0.00  0.00    -0.307 OA
HETATM   22  H   UNK N   1      18.285  13.821   2.740  0.00  0.00     0.222 HD
ENDBRANCH  19  21
BRANCH  19  23
HETATM   23  O   UNK N   1      19.299  17.343   2.865  0.00  0.00    -0.307 OA
HETATM   24  H   UNK N   1      18.341  17.478   2.798  0.00  0.00     0.222 HD
ENDBRANCH  19  23
ENDBRANCH  18  19
ENDBRANCH   3  18
BRANCH   1  25
HETATM   25  C   UNK N   1      22.066  17.956   5.932  0.00  0.00     0.198 C 
BRANCH  25  26
HETATM   26  O   UNK N   1      21.246  18.552   6.893  0.00  0.00    -0.398 OA
HETATM   27  H   UNK N   1      21.020  18.848   7.789  0.00  0.00     0.209 HD
ENDBRANCH  25  26
ENDBRANCH   1  25
TORSDOF 9
ENDMDL
MODEL 6
REMARK VINA RESULT:      -5.5     12.390     13.718
REMARK  9 active torsions:
REMARK  status: ('A' for Active; 'I' for Inactive)
REMARK    1  A    between atoms: C_4  and  C_3 
REMARK    2  A    between atoms: O_13  and  C_3 
REMARK    3  A    between atoms: O_14  and  C_5 
REMARK    4  A    between atoms: C_6  and  O_15 
REMARK    5  A    between atoms: C_7  and  O_21 
REMARK    6  A    between atoms: C_8  and  N_12 
REMARK    7  A    between atoms: P_22  and  O_17 
REMARK    8  A    between atoms: P_22  and  O_18 
REMARK    9  A    between atoms: P_22  and  O_21 
ROOT
HETATM    1  C   UNK N   1      30.528  23.089  -5.625  0.00  0.00     0.180 C 
HETATM    2  C   UNK N   1      30.504  23.861  -3.472  0.00  0.00     0.199 C 
HETATM    3  C   UNK N   1      31.070  22.691  -4.248  0.00  0.00     0.197 C 
HETATM    4  C   UNK N   1      29.094  23.897  -4.068  0.00  0.00     0.264 C 
HETATM    5  O   UNK N   1      29.258  23.693  -5.458  0.00  0.00    -0.353 OA
ENDROOT
BRANCH   4   6
HETATM    6  N   UNK N   1      28.271  25.107  -3.814  0.00  0.00    -0.280 N 
HETATM    7  C   UNK N   1      28.867  26.301  -4.114  0.00  0.00     0.103 A 
HETATM    8  C   UNK N   1      28.204  27.509  -3.930  0.00  0.00     0.073 A 
HETATM    9  C   UNK N   1      26.908  27.493  -3.440  0.00  0.00     0.144 A 
HETATM   10  N   UNK N   1      26.312  26.313  -3.150  0.00  0.00    -0.289 N 
HETATM   11  C   UNK N   1      26.966  25.122  -3.327  0.00  0.00     0.330 A 
ATOM     12  HN  UNK N   1      25.356  26.310  -2.792  1.00  0.00     0.172 HD
HETATM   13  O   UNK N   1      26.375  24.091  -3.062  0.00  0.00    -0.246 OA
BRANCH   9  14
HETATM   14  O   UNK N   1      26.243  28.646  -3.258  0.00  0.00    -0.346 OA
HETATM   15  H   UNK N   1      26.709  29.457  -3.211  0.00  0.00     0.219 HD
ENDBRANCH   9  14
ENDBRANCH   4   6
BRANCH   2  16
HETATM   16  O   UNK N   1      30.476  23.640  -2.092  0.00  0.00    -0.388 OA
HETATM   17  H   UNK N   1      29.879  23.594  -1.329  0.00  0.00     0.210 HD
ENDBRANCH   2  16
BRANCH   3  18
HETATM   18  O   UNK N   1      32.480  22.539  -4.347  0.00  0.00    -0.286 OA
BRANCH  18  19
HETATM   19  P   UNK N   1      33.109  21.093  -3.580  0.00  0.00     0.391 P 
HETATM   20  O   UNK N   1      34.620  20.977  -3.916  0.00  0.00    -0.632 OA
BRANCH  19  21
HETATM   21  O   UNK N   1      32.925  21.070  -1.854  0.00  0.00    -0.307 OA
HETATM   22  H   UNK N   1      32.930  21.210  -0.894  0.00  0.00     0.222 HD
ENDBRANCH  19  21
BRANCH  19  23
HETATM   23  O   UNK N   1      32.367  19.688  -4.279  0.00  0.00    -0.307 OA
HETATM   24  H   UNK N   1      32.635  18.771  -4.104  0.00  0.00     0.222 HD
ENDBRANCH  19  23
ENDBRANCH  18  19
ENDBRANCH   3  18
BRANCH   1  25
HETATM   25  C   UNK N   1      30.451  21.913  -6.594  0.00  0.00     0.198 C 
BRANCH  25  26
HETATM   26  O   UNK N   1      30.054  20.752  -5.928  0.00  0.00    -0.398 OA
HETATM   27  H   UNK N   1      29.608  20.256  -5.223  0.00  0.00     0.209 HD
ENDBRANCH  25  26
ENDBRANCH   1  25
TORSDOF 9
ENDMDL
MODEL 7
REMARK VINA RESULT:      -5.2      4.220      5.496
REMARK  9 active torsions:
REMARK  status: ('A' for Active; 'I' for Inactive)
REMARK    1  A    between atoms: C_4  and  C_3 
REMARK    2  A    between atoms: O_13  and  C_3 
REMARK    3  A    between atoms: O_14  and  C_5 
REMARK    4  A    between atoms: C_6  and  O_15 
REMARK    5  A    between atoms: C_7  and  O_21 
REMARK    6  A    between atoms: C_8  and  N_12 
REMARK    7  A    between atoms: P_22  and  O_17 
REMARK    8  A    between atoms: P_22  and  O_18 
REMARK    9  A    between atoms: P_22  and  O_21 
ROOT
HETATM    1  C   UNK N   1      34.694  16.044   9.592  0.00  0.00     0.180 C 
HETATM    2  C   UNK N   1      34.589  14.387   8.020  0.00  0.00     0.199 C 
HETATM    3  C   UNK N   1      35.235  14.628   9.368  0.00  0.00     0.197 C 
HETATM    4  C   UNK N   1      34.885  15.734   7.356  0.00  0.00     0.264 C 
HETATM    5  O   UNK N   1      34.637  16.713   8.345  0.00  0.00    -0.353 OA
ENDROOT
BRANCH   4   6
HETATM    6  N   UNK N   1      34.152  16.061   6.106  0.00  0.00    -0.280 N 
HETATM    7  C   UNK N   1      33.256  17.089   6.198  0.00  0.00     0.103 A 
HETATM    8  C   UNK N   1      32.508  17.502   5.101  0.00  0.00     0.073 A 
HETATM    9  C   UNK N   1      32.689  16.855   3.888  0.00  0.00     0.144 A 
HETATM   10  N   UNK N   1      33.580  15.841   3.791  0.00  0.00    -0.289 N 
HETATM   11  C   UNK N   1      34.315  15.432   4.873  0.00  0.00     0.330 A 
ATOM     12  HN  UNK N   1      33.709  15.373   2.893  1.00  0.00     0.172 HD
HETATM   13  O   UNK N   1      35.112  14.524   4.723  0.00  0.00    -0.246 OA
BRANCH   9  14
HETATM   14  O   UNK N   1      31.984  17.236   2.810  0.00  0.00    -0.346 OA
HETATM   15  H   UNK N   1      31.590  18.087   2.781  0.00  0.00     0.219 HD
ENDBRANCH   9  14
ENDBRANCH   4   6
BRANCH   2  16
HETATM   16  O   UNK N   1      35.170  13.326   7.317  0.00  0.00    -0.388 OA
HETATM   17  H   UNK N   1      35.634  13.107   6.494  0.00  0.00     0.210 HD
ENDBRANCH   2  16
BRANCH   3  18
HETATM   18  O   UNK N   1      34.856  13.822  10.474  0.00  0.00    -0.286 OA
BRANCH  18  19
HETATM   19  P   UNK N   1      36.100  12.714  11.025  0.00  0.00     0.391 P 
HETATM   20  O   UNK N   1      36.653  11.946   9.795  0.00  0.00    -0.632 OA
BRANCH  19  21
HETATM   21  O   UNK N   1      37.426  13.486  11.835  0.00  0.00    -0.307 OA
HETATM   22  H   UNK N   1      38.066  13.892  12.441  0.00  0.00     0.222 HD
ENDBRANCH  19  21
BRANCH  19  23
HETATM   23  O   UNK N   1      35.395  11.504  12.051  0.00  0.00    -0.307 OA
HETATM   24  H   UNK N   1      34.636  11.646  12.639  0.00  0.00     0.222 HD
ENDBRANCH  19  23
ENDBRANCH  18  19
ENDBRANCH   3  18
BRANCH   1  25
HETATM   25  C   UNK N   1      35.516  16.839  10.602  0.00  0.00     0.198 C 
BRANCH  25  26
HETATM   26  O   UNK N   1      36.756  16.232  10.814  0.00  0.00    -0.398 OA
HETATM   27  H   UNK N   1      37.462  15.594  10.624  0.00  0.00     0.209 HD
ENDBRANCH  25  26
ENDBRANCH   1  25
TORSDOF 9
ENDMDL
MODEL 8
REMARK VINA RESULT:      -5.2      3.020      4.945
REMARK  9 active torsions:
REMARK  status: ('A' for Active; 'I' for Inactive)
REMARK    1  A    between atoms: C_4  and  C_3 
REMARK    2  A    between atoms: O_13  and  C_3 
REMARK    3  A    between atoms: O_14  and  C_5 
REMARK    4  A    between atoms: C_6  and  O_15 
REMARK    5  A    between atoms: C_7  and  O_21 
REMARK    6  A    between atoms: C_8  and  N_12 
REMARK    7  A    between atoms: P_22  and  O_17 
REMARK    8  A    between atoms: P_22  and  O_18 
REMARK    9  A    between atoms: P_22  and  O_21 
ROOT
HETATM    1  C   UNK N   1      34.790  15.452  10.100  0.00  0.00     0.180 C 
HETATM    2  C   UNK N   1      34.852  14.863   7.891  0.00  0.00     0.199 C 
HETATM    3  C   UNK N   1      35.767  14.829   9.096  0.00  0.00     0.197 C 
HETATM    4  C   UNK N   1      34.279  16.274   8.051  0.00  0.00     0.264 C 
HETATM    5  O   UNK N   1      34.007  16.424   9.431  0.00  0.00    -0.353 OA
ENDROOT
BRANCH   4   6
HETATM    6  N   UNK N   1      33.082  16.626   7.245  0.00  0.00    -0.280 N 
HETATM    7  C   UNK N   1      31.876  16.374   7.837  0.00  0.00     0.103 A 
HETATM    8  C   UNK N   1      30.677  16.663   7.194  0.00  0.00     0.073 A 
HETATM    9  C   UNK N   1      30.716  17.227   5.929  0.00  0.00     0.144 A 
HETATM   10  N   UNK N   1      31.908  17.485   5.343  0.00  0.00    -0.289 N 
HETATM   11  C   UNK N   1      33.090  17.197   5.974  0.00  0.00     0.330 A 
ATOM     12  HN  UNK N   1      31.928  17.903   4.412  1.00  0.00     0.172 HD
HETATM   13  O   UNK N   1      34.132  17.463   5.404  0.00  0.00    -0.246 OA
BRANCH   9  14
HETATM   14  O   UNK N   1      29.573  17.521   5.288  0.00  0.00    -0.346 OA
HETATM   15  H   UNK N   1      29.523  18.277   4.735  0.00  0.00     0.219 HD
ENDBRANCH   9  14
ENDBRANCH   4   6
BRANCH   2  16
HETATM   16  O   UNK N   1      35.536  14.719   6.681  0.00  0.00    -0.388 OA
HETATM   17  H   UNK N   1      35.944  14.060   6.097  0.00  0.00     0.210 HD
ENDBRANCH   2  16
BRANCH   3  18
HETATM   18  O   UNK N   1      36.198  13.575   9.607  0.00  0.00    -0.286 OA
BRANCH  18  19
HETATM   19  P   UNK N   1      37.878  13.195   9.275  0.00  0.00     0.391 P 
HETATM   20  O   UNK N   1      38.037  11.651   9.256  0.00  0.00    -0.632 OA
BRANCH  19  21
HETATM   21  O   UNK N   1      38.462  13.828   7.769  0.00  0.00    -0.307 OA
HETATM   22  H   UNK N   1      38.649  14.304   6.945  0.00  0.00     0.222 HD
ENDBRANCH  19  21
BRANCH  19  23
HETATM   23  O   UNK N   1      38.874  13.749  10.584  0.00  0.00    -0.307 OA
HETATM   24  H   UNK N   1      39.005  14.679  10.830  0.00  0.00     0.222 HD
ENDBRANCH  19  23
ENDBRANCH  18  19
ENDBRANCH   3  18
BRANCH   1  25
HETATM   25  C   UNK N   1      35.493  16.055  11.313  0.00  0.00     0.198 C 
BRANCH  25  26
HETATM   26  O   UNK N   1      36.871  16.128  11.098  0.00  0.00    -0.398 OA
HETATM   27  H   UNK N   1      37.797  15.898  11.273  0.00  0.00     0.209 HD
ENDBRANCH  25  26
ENDBRANCH   1  25
TORSDOF 9
ENDMDL
MODEL 9
REMARK VINA RESULT:      -5.1      9.436     10.510
REMARK  9 active torsions:
REMARK  status: ('A' for Active; 'I' for Inactive)
REMARK    1  A    between atoms: C_4  and  C_3 
REMARK    2  A    between atoms: O_13  and  C_3 
REMARK    3  A    between atoms: O_14  and  C_5 
REMARK    4  A    between atoms: C_6  and  O_15 
REMARK    5  A    between atoms: C_7  and  O_21 
REMARK    6  A    between atoms: C_8  and  N_12 
REMARK    7  A    between atoms: P_22  and  O_17 
REMARK    8  A    between atoms: P_22  and  O_18 
REMARK    9  A    between atoms: P_22  and  O_21 
ROOT
HETATM    1  C   UNK N   1      22.933  15.325   4.805  0.00  0.00     0.180 C 
HETATM    2  C   UNK N   1      21.140  16.634   5.356  0.00  0.00     0.199 C 
HETATM    3  C   UNK N   1      21.733  15.300   5.757  0.00  0.00     0.197 C 
HETATM    4  C   UNK N   1      21.267  16.516   3.835  0.00  0.00     0.264 C 
HETATM    5  O   UNK N   1      22.544  15.955   3.598  0.00  0.00    -0.353 OA
ENDROOT
BRANCH   4   6
HETATM    6  N   UNK N   1      21.086  17.752   3.031  0.00  0.00    -0.280 N 
HETATM    7  C   UNK N   1      21.717  18.866   3.511  0.00  0.00     0.103 A 
HETATM    8  C   UNK N   1      21.635  20.088   2.851  0.00  0.00     0.073 A 
HETATM    9  C   UNK N   1      20.902  20.165   1.678  0.00  0.00     0.144 A 
HETATM   10  N   UNK N   1      20.282  19.063   1.196  0.00  0.00    -0.289 N 
HETATM   11  C   UNK N   1      20.359  17.860   1.847  0.00  0.00     0.330 A 
ATOM     12  HN  UNK N   1      19.747  19.128   0.329  1.00  0.00     0.172 HD
HETATM   13  O   UNK N   1      19.793  16.899   1.360  0.00  0.00    -0.246 OA
BRANCH   9  14
HETATM   14  O   UNK N   1      20.811  21.331   1.017  0.00  0.00    -0.346 OA
HETATM   15  H   UNK N   1      20.785  22.140   1.490  0.00  0.00     0.219 HD
ENDBRANCH   9  14
ENDBRANCH   4   6
BRANCH   2  16
HETATM   16  O   UNK N   1      19.807  16.781   5.752  0.00  0.00    -0.388 OA
HETATM   17  H   UNK N   1      19.203  17.374   6.226  0.00  0.00     0.210 HD
ENDBRANCH   2  16
BRANCH   3  18
HETATM   18  O   UNK N   1      22.214  15.124   7.083  0.00  0.00    -0.286 OA
BRANCH  18  19
HETATM   19  P   UNK N   1      21.098  14.302   8.157  0.00  0.00     0.391 P 
HETATM   20  O   UNK N   1      20.764  12.913   7.549  0.00  0.00    -0.632 OA
BRANCH  19  21
HETATM   21  O   UNK N   1      21.707  14.068   9.766  0.00  0.00    -0.307 OA
HETATM   22  H   UNK N   1      21.879  13.863  10.698  0.00  0.00     0.222 HD
ENDBRANCH  19  21
BRANCH  19  23
HETATM   23  O   UNK N   1      19.591  15.163   8.208  0.00  0.00    -0.307 OA
HETATM   24  H   UNK N   1      18.811  14.890   8.716  0.00  0.00     0.222 HD
ENDBRANCH  19  23
ENDBRANCH  18  19
ENDBRANCH   3  18
BRANCH   1  25
HETATM   25  C   UNK N   1      23.506  13.937   4.538  0.00  0.00     0.198 C 
BRANCH  25  26
HETATM   26  O   UNK N   1      22.754  12.959   5.192  0.00  0.00    -0.398 OA
HETATM   27  H   UNK N   1      21.982  12.629   5.678  0.00  0.00     0.209 HD
ENDBRANCH  25  26
ENDBRANCH   1  25
TORSDOF 9
ENDMDL
