REMARK  28 active torsions:
REMARK  status: ('A' for Active; 'I' for Inactive)
REMARK    1  A    between atoms: C_2  and  C_3 
REMARK    2  A    between atoms: C_3  and  C_4 
REMARK    3  A    between atoms: C_4  and  O_5 
REMARK    4  A    between atoms: C_10  and  C_11 
REMARK    5  A    between atoms: C_11  and  C_12 
REMARK    6  A    between atoms: C_12  and  C_13 
REMARK    7  A    between atoms: C_13  and  O_14 
REMARK    8  A    between atoms: C_16  and  C_18 
REMARK    9  A    between atoms: C_18  and  C_19 
REMARK   10  A    between atoms: C_19  and  O_20 
REMARK   11  A    between atoms: C_25  and  C_26 
REMARK   12  A    between atoms: C_26  and  C_27 
REMARK   13  A    between atoms: C_27  and  O_28 
REMARK   14  A    between atoms: C_30  and  C_31 
REMARK   15  A    between atoms: C_31  and  C_32 
REMARK   16  A    between atoms: C_32  and  C_33 
REMARK   17  A    between atoms: C_33  and  O_34 
REMARK   18  A    between atoms: C_47  and  C_48 
REMARK   19  A    between atoms: C_48  and  C_49 
REMARK   20  A    between atoms: C_49  and  C_50 
REMARK   21  A    between atoms: C_50  and  O_51 
REMARK   22  A    between atoms: C_53  and  C_54 
REMARK   23  A    between atoms: C_54  and  C_55 
REMARK   24  A    between atoms: C_55  and  O_56 
REMARK   25  A    between atoms: C_58  and  C_59 
REMARK   26  A    between atoms: C_59  and  C_60 
REMARK   27  A    between atoms: C_60  and  C_61 
REMARK   28  A    between atoms: C_61  and  O_62 
ROOT
HETATM    1  C   UNK N   1      -0.272   0.816   1.701  0.00  0.00     0.027 C 
HETATM    2  C   UNK N   1       0.283   0.559   0.296  0.00  0.00     0.036 A 
HETATM    3  C   UNK N   1       1.683   0.976   0.316  0.00  0.00     0.050 A 
HETATM    4  C   UNK N   1       2.024   2.202   0.545  0.00  0.00     0.060 C 
HETATM    5  C   UNK N   1       3.359   2.653   0.466  0.00  0.00     0.062 C 
HETATM    6  C   UNK N   1       3.655   3.925   0.479  0.00  0.00    -0.036 C 
HETATM    7  C   UNK N   1       5.060   4.170   0.056  0.00  0.00     0.036 C 
HETATM    8  C   UNK N   1       4.971   4.740  -1.363  0.00  0.00     0.027 C 
HETATM    9  C   UNK N   1       5.516   2.746   0.017  0.00  0.00     0.050 C 
HETATM   10  C   UNK N   1       6.743   2.369  -0.232  0.00  0.00     0.060 C 
HETATM   11  C   UNK N   1       7.165   0.992  -0.105  0.00  0.00     0.067 A 
HETATM   12  C   UNK N   1       8.448   0.572  -0.241  0.00  0.00    -0.011 A 
HETATM   13  C   UNK N   1       8.412  -0.789  -0.011  0.00  0.00    -0.020 A 
HETATM   14  C   UNK N   1       7.142  -1.127   0.247  0.00  0.00     0.066 A 
HETATM   15  C   UNK N   1       6.722  -2.507   0.437  0.00  0.00     0.064 C 
HETATM   16  C   UNK N   1       5.501  -2.917   0.229  0.00  0.00     0.066 C 
HETATM   17  N   UNK N   1       4.466  -2.096   0.032  0.00  0.00    -0.248 N 
HETATM   18  C   UNK N   1       3.430  -2.887  -0.257  0.00  0.00     0.067 C 
HETATM   19  C   UNK N   1       2.198  -2.512  -0.397  0.00  0.00     0.064 C 
HETATM   20  C   UNK N   1       1.752  -1.187  -0.105  0.00  0.00     0.063 A 
HETATM   21  N   UNK N   1       2.544  -0.091   0.112  0.00  0.00    -0.252 N 
HETATM   22 Fe   UNK N   1       4.472  -0.096   0.129  0.00  0.00     0.000 Fe
HETATM   23  N   UNK N   1       4.459   1.869   0.224  0.00  0.00    -0.252 N 
HETATM   24  N   UNK N   1       6.373  -0.060   0.146  0.00  0.00    -0.248 N 
HETATM   25  C   UNK N   1       0.492  -0.891   0.006  0.00  0.00    -0.036 A 
HETATM   26  C   UNK N   1       3.813  -4.184  -0.360  0.00  0.00    -0.011 C 
HETATM   27  C   UNK N   1       5.113  -4.242   0.081  0.00  0.00    -0.020 C 
ENDROOT
BRANCH   2  28
HETATM   28  C   UNK N   1      -0.427   1.223  -0.886  0.00  0.00     0.130 C 
BRANCH  28  29
HETATM   29  C   UNK N   1      -1.474   2.146  -0.409  0.00  0.00     0.140 C 
HETATM   30  O   UNK N   1      -1.213   3.325  -0.254  0.00  0.00    -0.650 OA
BRANCH  29  31
HETATM   31  O   UNK N   1      -2.623   1.639   0.068  0.00  0.00    -0.776 OA
HETATM   32  H   UNK N   1      -3.330   2.156   0.400  0.00  0.00     0.167 HD
ENDBRANCH  29  31
ENDBRANCH  28  29
ENDBRANCH   2  28
BRANCH  25  33
HETATM   33  C   UNK N   1      -0.538  -1.894  -0.220  0.00  0.00     0.048 C 
BRANCH  33  34
HETATM   34  C   UNK N   1      -1.610  -1.809   0.798  0.00  0.00     0.114 C 
BRANCH  34  35
HETATM   35  C   UNK N   1      -2.789  -2.016  -0.045  0.00  0.00     0.139 C 
HETATM   36  O   UNK N   1      -3.566  -1.099  -0.233  0.00  0.00    -0.650 OA
BRANCH  35  37
HETATM   37  O   UNK N   1      -2.902  -3.158  -0.750  0.00  0.00    -0.776 OA
HETATM   38  H   UNK N   1      -3.629  -3.487  -1.240  0.00  0.00     0.167 HD
ENDBRANCH  35  37
ENDBRANCH  34  35
ENDBRANCH  33  34
ENDBRANCH  25  33
BRANCH   6  39
HETATM   39  C   UNK N   1       2.652   4.968   0.712  0.00  0.00     0.048 C 
BRANCH  39  40
HETATM   40  C   UNK N   1       1.689   4.937  -0.439  0.00  0.00     0.114 C 
BRANCH  40  41
HETATM   41  C   UNK N   1       1.081   6.260  -0.449  0.00  0.00     0.139 C 
HETATM   42  O   UNK N   1       1.783   7.244  -0.610  0.00  0.00    -0.650 OA
BRANCH  41  43
HETATM   43  O   UNK N   1      -0.226   6.389  -0.180  0.00  0.00    -0.776 OA
HETATM   44  H   UNK N   1      -0.604   7.225   0.008  0.00  0.00     0.167 HD
ENDBRANCH  41  43
ENDBRANCH  40  41
ENDBRANCH  39  40
ENDBRANCH   6  39
BRANCH   7  45
HETATM   45  C   UNK N   1       5.816   5.036   1.065  0.00  0.00     0.130 C 
BRANCH  45  46
HETATM   46  C   UNK N   1       6.798   5.900   0.347  0.00  0.00     0.140 C 
HETATM   47  O   UNK N   1       7.856   5.435  -0.040  0.00  0.00    -0.650 OA
BRANCH  46  48
HETATM   48  O   UNK N   1       6.395   7.105  -0.096  0.00  0.00    -0.776 OA
HETATM   49  H   UNK N   1       6.982   7.767  -0.404  0.00  0.00     0.167 HD
ENDBRANCH  46  48
ENDBRANCH  45  46
ENDBRANCH   7  45
BRANCH  26  50
HETATM   50  C   UNK N   1       2.931  -5.258  -0.905  0.00  0.00     0.151 C 
BRANCH  50  51
HETATM   51  C   UNK N   1       2.436  -6.195   0.105  0.00  0.00     0.143 C 
HETATM   52  O   UNK N   1       1.235  -6.314   0.278  0.00  0.00    -0.650 OA
BRANCH  51  53
HETATM   53  O   UNK N   1       3.300  -6.961   0.786  0.00  0.00    -0.776 OA
HETATM   54  H   UNK N   1       3.139  -7.752   1.262  0.00  0.00     0.167 HD
ENDBRANCH  51  53
ENDBRANCH  50  51
ENDBRANCH  26  50
BRANCH  27  55
HETATM   55  C   UNK N   1       5.883  -5.510   0.357  0.00  0.00     0.052 C 
BRANCH  55  56
HETATM   56  C   UNK N   1       7.055  -5.871  -0.529  0.00  0.00     0.115 C 
BRANCH  56  57
HETATM   57  C   UNK N   1       8.063  -4.790  -0.614  0.00  0.00     0.139 C 
HETATM   58  O   UNK N   1       8.933  -4.677   0.237  0.00  0.00    -0.650 OA
BRANCH  57  59
HETATM   59  O   UNK N   1       7.968  -3.892  -1.611  0.00  0.00    -0.776 OA
HETATM   60  H   UNK N   1       8.476  -3.522  -2.306  0.00  0.00     0.167 HD
ENDBRANCH  57  59
ENDBRANCH  56  57
ENDBRANCH  55  56
ENDBRANCH  27  55
BRANCH  12  61
HETATM   61  C   UNK N   1       9.596   1.425  -0.680  0.00  0.00     0.151 C 
BRANCH  61  62
HETATM   62  C   UNK N   1       9.902   2.570   0.244  0.00  0.00     0.143 C 
HETATM   63  O   UNK N   1      11.035   3.009   0.287  0.00  0.00    -0.650 OA
BRANCH  62  64
HETATM   64  O   UNK N   1       8.959   3.115   1.035  0.00  0.00    -0.776 OA
HETATM   65  H   UNK N   1       8.959   3.872   1.586  0.00  0.00     0.167 HD
ENDBRANCH  62  64
ENDBRANCH  61  62
ENDBRANCH  12  61
BRANCH  13  66
HETATM   66  C   UNK N   1       9.434  -1.800  -0.162  0.00  0.00     0.052 C 
BRANCH  66  67
HETATM   67  C   UNK N   1      10.466  -1.685   0.882  0.00  0.00     0.115 C 
BRANCH  67  68
HETATM   68  C   UNK N   1      11.652  -1.771   0.040  0.00  0.00     0.139 C 
HETATM   69  O   UNK N   1      12.126  -2.865  -0.209  0.00  0.00    -0.650 OA
BRANCH  68  70
HETATM   70  O   UNK N   1      11.991  -0.702  -0.704  0.00  0.00    -0.776 OA
HETATM   71  H   UNK N   1      12.754  -0.535  -1.222  0.00  0.00     0.167 HD
ENDBRANCH  68  70
ENDBRANCH  67  68
ENDBRANCH  66  67
ENDBRANCH  13  66
TORSDOF 28
