REMARK  0 active torsions:
REMARK  status: ('A' for Active; 'I' for Inactive)
ROOT
HETATM    1  C   UNK N   1       0.290   2.930   0.000  0.00  0.00     0.156 C 
HETATM    2  N   UNK N   1       0.423   1.485   0.000  0.00  0.00    -0.356 N 
HETATM    3  C   UNK N   1       1.567   0.786   0.000  0.00  0.00     0.108 A 
HETATM    4  C   UNK N   1       1.230  -0.554   0.000  0.00  0.00     0.106 A 
HETATM    5  N   UNK N   1      -0.116  -0.659  -0.000  0.00  0.00    -0.361 N 
HETATM    6  C   UNK N   1      -0.586   0.604  -0.000  0.00  0.00     0.182 A 
HETATM    7  H   UNK N   1      -0.646  -1.489  -0.000  0.00  0.00     0.166 HD
ENDROOT
TORSDOF 0
