REMARK  3 active torsions:
REMARK  status: ('A' for Active; 'I' for Inactive)
REMARK    1  A    between atoms: N_1  and  C_2 
REMARK    2  A    between atoms: C_2  and  C_4 
REMARK    3  A    between atoms: C_4  and  O_5 
ROOT
HETATM    1  C   UNK N   1       1.725   0.996   0.000  0.00  0.00     0.090 C 
HETATM    2  C   UNK N   1       3.043   0.804  -0.000  0.00  0.00     0.050 C 
ENDROOT
BRANCH   1   3
HETATM    3  N   UNK N   1       1.217   2.314   0.000  0.00  0.00    -0.394 N 
HETATM    4  H   UNK N   1       1.835   3.080   0.000  0.00  0.00     0.156 HD
HETATM    5  H   UNK N   1       0.244   2.466   0.000  0.00  0.00     0.156 HD
ENDBRANCH   1   3
BRANCH   1   6
HETATM    6  C   UNK N   1       0.797  -0.153  -0.000  0.00  0.00     0.192 C 
HETATM    7  O   UNK N   1      -0.408   0.036   0.000  0.00  0.00    -0.645 OA
BRANCH   6   8
HETATM    8  O   UNK N   1       1.272  -1.415  -0.000  0.00  0.00    -0.772 OA
HETATM    9  H   UNK N   1       0.677  -2.139  -0.000  0.00  0.00     0.167 HD
ENDBRANCH   6   8
ENDBRANCH   1   6
TORSDOF 3
