MODEL 1
REMARK VINA RESULT:      -4.6      0.000      0.000
REMARK  7 active torsions:
REMARK  status: ('A' for Active; 'I' for Inactive)
REMARK    1  A    between atoms: O_1  and  C_9 
REMARK    2  A    between atoms: O_2  and  C_10 
REMARK    3  A    between atoms: C_6  and  N_5 
REMARK    4  A    between atoms: C_6  and  C_7 
REMARK    5  A    between atoms: C_6  and  C_9 
REMARK    6  A    between atoms: C_7  and  C_8 
REMARK    7  A    between atoms: C_8  and  C_10 
ROOT
HETATM    1  C   UNK N   1      23.685  12.094  11.496  0.00  0.00     0.173 C 
ENDROOT
BRANCH   1   2
HETATM    2  N   UNK N   1      25.049  12.523  11.221  0.00  0.00    -0.418 N 
HETATM    3  H   UNK N   1      25.281  12.940  10.319  0.00  0.00     0.150 HD
HETATM    4  H   UNK N   1      25.773  12.406  11.930  0.00  0.00     0.150 HD
ENDBRANCH   1   2
BRANCH   1   5
HETATM    5  C   UNK N   1      22.699  11.883  10.351  0.00  0.00     0.046 C 
BRANCH   5   6
HETATM    6  C   UNK N   1      21.938  13.140   9.950  0.00  0.00     0.112 C 
BRANCH   6   7
HETATM    7  C   UNK N   1      20.515  13.107  10.432  0.00  0.00     0.139 C 
HETATM    8  O   UNK N   1      20.183  12.384  11.359  0.00  0.00    -0.650 OA
BRANCH   7   9
HETATM    9  O   UNK N   1      19.595  13.884   9.835  0.00  0.00    -0.776 OA
HETATM   10  H   UNK N   1      18.921  14.289  10.344  0.00  0.00     0.167 HD
ENDBRANCH   7   9
ENDBRANCH   6   7
ENDBRANCH   5   6
ENDBRANCH   1   5
BRANCH   1  11
HETATM   11  C   UNK N   1      23.275  11.867  12.918  0.00  0.00     0.163 C 
HETATM   12  O   UNK N   1      23.936  12.332  13.832  0.00  0.00    -0.648 OA
BRANCH  11  13
HETATM   13  O   UNK N   1      22.171  11.146  13.192  0.00  0.00    -0.775 OA
HETATM   14  H   UNK N   1      22.147  10.595  13.949  0.00  0.00     0.167 HD
ENDBRANCH  11  13
ENDBRANCH   1  11
TORSDOF 7
ENDMDL
MODEL 2
REMARK VINA RESULT:      -4.5     13.249     13.639
REMARK  7 active torsions:
REMARK  status: ('A' for Active; 'I' for Inactive)
REMARK    1  A    between atoms: O_1  and  C_9 
REMARK    2  A    between atoms: O_2  and  C_10 
REMARK    3  A    between atoms: C_6  and  N_5 
REMARK    4  A    between atoms: C_6  and  C_7 
REMARK    5  A    between atoms: C_6  and  C_9 
REMARK    6  A    between atoms: C_7  and  C_8 
REMARK    7  A    between atoms: C_8  and  C_10 
ROOT
HETATM    1  C   UNK N   1      34.548  15.765  10.166  0.00  0.00     0.173 C 
ENDROOT
BRANCH   1   2
HETATM    2  N   UNK N   1      33.872  14.927  11.146  0.00  0.00    -0.418 N 
HETATM    3  H   UNK N   1      33.277  15.352  11.857  0.00  0.00     0.150 HD
HETATM    4  H   UNK N   1      33.993  13.914  11.122  0.00  0.00     0.150 HD
ENDBRANCH   1   2
BRANCH   1   5
HETATM    5  C   UNK N   1      33.996  15.893   8.751  0.00  0.00     0.046 C 
BRANCH   5   6
HETATM    6  C   UNK N   1      33.328  17.232   8.465  0.00  0.00     0.112 C 
BRANCH   6   7
HETATM    7  C   UNK N   1      34.221  18.139   7.666  0.00  0.00     0.139 C 
HETATM    8  O   UNK N   1      34.315  18.020   6.454  0.00  0.00    -0.650 OA
BRANCH   7   9
HETATM    9  O   UNK N   1      34.926  19.095   8.295  0.00  0.00    -0.776 OA
HETATM   10  H   UNK N   1      34.499  19.875   8.591  0.00  0.00     0.167 HD
ENDBRANCH   7   9
ENDBRANCH   6   7
ENDBRANCH   5   6
ENDBRANCH   1   5
BRANCH   1  11
HETATM   11  C   UNK N   1      35.791  16.493  10.577  0.00  0.00     0.163 C 
HETATM   12  O   UNK N   1      35.801  17.712  10.633  0.00  0.00    -0.648 OA
BRANCH  11  13
HETATM   13  O   UNK N   1      36.903  15.801  10.888  0.00  0.00    -0.775 OA
HETATM   14  H   UNK N   1      36.975  15.379  11.721  0.00  0.00     0.167 HD
ENDBRANCH  11  13
ENDBRANCH   1  11
TORSDOF 7
ENDMDL
MODEL 3
REMARK VINA RESULT:      -4.4      1.765      2.015
REMARK  7 active torsions:
REMARK  status: ('A' for Active; 'I' for Inactive)
REMARK    1  A    between atoms: O_1  and  C_9 
REMARK    2  A    between atoms: O_2  and  C_10 
REMARK    3  A    between atoms: C_6  and  N_5 
REMARK    4  A    between atoms: C_6  and  C_7 
REMARK    5  A    between atoms: C_6  and  C_9 
REMARK    6  A    between atoms: C_7  and  C_8 
REMARK    7  A    between atoms: C_8  and  C_10 
ROOT
HETATM    1  C   UNK N   1      22.465  12.104  11.381  0.00  0.00     0.173 C 
ENDROOT
BRANCH   1   2
HETATM    2  N   UNK N   1      21.194  11.726  11.982  0.00  0.00    -0.418 N 
HETATM    3  H   UNK N   1      21.174  11.301  12.909  0.00  0.00     0.150 HD
HETATM    4  H   UNK N   1      20.323  11.888  11.476  0.00  0.00     0.150 HD
ENDBRANCH   1   2
BRANCH   1   5
HETATM    5  C   UNK N   1      22.536  12.483   9.906  0.00  0.00     0.046 C 
BRANCH   5   6
HETATM    6  C   UNK N   1      22.034  13.889   9.604  0.00  0.00     0.112 C 
BRANCH   6   7
HETATM    7  C   UNK N   1      20.576  13.892   9.239  0.00  0.00     0.139 C 
HETATM    8  O   UNK N   1      19.714  13.766  10.095  0.00  0.00    -0.650 OA
BRANCH   7   9
HETATM    9  O   UNK N   1      20.215  14.036   7.952  0.00  0.00    -0.776 OA
HETATM   10  H   UNK N   1      20.867  14.028   7.279  0.00  0.00     0.167 HD
ENDBRANCH   7   9
ENDBRANCH   6   7
ENDBRANCH   5   6
ENDBRANCH   1   5
BRANCH   1  11
HETATM   11  C   UNK N   1      23.693  12.110  12.239  0.00  0.00     0.163 C 
HETATM   12  O   UNK N   1      23.598  12.013  13.451  0.00  0.00    -0.648 OA
BRANCH  11  13
HETATM   13  O   UNK N   1      24.908  12.225  11.671  0.00  0.00    -0.775 OA
HETATM   14  H   UNK N   1      25.245  11.530  11.141  0.00  0.00     0.167 HD
ENDBRANCH  11  13
ENDBRANCH   1  11
TORSDOF 7
ENDMDL
MODEL 4
REMARK VINA RESULT:      -4.4     12.134     13.556
REMARK  7 active torsions:
REMARK  status: ('A' for Active; 'I' for Inactive)
REMARK    1  A    between atoms: O_1  and  C_9 
REMARK    2  A    between atoms: O_2  and  C_10 
REMARK    3  A    between atoms: C_6  and  N_5 
REMARK    4  A    between atoms: C_6  and  C_7 
REMARK    5  A    between atoms: C_6  and  C_9 
REMARK    6  A    between atoms: C_7  and  C_8 
REMARK    7  A    between atoms: C_8  and  C_10 
ROOT
HETATM    1  C   UNK N   1      34.164  17.306   9.114  0.00  0.00     0.173 C 
ENDROOT
BRANCH   1   2
HETATM    2  N   UNK N   1      32.765  16.908   9.056  0.00  0.00    -0.418 N 
HETATM    3  H   UNK N   1      32.106  17.440   8.489  0.00  0.00     0.150 HD
HETATM    4  H   UNK N   1      32.444  16.095   9.584  0.00  0.00     0.150 HD
ENDBRANCH   1   2
BRANCH   1   5
HETATM    5  C   UNK N   1      35.095  16.699  10.158  0.00  0.00     0.046 C 
BRANCH   5   6
HETATM    6  C   UNK N   1      35.408  15.226   9.926  0.00  0.00     0.112 C 
BRANCH   6   7
HETATM    7  C   UNK N   1      34.550  14.334  10.778  0.00  0.00     0.139 C 
HETATM    8  O   UNK N   1      34.864  13.173  10.989  0.00  0.00    -0.650 OA
BRANCH   7   9
HETATM    9  O   UNK N   1      33.418  14.823  11.317  0.00  0.00    -0.776 OA
HETATM   10  H   UNK N   1      32.988  15.554  10.920  0.00  0.00     0.167 HD
ENDBRANCH   7   9
ENDBRANCH   6   7
ENDBRANCH   5   6
ENDBRANCH   1   5
BRANCH   1  11
HETATM   11  C   UNK N   1      34.665  18.320   8.132  0.00  0.00     0.163 C 
HETATM   12  O   UNK N   1      35.304  19.286   8.514  0.00  0.00    -0.648 OA
BRANCH  11  13
HETATM   13  O   UNK N   1      34.409  18.166   6.819  0.00  0.00    -0.775 OA
HETATM   14  H   UNK N   1      34.459  18.903   6.242  0.00  0.00     0.167 HD
ENDBRANCH  11  13
ENDBRANCH   1  11
TORSDOF 7
ENDMDL
MODEL 5
REMARK VINA RESULT:      -4.3     11.149     12.095
REMARK  7 active torsions:
REMARK  status: ('A' for Active; 'I' for Inactive)
REMARK    1  A    between atoms: O_1  and  C_9 
REMARK    2  A    between atoms: O_2  and  C_10 
REMARK    3  A    between atoms: C_6  and  N_5 
REMARK    4  A    between atoms: C_6  and  C_7 
REMARK    5  A    between atoms: C_6  and  C_9 
REMARK    6  A    between atoms: C_7  and  C_8 
REMARK    7  A    between atoms: C_8  and  C_10 
ROOT
HETATM    1  C   UNK N   1      20.223  17.138   2.293  0.00  0.00     0.173 C 
ENDROOT
BRANCH   1   2
HETATM    2  N   UNK N   1      19.382  16.283   3.118  0.00  0.00    -0.418 N 
HETATM    3  H   UNK N   1      18.369  16.298   3.002  0.00  0.00     0.150 HD
HETATM    4  H   UNK N   1      19.806  15.667   3.813  0.00  0.00     0.150 HD
ENDBRANCH   1   2
BRANCH   1   5
HETATM    5  C   UNK N   1      20.919  18.350   2.903  0.00  0.00     0.046 C 
BRANCH   5   6
HETATM    6  C   UNK N   1      20.200  19.669   2.651  0.00  0.00     0.112 C 
BRANCH   6   7
HETATM    7  C   UNK N   1      21.076  20.650   1.925  0.00  0.00     0.139 C 
HETATM    8  O   UNK N   1      21.262  20.557   0.722  0.00  0.00    -0.650 OA
BRANCH   7   9
HETATM    9  O   UNK N   1      21.664  21.646   2.611  0.00  0.00    -0.776 OA
HETATM   10  H   UNK N   1      21.303  22.510   2.586  0.00  0.00     0.167 HD
ENDBRANCH   7   9
ENDBRANCH   6   7
ENDBRANCH   5   6
ENDBRANCH   1   5
BRANCH   1  11
HETATM   11  C   UNK N   1      20.389  16.802   0.843  0.00  0.00     0.163 C 
HETATM   12  O   UNK N   1      20.621  15.655   0.499  0.00  0.00    -0.648 OA
BRANCH  11  13
HETATM   13  O   UNK N   1      20.282  17.769  -0.087  0.00  0.00    -0.775 OA
HETATM   14  H   UNK N   1      20.963  17.890  -0.718  0.00  0.00     0.167 HD
ENDBRANCH  11  13
ENDBRANCH   1  11
TORSDOF 7
ENDMDL
MODEL 6
REMARK VINA RESULT:      -4.3     13.245     14.045
REMARK  7 active torsions:
REMARK  status: ('A' for Active; 'I' for Inactive)
REMARK    1  A    between atoms: O_1  and  C_9 
REMARK    2  A    between atoms: O_2  and  C_10 
REMARK    3  A    between atoms: C_6  and  N_5 
REMARK    4  A    between atoms: C_6  and  C_7 
REMARK    5  A    between atoms: C_6  and  C_9 
REMARK    6  A    between atoms: C_7  and  C_8 
REMARK    7  A    between atoms: C_8  and  C_10 
ROOT
HETATM    1  C   UNK N   1      33.481  17.095   8.502  0.00  0.00     0.173 C 
ENDROOT
BRANCH   1   2
HETATM    2  N   UNK N   1      32.130  17.436   8.925  0.00  0.00    -0.418 N 
HETATM    3  H   UNK N   1      31.436  16.700   9.056  0.00  0.00     0.150 HD
HETATM    4  H   UNK N   1      31.878  18.410   9.091  0.00  0.00     0.150 HD
ENDBRANCH   1   2
BRANCH   1   5
HETATM    5  C   UNK N   1      34.077  15.736   8.851  0.00  0.00     0.046 C 
BRANCH   5   6
HETATM    6  C   UNK N   1      34.518  15.608  10.304  0.00  0.00     0.112 C 
BRANCH   6   7
HETATM    7  C   UNK N   1      35.820  16.315  10.554  0.00  0.00     0.139 C 
HETATM    8  O   UNK N   1      35.867  17.531  10.653  0.00  0.00    -0.650 OA
BRANCH   7   9
HETATM    9  O   UNK N   1      36.951  15.597  10.671  0.00  0.00    -0.776 OA
HETATM   10  H   UNK N   1      37.649  15.720  10.058  0.00  0.00     0.167 HD
ENDBRANCH   7   9
ENDBRANCH   6   7
ENDBRANCH   5   6
ENDBRANCH   1   5
BRANCH   1  11
HETATM   11  C   UNK N   1      34.266  18.104   7.721  0.00  0.00     0.163 C 
HETATM   12  O   UNK N   1      34.298  18.051   6.503  0.00  0.00    -0.648 OA
BRANCH  11  13
HETATM   13  O   UNK N   1      34.941  19.074   8.365  0.00  0.00    -0.775 OA
HETATM   14  H   UNK N   1      35.846  19.224   8.172  0.00  0.00     0.167 HD
ENDBRANCH  11  13
ENDBRANCH   1  11
TORSDOF 7
ENDMDL
MODEL 7
REMARK VINA RESULT:      -4.2     12.377     13.168
REMARK  7 active torsions:
REMARK  status: ('A' for Active; 'I' for Inactive)
REMARK    1  A    between atoms: O_1  and  C_9 
REMARK    2  A    between atoms: O_2  and  C_10 
REMARK    3  A    between atoms: C_6  and  N_5 
REMARK    4  A    between atoms: C_6  and  C_7 
REMARK    5  A    between atoms: C_6  and  C_9 
REMARK    6  A    between atoms: C_7  and  C_8 
REMARK    7  A    between atoms: C_8  and  C_10 
ROOT
HETATM    1  C   UNK N   1      34.456  15.854  10.171  0.00  0.00     0.173 C 
ENDROOT
BRANCH   1   2
HETATM    2  N   UNK N   1      35.085  16.959  10.880  0.00  0.00    -0.418 N 
HETATM    3  H   UNK N   1      34.527  17.563  11.483  0.00  0.00     0.150 HD
HETATM    4  H   UNK N   1      36.085  17.130  10.772  0.00  0.00     0.150 HD
ENDBRANCH   1   2
BRANCH   1   5
HETATM    5  C   UNK N   1      33.627  16.116   8.918  0.00  0.00     0.046 C 
BRANCH   5   6
HETATM    6  C   UNK N   1      33.308  17.587   8.682  0.00  0.00     0.112 C 
BRANCH   6   7
HETATM    7  C   UNK N   1      34.390  18.271   7.895  0.00  0.00     0.139 C 
HETATM    8  O   UNK N   1      35.163  19.048   8.433  0.00  0.00    -0.650 OA
BRANCH   7   9
HETATM    9  O   UNK N   1      34.508  18.024   6.578  0.00  0.00    -0.776 OA
HETATM   10  H   UNK N   1      34.626  18.732   5.977  0.00  0.00     0.167 HD
ENDBRANCH   7   9
ENDBRANCH   6   7
ENDBRANCH   5   6
ENDBRANCH   1   5
BRANCH   1  11
HETATM   11  C   UNK N   1      34.638  14.464  10.698  0.00  0.00     0.163 C 
HETATM   12  O   UNK N   1      35.231  13.628  10.037  0.00  0.00    -0.648 OA
BRANCH  11  13
HETATM   13  O   UNK N   1      34.147  14.134  11.907  0.00  0.00    -0.775 OA
HETATM   14  H   UNK N   1      34.718  13.798  12.570  0.00  0.00     0.167 HD
ENDBRANCH  11  13
ENDBRANCH   1  11
TORSDOF 7
ENDMDL
MODEL 8
REMARK VINA RESULT:      -4.2      2.652      4.397
REMARK  7 active torsions:
REMARK  status: ('A' for Active; 'I' for Inactive)
REMARK    1  A    between atoms: O_1  and  C_9 
REMARK    2  A    between atoms: O_2  and  C_10 
REMARK    3  A    between atoms: C_6  and  N_5 
REMARK    4  A    between atoms: C_6  and  C_7 
REMARK    5  A    between atoms: C_6  and  C_9 
REMARK    6  A    between atoms: C_7  and  C_8 
REMARK    7  A    between atoms: C_8  and  C_10 
ROOT
HETATM    1  C   UNK N   1      21.377  12.361  10.707  0.00  0.00     0.173 C 
ENDROOT
BRANCH   1   2
HETATM    2  N   UNK N   1      20.694  11.860  11.891  0.00  0.00    -0.418 N 
HETATM    3  H   UNK N   1      20.761  12.369  12.772  0.00  0.00     0.150 HD
HETATM    4  H   UNK N   1      20.146  11.001  11.839  0.00  0.00     0.150 HD
ENDBRANCH   1   2
BRANCH   1   5
HETATM    5  C   UNK N   1      22.637  11.671  10.197  0.00  0.00     0.046 C 
BRANCH   5   6
HETATM    6  C   UNK N   1      23.905  12.064  10.944  0.00  0.00     0.112 C 
BRANCH   6   7
HETATM    7  C   UNK N   1      24.756  13.006  10.139  0.00  0.00     0.139 C 
HETATM    8  O   UNK N   1      24.475  13.273   8.981  0.00  0.00    -0.650 OA
BRANCH   7   9
HETATM    9  O   UNK N   1      25.843  13.562  10.702  0.00  0.00    -0.776 OA
HETATM   10  H   UNK N   1      26.590  13.767  10.176  0.00  0.00     0.167 HD
ENDBRANCH   7   9
ENDBRANCH   6   7
ENDBRANCH   5   6
ENDBRANCH   1   5
BRANCH   1  11
HETATM   11  C   UNK N   1      20.817  13.560  10.006  0.00  0.00     0.163 C 
HETATM   12  O   UNK N   1      19.610  13.723   9.930  0.00  0.00    -0.648 OA
BRANCH  11  13
HETATM   13  O   UNK N   1      21.649  14.465   9.456  0.00  0.00    -0.775 OA
HETATM   14  H   UNK N   1      22.237  14.952   9.999  0.00  0.00     0.167 HD
ENDBRANCH  11  13
ENDBRANCH   1  11
TORSDOF 7
ENDMDL
MODEL 9
REMARK VINA RESULT:      -4.1     14.410     15.096
REMARK  7 active torsions:
REMARK  status: ('A' for Active; 'I' for Inactive)
REMARK    1  A    between atoms: O_1  and  C_9 
REMARK    2  A    between atoms: O_2  and  C_10 
REMARK    3  A    between atoms: C_6  and  N_5 
REMARK    4  A    between atoms: C_6  and  C_7 
REMARK    5  A    between atoms: C_6  and  C_9 
REMARK    6  A    between atoms: C_7  and  C_8 
REMARK    7  A    between atoms: C_8  and  C_10 
ROOT
HETATM    1  C   UNK N   1      35.278  13.678  18.012  0.00  0.00     0.173 C 
ENDROOT
BRANCH   1   2
HETATM    2  N   UNK N   1      35.534  15.045  18.440  0.00  0.00    -0.418 N 
HETATM    3  H   UNK N   1      34.755  15.676  18.628  0.00  0.00     0.150 HD
HETATM    4  H   UNK N   1      36.494  15.373  18.552  0.00  0.00     0.150 HD
ENDBRANCH   1   2
BRANCH   1   5
HETATM    5  C   UNK N   1      35.051  13.362  16.538  0.00  0.00     0.046 C 
BRANCH   5   6
HETATM    6  C   UNK N   1      36.331  13.086  15.760  0.00  0.00     0.112 C 
BRANCH   6   7
HETATM    7  C   UNK N   1      36.943  14.351  15.228  0.00  0.00     0.139 C 
HETATM    8  O   UNK N   1      37.578  15.097  15.957  0.00  0.00    -0.650 OA
BRANCH   7   9
HETATM    9  O   UNK N   1      36.788  14.667  13.930  0.00  0.00    -0.776 OA
HETATM   10  H   UNK N   1      37.513  14.997  13.438  0.00  0.00     0.167 HD
ENDBRANCH   7   9
ENDBRANCH   6   7
ENDBRANCH   5   6
ENDBRANCH   1   5
BRANCH   1  11
HETATM   11  C   UNK N   1      35.242  12.595  19.046  0.00  0.00     0.163 C 
HETATM   12  O   UNK N   1      35.141  11.426  18.712  0.00  0.00    -0.648 OA
BRANCH  11  13
HETATM   13  O   UNK N   1      35.321  12.911  20.353  0.00  0.00    -0.775 OA
HETATM   14  H   UNK N   1      35.071  12.284  21.003  0.00  0.00     0.167 HD
ENDBRANCH  11  13
ENDBRANCH   1  11
TORSDOF 7
ENDMDL
