REMARK  15 active torsions:
REMARK  status: ('A' for Active; 'I' for Inactive)
REMARK    1  A    between atoms: C_10  and  C_8 
REMARK    2  A    between atoms: N_20  and  C_8 
REMARK    3  A    between atoms: C_11  and  C_9 
REMARK    4  A    between atoms: N_26  and  C_9 
REMARK    5  A    between atoms: S_35  and  C_10 
REMARK    6  A    between atoms: S_36  and  C_11 
REMARK    7  A    between atoms: O_30  and  C_12 
REMARK    8  A    between atoms: C_13  and  C_17 
REMARK    9  A    between atoms: C_14  and  N_28 
REMARK   10  A    between atoms: C_18  and  C_15 
REMARK   11  A    between atoms: C_19  and  C_16 
REMARK   12  A    between atoms: O_31  and  C_17 
REMARK   13  A    between atoms: C_18  and  O_32 
REMARK   14  A    between atoms: O_34  and  C_19 
REMARK   15  A    between atoms: S_36  and  S_35 
ROOT
HETATM    1  C   UNK N   1       9.061   7.566  -0.042  0.00  0.00     0.015 C 
HETATM    2  C   UNK N   1       7.758   9.680   0.558  0.00  0.00     0.015 C 
HETATM    3  C   UNK N   1      10.192   8.616   0.031  0.00  0.00     0.026 C 
HETATM    4  C   UNK N   1       8.281  10.091  -0.804  0.00  0.00     0.026 C 
HETATM    5  C   UNK N   1       7.793   8.138   0.629  0.00  0.00     0.060 C 
HETATM    6  C   UNK N   1       9.801   9.857  -0.815  0.00  0.00     0.083 C 
ENDROOT
BRANCH   5   7
HETATM    7  C   UNK N   1       6.490   7.586   0.104  0.00  0.00     0.115 C 
HETATM    8  N   UNK N   1       5.638   8.415  -0.392  0.00  0.00    -0.373 N 
ATOM      9  HN  UNK N   1       5.977   9.321  -0.714  1.00  0.00     0.161 HD
BRANCH   8  10
HETATM   10  C   UNK N   1       4.246   8.133  -0.514  0.00  0.00     0.132 C 
BRANCH  10  11
HETATM   11  C   UNK N   1       3.701   8.811   0.730  0.00  0.00     0.105 C 
BRANCH  11  12
HETATM   12  S   UNK N   1       1.919   8.947   0.812  0.00  0.00    -0.096 SA
BRANCH  12  13
HETATM   13  S   UNK N   1       1.996  10.888  -0.054  0.00  0.00    -0.096 SA
BRANCH  13  14
HETATM   14  C   UNK N   1       0.451  10.540  -0.915  0.00  0.00     0.105 C 
BRANCH  14  15
HETATM   15  C   UNK N   1      -0.662  10.747   0.087  0.00  0.00     0.132 C 
BRANCH  15  16
HETATM   16  N   UNK N   1      -1.650   9.711  -0.052  0.00  0.00    -0.374 N 
HETATM   17  C   UNK N   1      -2.904   9.989  -0.096  0.00  0.00     0.106 C 
HETATM   18  C   UNK N   1      -3.897   8.890  -0.236  0.00  0.00     0.097 C 
ATOM     19  HN  UNK N   1      -1.350   8.738  -0.116  1.00  0.00     0.161 HD
BRANCH  17  20
HETATM   20  O   UNK N   1      -3.331  11.265  -0.007  0.00  0.00    -0.350 OA
HETATM   21  H   UNK N   1      -2.711  11.966   0.056  0.00  0.00     0.219 HD
ENDBRANCH  17  20
ENDBRANCH  15  16
ENDBRANCH  14  15
ENDBRANCH  13  14
ENDBRANCH  12  13
ENDBRANCH  11  12
ENDBRANCH  10  11
ENDBRANCH   8  10
BRANCH   7  22
HETATM   22  O   UNK N   1       6.151   6.301   0.339  0.00  0.00    -0.349 OA
HETATM   23  H   UNK N   1       5.261   6.059   0.503  0.00  0.00     0.219 HD
ENDBRANCH   7  22
ENDBRANCH   5   7
BRANCH   6  24
HETATM   24  N   UNK N   1      10.593  11.039  -0.456  0.00  0.00    -0.364 N 
HETATM   25  C   UNK N   1      10.165  12.217  -0.103  0.00  0.00     0.166 C 
ATOM     26  HN  UNK N   1      11.606  10.923  -0.485  1.00  0.00     0.162 HD
BRANCH  25  27
HETATM   27  C   UNK N   1      11.156  13.322   0.063  0.00  0.00     0.117 A 
HETATM   28  C   UNK N   1      10.879  14.739   0.157  0.00  0.00     0.137 A 
HETATM   29  N   UNK N   1      11.943  15.586   0.254  0.00  0.00    -0.357 N 
HETATM   30  C   UNK N   1      13.228  15.159   0.270  0.00  0.00     0.105 A 
ATOM     31  HN  UNK N   1      11.763  16.588   0.318  1.00  0.00     0.165 HD
HETATM   32  C   UNK N   1      13.493  13.806   0.177  0.00  0.00     0.105 A 
HETATM   33  N   UNK N   1      12.467  12.933   0.072  0.00  0.00    -0.359 N 
ATOM     34  HN  UNK N   1      12.680  11.938  -0.005  1.00  0.00     0.165 HD
BRANCH  28  35
HETATM   35  C   UNK N   1       9.538  15.420   0.115  0.00  0.00     0.196 C 
HETATM   36  O   UNK N   1       9.506  16.641   0.138  0.00  0.00    -0.645 OA
BRANCH  35  37
HETATM   37  O   UNK N   1       8.374  14.765   0.041  0.00  0.00    -0.772 OA
HETATM   38  H   UNK N   1       7.569  15.242  -0.011  0.00  0.00     0.167 HD
ENDBRANCH  35  37
ENDBRANCH  28  35
ENDBRANCH  25  27
BRANCH  25  39
HETATM   39  O   UNK N   1       8.852  12.442   0.063  0.00  0.00    -0.345 OA
HETATM   40  H   UNK N   1       8.530  13.314   0.179  0.00  0.00     0.219 HD
ENDBRANCH  25  39
ENDBRANCH   6  24
TORSDOF 15
