MODEL 1
REMARK VINA RESULT:      -7.4      0.000      0.000
REMARK  8 active torsions:
REMARK  status: ('A' for Active; 'I' for Inactive)
REMARK    1  A    between atoms: C_18  and  C_17 
REMARK    2  A    between atoms: O_31  and  C_17 
REMARK    3  A    between atoms: N_28  and  C_18 
REMARK    4  A    between atoms: C_26  and  C_19 
REMARK    5  A    between atoms: C_27  and  C_20 
REMARK    6  A    between atoms: O_29  and  C_21 
REMARK    7  A    between atoms: O_30  and  C_22 
REMARK    8  A    between atoms: O_31  and  C_23 
ROOT
HETATM    1  C   UNK N   1      20.552  19.014   3.230  0.00  0.00     0.039 A 
HETATM    2  C   UNK N   1      21.529  18.733   4.180  0.00  0.00     0.041 A 
HETATM    3  C   UNK N   1      19.551  16.847   3.627  0.00  0.00     0.057 A 
HETATM    4  C   UNK N   1      19.559  18.074   2.955  0.00  0.00     0.067 A 
HETATM    5  C   UNK N   1      21.530  17.511   4.862  0.00  0.00     0.086 A 
HETATM    6  C   UNK N   1      20.532  16.555   4.580  0.00  0.00     0.037 A 
HETATM    7  C   UNK N   1      22.696  16.175   6.546  0.00  0.00     0.180 C 
HETATM    8  C   UNK N   1      21.383  15.418   6.896  0.00  0.00     0.119 C 
HETATM    9  O   UNK N   1      22.508  17.296   5.761  0.00  0.00    -0.338 OA
HETATM   10  S   UNK N   1      20.513  14.933   5.362  0.00  0.00    -0.114 SA
ENDROOT
BRANCH   7  11
HETATM   11  C   UNK N   1      23.924  15.420   6.084  0.00  0.00    -0.027 C 
HETATM   12  C   UNK N   1      24.941  15.183   7.013  0.00  0.00     0.012 C 
HETATM   13  C   UNK N   1      26.265  15.129   6.624  0.00  0.00     0.037 C 
HETATM   14  C   UNK N   1      26.603  15.328   5.284  0.00  0.00     0.068 C 
HETATM   15  C   UNK N   1      25.600  15.435   4.320  0.00  0.00     0.037 C 
HETATM   16  C   UNK N   1      24.268  15.513   4.723  0.00  0.00     0.012 C 
BRANCH  14  17
HETATM   17  O   UNK N   1      27.879  15.563   4.933  0.00  0.00    -0.349 OA
BRANCH  17  18
HETATM   18  C   UNK N   1      28.215  16.726   4.265  0.00  0.00     0.211 C 
BRANCH  18  19
HETATM   19  C   UNK N   1      28.535  17.842   5.248  0.00  0.00     0.243 C 
HETATM   20  C   UNK N   1      29.383  17.228   6.348  0.00  0.00     0.045 C 
BRANCH  19  21
HETATM   21  N   UNK N   1      27.342  18.468   5.872  0.00  0.00     0.094 N 
HETATM   22  C   UNK N   1      27.762  19.639   6.638  0.00  0.00     0.273 C 
HETATM   23  C   UNK N   1      27.642  20.852   5.730  0.00  0.00     0.032 C 
HETATM   24  C   UNK N   1      26.746  20.419   4.595  0.00  0.00     0.032 C 
HETATM   25  C   UNK N   1      26.365  18.992   4.918  0.00  0.00     0.273 C 
ENDBRANCH  19  21
ENDBRANCH  18  19
ENDBRANCH  17  18
ENDBRANCH  14  17
ENDBRANCH   7  11
BRANCH   8  26
HETATM   26  C   UNK N   1      21.638  14.226   7.822  0.00  0.00    -0.041 A 
HETATM   27  C   UNK N   1      22.035  12.977   7.313  0.00  0.00     0.011 A 
HETATM   28  C   UNK N   1      22.370  11.927   8.173  0.00  0.00     0.037 A 
HETATM   29  C   UNK N   1      22.327  12.114   9.555  0.00  0.00     0.065 A 
HETATM   30  C   UNK N   1      21.916  13.342  10.080  0.00  0.00     0.037 A 
HETATM   31  C   UNK N   1      21.563  14.391   9.220  0.00  0.00     0.011 A 
BRANCH  29  32
HETATM   32  O   UNK N   1      22.682  11.115  10.379  0.00  0.00    -0.361 OA
HETATM   33  H   UNK N   1      22.686  11.245  11.307  0.00  0.00     0.217 HD
ENDBRANCH  29  32
ENDBRANCH   8  26
BRANCH   4  34
HETATM   34  O   UNK N   1      18.617  18.346   2.039  0.00  0.00    -0.361 OA
HETATM   35  H   UNK N   1      17.912  18.943   2.195  0.00  0.00     0.217 HD
ENDBRANCH   4  34
TORSDOF 8
ENDMDL
MODEL 2
REMARK VINA RESULT:      -7.3     14.028     15.762
REMARK  8 active torsions:
REMARK  status: ('A' for Active; 'I' for Inactive)
REMARK    1  A    between atoms: C_18  and  C_17 
REMARK    2  A    between atoms: O_31  and  C_17 
REMARK    3  A    between atoms: N_28  and  C_18 
REMARK    4  A    between atoms: C_26  and  C_19 
REMARK    5  A    between atoms: C_27  and  C_20 
REMARK    6  A    between atoms: O_29  and  C_21 
REMARK    7  A    between atoms: O_30  and  C_22 
REMARK    8  A    between atoms: O_31  and  C_23 
ROOT
HETATM    1  C   UNK N   1      25.147  22.436  -8.098  0.00  0.00     0.039 A 
HETATM    2  C   UNK N   1      25.798  22.846  -6.937  0.00  0.00     0.041 A 
HETATM    3  C   UNK N   1      27.218  21.487  -8.916  0.00  0.00     0.057 A 
HETATM    4  C   UNK N   1      25.854  21.753  -9.087  0.00  0.00     0.067 A 
HETATM    5  C   UNK N   1      27.160  22.583  -6.753  0.00  0.00     0.086 A 
HETATM    6  C   UNK N   1      27.880  21.899  -7.755  0.00  0.00     0.037 A 
HETATM    7  C   UNK N   1      29.049  22.860  -5.225  0.00  0.00     0.180 C 
HETATM    8  C   UNK N   1      29.734  21.584  -5.795  0.00  0.00     0.119 C 
HETATM    9  O   UNK N   1      27.733  23.014  -5.614  0.00  0.00    -0.338 OA
HETATM   10  S   UNK N   1      29.649  21.593  -7.621  0.00  0.00    -0.114 SA
ENDROOT
BRANCH   7  11
HETATM   11  C   UNK N   1      29.758  24.197  -5.256  0.00  0.00    -0.027 C 
HETATM   12  C   UNK N   1      30.217  24.728  -4.048  0.00  0.00     0.012 C 
HETATM   13  C   UNK N   1      30.258  26.092  -3.836  0.00  0.00     0.037 C 
HETATM   14  C   UNK N   1      29.820  26.962  -4.836  0.00  0.00     0.068 C 
HETATM   15  C   UNK N   1      29.482  26.464  -6.095  0.00  0.00     0.037 C 
HETATM   16  C   UNK N   1      29.420  25.086  -6.293  0.00  0.00     0.012 C 
BRANCH  14  17
HETATM   17  O   UNK N   1      29.583  28.255  -4.556  0.00  0.00    -0.349 OA
BRANCH  17  18
HETATM   18  C   UNK N   1      28.545  28.605  -3.712  0.00  0.00     0.211 C 
BRANCH  18  19
HETATM   19  C   UNK N   1      27.259  28.823  -4.495  0.00  0.00     0.243 C 
HETATM   20  C   UNK N   1      27.011  30.321  -4.522  0.00  0.00     0.045 C 
BRANCH  19  21
HETATM   21  N   UNK N   1      26.067  28.161  -3.908  0.00  0.00     0.094 N 
HETATM   22  C   UNK N   1      25.222  27.653  -4.987  0.00  0.00     0.273 C 
HETATM   23  C   UNK N   1      25.618  26.208  -5.242  0.00  0.00     0.032 C 
HETATM   24  C   UNK N   1      26.385  25.778  -4.016  0.00  0.00     0.032 C 
HETATM   25  C   UNK N   1      26.367  26.980  -3.099  0.00  0.00     0.273 C 
ENDBRANCH  19  21
ENDBRANCH  18  19
ENDBRANCH  17  18
ENDBRANCH  14  17
ENDBRANCH   7  11
BRANCH   8  26
HETATM   26  C   UNK N   1      31.166  21.424  -5.279  0.00  0.00    -0.041 A 
HETATM   27  C   UNK N   1      32.273  21.617  -6.126  0.00  0.00     0.011 A 
HETATM   28  C   UNK N   1      33.575  21.576  -5.620  0.00  0.00     0.037 A 
HETATM   29  C   UNK N   1      33.791  21.354  -4.259  0.00  0.00     0.065 A 
HETATM   30  C   UNK N   1      32.705  21.141  -3.407  0.00  0.00     0.037 A 
HETATM   31  C   UNK N   1      31.399  21.165  -3.914  0.00  0.00     0.011 A 
BRANCH  29  32
HETATM   32  O   UNK N   1      35.042  21.348  -3.770  0.00  0.00    -0.361 OA
HETATM   33  H   UNK N   1      35.402  20.566  -3.400  0.00  0.00     0.217 HD
ENDBRANCH  29  32
ENDBRANCH   8  26
BRANCH   4  34
HETATM   34  O   UNK N   1      25.226  21.358 -10.204  0.00  0.00    -0.361 OA
HETATM   35  H   UNK N   1      25.591  20.734 -10.801  0.00  0.00     0.217 HD
ENDBRANCH   4  34
TORSDOF 8
ENDMDL
MODEL 3
REMARK VINA RESULT:      -7.3      9.788     13.916
REMARK  8 active torsions:
REMARK  status: ('A' for Active; 'I' for Inactive)
REMARK    1  A    between atoms: C_18  and  C_17 
REMARK    2  A    between atoms: O_31  and  C_17 
REMARK    3  A    between atoms: N_28  and  C_18 
REMARK    4  A    between atoms: C_26  and  C_19 
REMARK    5  A    between atoms: C_27  and  C_20 
REMARK    6  A    between atoms: O_29  and  C_21 
REMARK    7  A    between atoms: O_30  and  C_22 
REMARK    8  A    between atoms: O_31  and  C_23 
ROOT
HETATM    1  C   UNK N   1      36.701  14.868  16.746  0.00  0.00     0.039 A 
HETATM    2  C   UNK N   1      36.983  14.652  15.400  0.00  0.00     0.041 A 
HETATM    3  C   UNK N   1      35.051  13.100  16.678  0.00  0.00     0.057 A 
HETATM    4  C   UNK N   1      35.738  14.091  17.388  0.00  0.00     0.067 A 
HETATM    5  C   UNK N   1      36.305  13.662  14.680  0.00  0.00     0.086 A 
HETATM    6  C   UNK N   1      35.325  12.879  15.324  0.00  0.00     0.037 A 
HETATM    7  C   UNK N   1      36.082  12.598  12.489  0.00  0.00     0.180 C 
HETATM    8  C   UNK N   1      35.598  11.275  13.149  0.00  0.00     0.119 C 
HETATM    9  O   UNK N   1      36.616  13.509  13.380  0.00  0.00    -0.338 OA
HETATM   10  S   UNK N   1      34.360  11.640  14.445  0.00  0.00    -0.114 SA
ENDROOT
BRANCH   7  11
HETATM   11  C   UNK N   1      35.221  13.314  11.470  0.00  0.00    -0.027 C 
HETATM   12  C   UNK N   1      35.308  12.913  10.135  0.00  0.00     0.012 C 
HETATM   13  C   UNK N   1      35.133  13.815   9.105  0.00  0.00     0.037 C 
HETATM   14  C   UNK N   1      34.879  15.158   9.394  0.00  0.00     0.068 C 
HETATM   15  C   UNK N   1      34.658  15.556  10.713  0.00  0.00     0.037 C 
HETATM   16  C   UNK N   1      34.860  14.645  11.748  0.00  0.00     0.012 C 
BRANCH  14  17
HETATM   17  O   UNK N   1      34.989  16.092   8.434  0.00  0.00    -0.349 OA
BRANCH  17  18
HETATM   18  C   UNK N   1      34.445  17.349   8.621  0.00  0.00     0.211 C 
BRANCH  18  19
HETATM   19  C   UNK N   1      33.274  17.578   7.678  0.00  0.00     0.243 C 
HETATM   20  C   UNK N   1      32.023  17.631   8.537  0.00  0.00     0.045 C 
BRANCH  19  21
HETATM   21  N   UNK N   1      33.096  16.516   6.657  0.00  0.00     0.094 N 
HETATM   22  C   UNK N   1      31.693  16.478   6.246  0.00  0.00     0.273 C 
HETATM   23  C   UNK N   1      31.547  17.365   5.021  0.00  0.00     0.032 C 
HETATM   24  C   UNK N   1      32.948  17.554   4.491  0.00  0.00     0.032 C 
HETATM   25  C   UNK N   1      33.829  16.743   5.412  0.00  0.00     0.273 C 
ENDBRANCH  19  21
ENDBRANCH  18  19
ENDBRANCH  17  18
ENDBRANCH  14  17
ENDBRANCH   7  11
BRANCH   8  26
HETATM   26  C   UNK N   1      35.079  10.274  12.113  0.00  0.00    -0.041 A 
HETATM   27  C   UNK N   1      33.701  10.087  11.904  0.00  0.00     0.011 A 
HETATM   28  C   UNK N   1      33.239   9.253  10.882  0.00  0.00     0.037 A 
HETATM   29  C   UNK N   1      34.148   8.603  10.045  0.00  0.00     0.065 A 
HETATM   30  C   UNK N   1      35.521   8.761  10.251  0.00  0.00     0.037 A 
HETATM   31  C   UNK N   1      35.986   9.584  11.285  0.00  0.00     0.011 A 
BRANCH  29  32
HETATM   32  O   UNK N   1      33.701   7.829   9.043  0.00  0.00    -0.361 OA
HETATM   33  H   UNK N   1      33.102   7.129   9.216  0.00  0.00     0.217 HD
ENDBRANCH  29  32
ENDBRANCH   8  26
BRANCH   4  34
HETATM   34  O   UNK N   1      35.467  14.300  18.685  0.00  0.00    -0.361 OA
HETATM   35  H   UNK N   1      34.717  14.779  18.978  0.00  0.00     0.217 HD
ENDBRANCH   4  34
TORSDOF 8
ENDMDL
MODEL 4
REMARK VINA RESULT:      -7.2      9.720     14.525
REMARK  8 active torsions:
REMARK  status: ('A' for Active; 'I' for Inactive)
REMARK    1  A    between atoms: C_18  and  C_17 
REMARK    2  A    between atoms: O_31  and  C_17 
REMARK    3  A    between atoms: N_28  and  C_18 
REMARK    4  A    between atoms: C_26  and  C_19 
REMARK    5  A    between atoms: C_27  and  C_20 
REMARK    6  A    between atoms: O_29  and  C_21 
REMARK    7  A    between atoms: O_30  and  C_22 
REMARK    8  A    between atoms: O_31  and  C_23 
ROOT
HETATM    1  C   UNK N   1      35.221  12.238  17.287  0.00  0.00     0.039 A 
HETATM    2  C   UNK N   1      35.678  13.222  16.415  0.00  0.00     0.041 A 
HETATM    3  C   UNK N   1      35.197  10.644  15.467  0.00  0.00     0.057 A 
HETATM    4  C   UNK N   1      34.984  10.947  16.816  0.00  0.00     0.067 A 
HETATM    5  C   UNK N   1      35.898  12.931  15.064  0.00  0.00     0.086 A 
HETATM    6  C   UNK N   1      35.651  11.628  14.583  0.00  0.00     0.037 A 
HETATM    7  C   UNK N   1      36.615  13.865  12.921  0.00  0.00     0.180 C 
HETATM    8  C   UNK N   1      37.096  12.465  12.440  0.00  0.00     0.119 C 
HETATM    9  O   UNK N   1      36.328  13.929  14.271  0.00  0.00    -0.338 OA
HETATM   10  S   UNK N   1      35.839  11.200  12.845  0.00  0.00    -0.114 SA
ENDROOT
BRANCH   7  11
HETATM   11  C   UNK N   1      35.577  14.638  12.135  0.00  0.00    -0.027 C 
HETATM   12  C   UNK N   1      34.630  13.915  11.405  0.00  0.00     0.012 C 
HETATM   13  C   UNK N   1      34.112  14.407  10.223  0.00  0.00     0.037 C 
HETATM   14  C   UNK N   1      34.547  15.642   9.736  0.00  0.00     0.068 C 
HETATM   15  C   UNK N   1      35.390  16.439  10.511  0.00  0.00     0.037 C 
HETATM   16  C   UNK N   1      35.927  15.925  11.690  0.00  0.00     0.012 C 
BRANCH  14  17
HETATM   17  O   UNK N   1      34.280  16.004   8.469  0.00  0.00    -0.349 OA
BRANCH  17  18
HETATM   18  C   UNK N   1      34.174  17.342   8.136  0.00  0.00     0.211 C 
BRANCH  18  19
HETATM   19  C   UNK N   1      32.920  17.598   7.314  0.00  0.00     0.243 C 
HETATM   20  C   UNK N   1      31.758  17.650   8.290  0.00  0.00     0.045 C 
BRANCH  19  21
HETATM   21  N   UNK N   1      32.632  16.554   6.299  0.00  0.00     0.094 N 
HETATM   22  C   UNK N   1      31.267  16.729   5.807  0.00  0.00     0.273 C 
HETATM   23  C   UNK N   1      31.333  17.599   4.563  0.00  0.00     0.032 C 
HETATM   24  C   UNK N   1      32.773  17.551   4.114  0.00  0.00     0.032 C 
HETATM   25  C   UNK N   1      33.461  16.632   5.097  0.00  0.00     0.273 C 
ENDBRANCH  19  21
ENDBRANCH  18  19
ENDBRANCH  17  18
ENDBRANCH  14  17
ENDBRANCH   7  11
BRANCH   8  26
HETATM   26  C   UNK N   1      37.464  12.465  10.954  0.00  0.00    -0.041 A 
HETATM   27  C   UNK N   1      36.843  11.588  10.047  0.00  0.00     0.011 A 
HETATM   28  C   UNK N   1      37.107  11.671   8.677  0.00  0.00     0.037 A 
HETATM   29  C   UNK N   1      37.986  12.640   8.191  0.00  0.00     0.065 A 
HETATM   30  C   UNK N   1      38.627  13.508   9.080  0.00  0.00     0.037 A 
HETATM   31  C   UNK N   1      38.377  13.416  10.455  0.00  0.00     0.011 A 
BRANCH  29  32
HETATM   32  O   UNK N   1      38.212  12.740   6.872  0.00  0.00    -0.361 OA
HETATM   33  H   UNK N   1      37.774  13.394   6.363  0.00  0.00     0.217 HD
ENDBRANCH  29  32
ENDBRANCH   8  26
BRANCH   4  34
HETATM   34  O   UNK N   1      34.545   9.999  17.658  0.00  0.00    -0.361 OA
HETATM   35  H   UNK N   1      34.934   9.148  17.715  0.00  0.00     0.217 HD
ENDBRANCH   4  34
TORSDOF 8
ENDMDL
MODEL 5
REMARK VINA RESULT:      -7.2      6.178     11.258
REMARK  8 active torsions:
REMARK  status: ('A' for Active; 'I' for Inactive)
REMARK    1  A    between atoms: C_18  and  C_17 
REMARK    2  A    between atoms: O_31  and  C_17 
REMARK    3  A    between atoms: N_28  and  C_18 
REMARK    4  A    between atoms: C_26  and  C_19 
REMARK    5  A    between atoms: C_27  and  C_20 
REMARK    6  A    between atoms: O_29  and  C_21 
REMARK    7  A    between atoms: O_30  and  C_22 
REMARK    8  A    between atoms: O_31  and  C_23 
ROOT
HETATM    1  C   UNK N   1      35.534  15.706  11.732  0.00  0.00     0.039 A 
HETATM    2  C   UNK N   1      35.546  16.358  10.502  0.00  0.00     0.041 A 
HETATM    3  C   UNK N   1      34.406  13.822  10.714  0.00  0.00     0.057 A 
HETATM    4  C   UNK N   1      34.968  14.436  11.839  0.00  0.00     0.067 A 
HETATM    5  C   UNK N   1      34.990  15.753   9.369  0.00  0.00     0.086 A 
HETATM    6  C   UNK N   1      34.410  14.472   9.476  0.00  0.00     0.037 A 
HETATM    7  C   UNK N   1      34.545  16.037   6.981  0.00  0.00     0.180 C 
HETATM    8  C   UNK N   1      34.570  14.496   6.765  0.00  0.00     0.119 C 
HETATM    9  O   UNK N   1      35.023  16.440   8.212  0.00  0.00    -0.338 OA
HETATM   10  S   UNK N   1      33.610  13.664   8.081  0.00  0.00    -0.114 SA
ENDROOT
BRANCH   7  11
HETATM   11  C   UNK N   1      33.323  16.850   6.609  0.00  0.00    -0.027 C 
HETATM   12  C   UNK N   1      32.131  16.599   7.294  0.00  0.00     0.012 C 
HETATM   13  C   UNK N   1      30.907  16.746   6.674  0.00  0.00     0.037 C 
HETATM   14  C   UNK N   1      30.850  17.138   5.335  0.00  0.00     0.068 C 
HETATM   15  C   UNK N   1      32.016  17.520   4.671  0.00  0.00     0.037 C 
HETATM   16  C   UNK N   1      33.250  17.346   5.295  0.00  0.00     0.012 C 
BRANCH  14  17
HETATM   17  O   UNK N   1      29.707  17.012   4.638  0.00  0.00    -0.349 OA
BRANCH  17  18
HETATM   18  C   UNK N   1      28.521  16.733   5.291  0.00  0.00     0.211 C 
BRANCH  18  19
HETATM   19  C   UNK N   1      27.410  17.656   4.814  0.00  0.00     0.243 C 
HETATM   20  C   UNK N   1      26.901  17.088   3.501  0.00  0.00     0.045 C 
BRANCH  19  21
HETATM   21  N   UNK N   1      27.838  19.058   4.583  0.00  0.00     0.094 N 
HETATM   22  C   UNK N   1      26.851  19.726   3.737  0.00  0.00     0.273 C 
HETATM   23  C   UNK N   1      25.854  20.420   4.650  0.00  0.00     0.032 C 
HETATM   24  C   UNK N   1      26.530  20.500   5.997  0.00  0.00     0.032 C 
HETATM   25  C   UNK N   1      27.893  19.882   5.790  0.00  0.00     0.273 C 
ENDBRANCH  19  21
ENDBRANCH  18  19
ENDBRANCH  17  18
ENDBRANCH  14  17
ENDBRANCH   7  11
BRANCH   8  26
HETATM   26  C   UNK N   1      34.094  14.106   5.362  0.00  0.00    -0.041 A 
HETATM   27  C   UNK N   1      32.782  13.653   5.136  0.00  0.00     0.011 A 
HETATM   28  C   UNK N   1      32.326  13.405   3.838  0.00  0.00     0.037 A 
HETATM   29  C   UNK N   1      33.170  13.617   2.747  0.00  0.00     0.065 A 
HETATM   30  C   UNK N   1      34.483  14.048   2.954  0.00  0.00     0.037 A 
HETATM   31  C   UNK N   1      34.948  14.282   4.255  0.00  0.00     0.011 A 
BRANCH  29  32
HETATM   32  O   UNK N   1      32.719  13.410   1.499  0.00  0.00    -0.361 OA
HETATM   33  H   UNK N   1      32.776  14.089   0.855  0.00  0.00     0.217 HD
ENDBRANCH  29  32
ENDBRANCH   8  26
BRANCH   4  34
HETATM   34  O   UNK N   1      34.958  13.808  13.025  0.00  0.00    -0.361 OA
HETATM   35  H   UNK N   1      34.168  13.591  13.480  0.00  0.00     0.217 HD
ENDBRANCH   4  34
TORSDOF 8
ENDMDL
MODEL 6
REMARK VINA RESULT:      -7.2      9.201     14.156
REMARK  8 active torsions:
REMARK  status: ('A' for Active; 'I' for Inactive)
REMARK    1  A    between atoms: C_18  and  C_17 
REMARK    2  A    between atoms: O_31  and  C_17 
REMARK    3  A    between atoms: N_28  and  C_18 
REMARK    4  A    between atoms: C_26  and  C_19 
REMARK    5  A    between atoms: C_27  and  C_20 
REMARK    6  A    between atoms: O_29  and  C_21 
REMARK    7  A    between atoms: O_30  and  C_22 
REMARK    8  A    between atoms: O_31  and  C_23 
ROOT
HETATM    1  C   UNK N   1      35.232  12.451  16.687  0.00  0.00     0.039 A 
HETATM    2  C   UNK N   1      35.633  13.500  15.865  0.00  0.00     0.041 A 
HETATM    3  C   UNK N   1      35.226  10.966  14.776  0.00  0.00     0.057 A 
HETATM    4  C   UNK N   1      35.031  11.182  16.145  0.00  0.00     0.067 A 
HETATM    5  C   UNK N   1      35.834  13.297  14.495  0.00  0.00     0.086 A 
HETATM    6  C   UNK N   1      35.624  12.016  13.943  0.00  0.00     0.037 A 
HETATM    7  C   UNK N   1      36.470  14.380  12.397  0.00  0.00     0.180 C 
HETATM    8  C   UNK N   1      36.991  13.030  11.825  0.00  0.00     0.119 C 
HETATM    9  O   UNK N   1      36.211  14.354  13.754  0.00  0.00    -0.338 OA
HETATM   10  S   UNK N   1      35.790  11.697  12.179  0.00  0.00    -0.114 SA
ENDROOT
BRANCH   7  11
HETATM   11  C   UNK N   1      35.388  15.158  11.679  0.00  0.00    -0.027 C 
HETATM   12  C   UNK N   1      34.245  14.469  11.266  0.00  0.00     0.012 C 
HETATM   13  C   UNK N   1      33.562  14.839  10.124  0.00  0.00     0.037 C 
HETATM   14  C   UNK N   1      34.024  15.910   9.355  0.00  0.00     0.068 C 
HETATM   15  C   UNK N   1      35.083  16.693   9.817  0.00  0.00     0.037 C 
HETATM   16  C   UNK N   1      35.782  16.299  10.957  0.00  0.00     0.012 C 
BRANCH  14  17
HETATM   17  O   UNK N   1      33.556  16.105   8.111  0.00  0.00    -0.349 OA
BRANCH  17  18
HETATM   18  C   UNK N   1      32.754  17.196   7.832  0.00  0.00     0.211 C 
BRANCH  18  19
HETATM   19  C   UNK N   1      31.282  16.830   7.944  0.00  0.00     0.243 C 
HETATM   20  C   UNK N   1      30.966  15.916   6.773  0.00  0.00     0.045 C 
BRANCH  19  21
HETATM   21  N   UNK N   1      30.358  17.991   7.894  0.00  0.00     0.094 N 
HETATM   22  C   UNK N   1      29.003  17.512   7.630  0.00  0.00     0.273 C 
HETATM   23  C   UNK N   1      28.315  17.313   8.970  0.00  0.00     0.032 C 
HETATM   24  C   UNK N   1      29.140  18.090   9.966  0.00  0.00     0.032 C 
HETATM   25  C   UNK N   1      30.241  18.727   9.152  0.00  0.00     0.273 C 
ENDBRANCH  19  21
ENDBRANCH  18  19
ENDBRANCH  17  18
ENDBRANCH  14  17
ENDBRANCH   7  11
BRANCH   8  26
HETATM   26  C   UNK N   1      37.327  13.130  10.335  0.00  0.00    -0.041 A 
HETATM   27  C   UNK N   1      38.450  13.848   9.886  0.00  0.00     0.011 A 
HETATM   28  C   UNK N   1      38.809  13.842   8.535  0.00  0.00     0.037 A 
HETATM   29  C   UNK N   1      38.059  13.108   7.615  0.00  0.00     0.065 A 
HETATM   30  C   UNK N   1      36.928  12.405   8.039  0.00  0.00     0.037 A 
HETATM   31  C   UNK N   1      36.556  12.423   9.390  0.00  0.00     0.011 A 
BRANCH  29  32
HETATM   32  O   UNK N   1      38.425  13.077   6.323  0.00  0.00    -0.361 OA
HETATM   33  H   UNK N   1      38.329  13.839   5.785  0.00  0.00     0.217 HD
ENDBRANCH  29  32
ENDBRANCH   8  26
BRANCH   4  34
HETATM   34  O   UNK N   1      34.645  10.170  16.938  0.00  0.00    -0.361 OA
HETATM   35  H   UNK N   1      33.772  10.087  17.269  0.00  0.00     0.217 HD
ENDBRANCH   4  34
TORSDOF 8
ENDMDL
MODEL 7
REMARK VINA RESULT:      -7.2      1.525      5.493
REMARK  8 active torsions:
REMARK  status: ('A' for Active; 'I' for Inactive)
REMARK    1  A    between atoms: C_18  and  C_17 
REMARK    2  A    between atoms: O_31  and  C_17 
REMARK    3  A    between atoms: N_28  and  C_18 
REMARK    4  A    between atoms: C_26  and  C_19 
REMARK    5  A    between atoms: C_27  and  C_20 
REMARK    6  A    between atoms: O_29  and  C_21 
REMARK    7  A    between atoms: O_30  and  C_22 
REMARK    8  A    between atoms: O_31  and  C_23 
ROOT
HETATM    1  C   UNK N   1      23.065  11.397  10.288  0.00  0.00     0.039 A 
HETATM    2  C   UNK N   1      23.487  11.619   8.980  0.00  0.00     0.041 A 
HETATM    3  C   UNK N   1      21.253  12.969   9.963  0.00  0.00     0.057 A 
HETATM    4  C   UNK N   1      21.946  12.068  10.780  0.00  0.00     0.067 A 
HETATM    5  C   UNK N   1      22.801  12.514   8.152  0.00  0.00     0.086 A 
HETATM    6  C   UNK N   1      21.673  13.201   8.650  0.00  0.00     0.037 A 
HETATM    7  C   UNK N   1      22.745  13.515   5.921  0.00  0.00     0.180 C 
HETATM    8  C   UNK N   1      21.208  13.734   6.027  0.00  0.00     0.119 C 
HETATM    9  O   UNK N   1      23.265  12.692   6.902  0.00  0.00    -0.338 OA
HETATM   10  S   UNK N   1      20.787  14.422   7.668  0.00  0.00    -0.114 SA
ENDROOT
BRANCH   7  11
HETATM   11  C   UNK N   1      23.678  14.681   5.676  0.00  0.00    -0.027 C 
HETATM   12  C   UNK N   1      24.058  14.955   4.360  0.00  0.00     0.012 C 
HETATM   13  C   UNK N   1      25.301  15.484   4.071  0.00  0.00     0.037 C 
HETATM   14  C   UNK N   1      26.204  15.738   5.106  0.00  0.00     0.068 C 
HETATM   15  C   UNK N   1      25.800  15.596   6.434  0.00  0.00     0.037 C 
HETATM   16  C   UNK N   1      24.554  15.040   6.716  0.00  0.00     0.012 C 
BRANCH  14  17
HETATM   17  O   UNK N   1      27.499  15.976   4.834  0.00  0.00    -0.349 OA
BRANCH  17  18
HETATM   18  C   UNK N   1      27.874  17.149   4.206  0.00  0.00     0.211 C 
BRANCH  18  19
HETATM   19  C   UNK N   1      28.321  18.189   5.222  0.00  0.00     0.243 C 
HETATM   20  C   UNK N   1      29.292  17.495   6.161  0.00  0.00     0.045 C 
BRANCH  19  21
HETATM   21  N   UNK N   1      27.218  18.766   6.030  0.00  0.00     0.094 N 
HETATM   22  C   UNK N   1      27.759  19.807   6.902  0.00  0.00     0.273 C 
HETATM   23  C   UNK N   1      27.618  21.135   6.177  0.00  0.00     0.032 C 
HETATM   24  C   UNK N   1      26.606  20.892   5.084  0.00  0.00     0.032 C 
HETATM   25  C   UNK N   1      26.188  19.449   5.250  0.00  0.00     0.273 C 
ENDBRANCH  19  21
ENDBRANCH  18  19
ENDBRANCH  17  18
ENDBRANCH  14  17
ENDBRANCH   7  11
BRANCH   8  26
HETATM   26  C   UNK N   1      20.672  14.595   4.880  0.00  0.00    -0.041 A 
HETATM   27  C   UNK N   1      20.313  15.939   5.082  0.00  0.00     0.011 A 
HETATM   28  C   UNK N   1      19.928  16.746   4.007  0.00  0.00     0.037 A 
HETATM   29  C   UNK N   1      19.909  16.224   2.712  0.00  0.00     0.065 A 
HETATM   30  C   UNK N   1      20.243  14.885   2.496  0.00  0.00     0.037 A 
HETATM   31  C   UNK N   1      20.613  14.070   3.573  0.00  0.00     0.011 A 
BRANCH  29  32
HETATM   32  O   UNK N   1      19.572  17.010   1.677  0.00  0.00    -0.361 OA
HETATM   33  H   UNK N   1      19.135  16.649   0.930  0.00  0.00     0.217 HD
ENDBRANCH  29  32
ENDBRANCH   8  26
BRANCH   4  34
HETATM   34  O   UNK N   1      21.539  11.853  12.041  0.00  0.00    -0.361 OA
HETATM   35  H   UNK N   1      21.154  12.522  12.573  0.00  0.00     0.217 HD
ENDBRANCH   4  34
TORSDOF 8
ENDMDL
MODEL 8
REMARK VINA RESULT:      -7.0      1.875      5.849
REMARK  8 active torsions:
REMARK  status: ('A' for Active; 'I' for Inactive)
REMARK    1  A    between atoms: C_18  and  C_17 
REMARK    2  A    between atoms: O_31  and  C_17 
REMARK    3  A    between atoms: N_28  and  C_18 
REMARK    4  A    between atoms: C_26  and  C_19 
REMARK    5  A    between atoms: C_27  and  C_20 
REMARK    6  A    between atoms: O_29  and  C_21 
REMARK    7  A    between atoms: O_30  and  C_22 
REMARK    8  A    between atoms: O_31  and  C_23 
ROOT
HETATM    1  C   UNK N   1      22.999  11.566   9.932  0.00  0.00     0.039 A 
HETATM    2  C   UNK N   1      23.532  11.952   8.705  0.00  0.00     0.041 A 
HETATM    3  C   UNK N   1      21.430  13.405   9.821  0.00  0.00     0.057 A 
HETATM    4  C   UNK N   1      21.945  12.289  10.490  0.00  0.00     0.067 A 
HETATM    5  C   UNK N   1      23.023  13.063   8.025  0.00  0.00     0.086 A 
HETATM    6  C   UNK N   1      21.963  13.802   8.590  0.00  0.00     0.037 A 
HETATM    7  C   UNK N   1      23.245  14.435   6.012  0.00  0.00     0.180 C 
HETATM    8  C   UNK N   1      21.745  14.842   6.090  0.00  0.00     0.119 C 
HETATM    9  O   UNK N   1      23.589  13.390   6.849  0.00  0.00    -0.338 OA
HETATM   10  S   UNK N   1      21.308  15.286   7.810  0.00  0.00    -0.114 SA
ENDROOT
BRANCH   7  11
HETATM   11  C   UNK N   1      24.334  15.486   6.022  0.00  0.00    -0.027 C 
HETATM   12  C   UNK N   1      24.577  16.195   4.843  0.00  0.00     0.012 C 
HETATM   13  C   UNK N   1      25.844  16.641   4.526  0.00  0.00     0.037 C 
HETATM   14  C   UNK N   1      26.911  16.370   5.387  0.00  0.00     0.068 C 
HETATM   15  C   UNK N   1      26.671  15.781   6.628  0.00  0.00     0.037 C 
HETATM   16  C   UNK N   1      25.394  15.312   6.931  0.00  0.00     0.012 C 
BRANCH  14  17
HETATM   17  O   UNK N   1      28.178  16.538   4.972  0.00  0.00    -0.349 OA
BRANCH  17  18
HETATM   18  C   UNK N   1      28.944  17.572   5.476  0.00  0.00     0.211 C 
BRANCH  18  19
HETATM   19  C   UNK N   1      30.309  17.068   5.921  0.00  0.00     0.243 C 
HETATM   20  C   UNK N   1      30.685  15.933   4.984  0.00  0.00     0.045 C 
BRANCH  19  21
HETATM   21  N   UNK N   1      30.346  16.556   7.314  0.00  0.00     0.094 N 
HETATM   22  C   UNK N   1      31.737  16.479   7.758  0.00  0.00     0.273 C 
HETATM   23  C   UNK N   1      32.067  17.780   8.469  0.00  0.00     0.032 C 
HETATM   24  C   UNK N   1      30.735  18.408   8.800  0.00  0.00     0.032 C 
HETATM   25  C   UNK N   1      29.702  17.426   8.297  0.00  0.00     0.273 C 
ENDBRANCH  19  21
ENDBRANCH  18  19
ENDBRANCH  17  18
ENDBRANCH  14  17
ENDBRANCH   7  11
BRANCH   8  26
HETATM   26  C   UNK N   1      21.401  15.955   5.097  0.00  0.00    -0.041 A 
HETATM   27  C   UNK N   1      21.288  17.294   5.510  0.00  0.00     0.011 A 
HETATM   28  C   UNK N   1      21.082  18.315   4.578  0.00  0.00     0.037 A 
HETATM   29  C   UNK N   1      20.999  18.015   3.218  0.00  0.00     0.065 A 
HETATM   30  C   UNK N   1      21.089  16.687   2.790  0.00  0.00     0.037 A 
HETATM   31  C   UNK N   1      21.279  15.660   3.724  0.00  0.00     0.011 A 
BRANCH  29  32
HETATM   32  O   UNK N   1      20.834  19.001   2.321  0.00  0.00    -0.361 OA
HETATM   33  H   UNK N   1      20.898  19.898   2.586  0.00  0.00     0.217 HD
ENDBRANCH  29  32
ENDBRANCH   8  26
BRANCH   4  34
HETATM   34  O   UNK N   1      21.431  11.917  11.672  0.00  0.00    -0.361 OA
HETATM   35  H   UNK N   1      20.664  11.385  11.750  0.00  0.00     0.217 HD
ENDBRANCH   4  34
TORSDOF 8
ENDMDL
MODEL 9
REMARK VINA RESULT:      -6.9      2.027      3.044
REMARK  8 active torsions:
REMARK  status: ('A' for Active; 'I' for Inactive)
REMARK    1  A    between atoms: C_18  and  C_17 
REMARK    2  A    between atoms: O_31  and  C_17 
REMARK    3  A    between atoms: N_28  and  C_18 
REMARK    4  A    between atoms: C_26  and  C_19 
REMARK    5  A    between atoms: C_27  and  C_20 
REMARK    6  A    between atoms: O_29  and  C_21 
REMARK    7  A    between atoms: O_30  and  C_22 
REMARK    8  A    between atoms: O_31  and  C_23 
ROOT
HETATM    1  C   UNK N   1      22.083  20.844   1.963  0.00  0.00     0.039 A 
HETATM    2  C   UNK N   1      22.793  20.303   3.031  0.00  0.00     0.041 A 
HETATM    3  C   UNK N   1      20.498  19.021   2.100  0.00  0.00     0.057 A 
HETATM    4  C   UNK N   1      20.933  20.207   1.498  0.00  0.00     0.067 A 
HETATM    5  C   UNK N   1      22.367  19.119   3.643  0.00  0.00     0.086 A 
HETATM    6  C   UNK N   1      21.208  18.468   3.170  0.00  0.00     0.037 A 
HETATM    7  C   UNK N   1      22.865  17.504   5.411  0.00  0.00     0.180 C 
HETATM    8  C   UNK N   1      21.360  17.123   5.526  0.00  0.00     0.119 C 
HETATM    9  O   UNK N   1      23.102  18.642   4.664  0.00  0.00    -0.338 OA
HETATM   10  S   UNK N   1      20.642  16.903   3.858  0.00  0.00    -0.114 SA
ENDROOT
BRANCH   7  11
HETATM   11  C   UNK N   1      23.907  16.452   5.096  0.00  0.00    -0.027 C 
HETATM   12  C   UNK N   1      24.633  15.906   6.157  0.00  0.00     0.012 C 
HETATM   13  C   UNK N   1      25.942  15.497   5.991  0.00  0.00     0.037 C 
HETATM   14  C   UNK N   1      26.561  15.641   4.748  0.00  0.00     0.068 C 
HETATM   15  C   UNK N   1      25.818  16.060   3.644  0.00  0.00     0.037 C 
HETATM   16  C   UNK N   1      24.506  16.494   3.824  0.00  0.00     0.012 C 
BRANCH  14  17
HETATM   17  O   UNK N   1      27.896  15.521   4.636  0.00  0.00    -0.349 OA
BRANCH  17  18
HETATM   18  C   UNK N   1      28.704  15.678   5.746  0.00  0.00     0.211 C 
BRANCH  18  19
HETATM   19  C   UNK N   1      29.766  16.738   5.497  0.00  0.00     0.243 C 
HETATM   20  C   UNK N   1      29.033  18.014   5.119  0.00  0.00     0.045 C 
BRANCH  19  21
HETATM   21  N   UNK N   1      30.718  16.405   4.407  0.00  0.00     0.094 N 
HETATM   22  C   UNK N   1      31.545  17.576   4.120  0.00  0.00     0.273 C 
HETATM   23  C   UNK N   1      32.811  17.461   4.953  0.00  0.00     0.032 C 
HETATM   24  C   UNK N   1      32.885  16.014   5.376  0.00  0.00     0.032 C 
HETATM   25  C   UNK N   1      31.681  15.357   4.743  0.00  0.00     0.273 C 
ENDBRANCH  19  21
ENDBRANCH  18  19
ENDBRANCH  17  18
ENDBRANCH  14  17
ENDBRANCH   7  11
BRANCH   8  26
HETATM   26  C   UNK N   1      21.146  15.898   6.418  0.00  0.00    -0.041 A 
HETATM   27  C   UNK N   1      21.076  14.602   5.875  0.00  0.00     0.011 A 
HETATM   28  C   UNK N   1      20.990  13.482   6.707  0.00  0.00     0.037 A 
HETATM   29  C   UNK N   1      20.986  13.639   8.094  0.00  0.00     0.065 A 
HETATM   30  C   UNK N   1      21.035  14.920   8.650  0.00  0.00     0.037 A 
HETATM   31  C   UNK N   1      21.104  16.045   7.819  0.00  0.00     0.011 A 
BRANCH  29  32
HETATM   32  O   UNK N   1      20.937  12.560   8.891  0.00  0.00    -0.361 OA
HETATM   33  H   UNK N   1      21.370  12.564   9.723  0.00  0.00     0.217 HD
ENDBRANCH  29  32
ENDBRANCH   8  26
BRANCH   4  34
HETATM   34  O   UNK N   1      20.250  20.730   0.469  0.00  0.00    -0.361 OA
HETATM   35  H   UNK N   1      19.365  20.492   0.271  0.00  0.00     0.217 HD
ENDBRANCH   4  34
TORSDOF 8
ENDMDL
