REMARK  3 active torsions:
REMARK  status: ('A' for Active; 'I' for Inactive)
REMARK    1  A    between atoms: C_2  and  Se_3 
REMARK    2  A    between atoms: Se_3  and  C_4 
REMARK    3  A    between atoms: C_4  and  N_5 
ROOT
HETATM    1  C   UNK N   1       0.790  -0.715   0.000  0.00  0.00     0.136 C 
HETATM    2  N   UNK N   1      -0.439  -0.352  -0.000  0.00  0.00    -0.383 N 
ATOM      3  HN  UNK N   1      -1.179  -1.055  -0.000  1.00  0.00     0.157 HD
HETATM    4  H   UNK N   1      -0.670   0.605  -0.000  0.00  0.00     0.157 HD
ENDROOT
BRANCH   1   5
HETATM    5 Se   UNK N   1       2.213   0.590   0.000  0.00  0.00     0.000 Se
BRANCH   5   6
HETATM    6  C   UNK N   1       1.045   2.149  -0.000  0.00  0.00    -0.005 C 
HETATM    7  C   UNK N   1       1.896   3.403   0.000  0.00  0.00     0.005 C 
ENDBRANCH   5   6
ENDBRANCH   1   5
BRANCH   1   8
HETATM    8  N   UNK N   1       1.113  -2.089   0.000  0.00  0.00    -0.383 N 
HETATM    9  H   UNK N   1       0.396  -2.763  -0.000  0.00  0.00     0.157 HD
HETATM   10  H   UNK N   1       2.055  -2.373   0.000  0.00  0.00     0.157 HD
ENDBRANCH   1   8
TORSDOF 3
