MODEL 1
REMARK VINA RESULT:      -6.0      0.000      0.000
REMARK  4 active torsions:
REMARK  status: ('A' for Active; 'I' for Inactive)
REMARK    1  A    between atoms: C_2  and  C_13 
REMARK    2  A    between atoms: C_6  and  N_7 
REMARK    3  A    between atoms: C_8  and  O_9 
REMARK    4  A    between atoms: C_13  and  O_14 
ROOT
HETATM    1  N   UNK N   1      33.862  16.896   6.832  0.00  0.00    -0.417 N 
HETATM    2  C   UNK N   1      33.645  17.715   8.006  0.00  0.00     0.177 A 
HETATM    3  C   UNK N   1      32.250  18.086   8.547  0.00  0.00     0.077 A 
HETATM    4  C   UNK N   1      30.883  17.704   8.005  0.00  0.00    -0.020 A 
HETATM    5  C   UNK N   1      29.800  18.211   8.738  0.00  0.00     0.041 A 
HETATM    6  C   UNK N   1      28.480  17.945   8.364  0.00  0.00     0.060 A 
HETATM    7  C   UNK N   1      28.224  17.159   7.239  0.00  0.00     0.094 A 
HETATM    8  C   UNK N   1      29.282  16.647   6.498  0.00  0.00     0.076 A 
HETATM    9  C   UNK N   1      30.605  16.906   6.863  0.00  0.00     0.074 A 
HETATM   10  O   UNK N   1      31.566  16.379   6.102  0.00  0.00    -0.360 OA
HETATM   11  H   UNK N   1      34.812  16.685   6.526  0.00  0.00     0.150 HD
HETATM   12  H   UNK N   1      33.065  16.530   6.311  0.00  0.00     0.150 HD
HETATM   13  H   UNK N   1      32.466  16.530   6.314  0.00  0.00     0.217 HD
ENDROOT
BRANCH   2  14
HETATM   14  C   UNK N   1      34.879  18.200   8.696  0.00  0.00     0.163 C 
HETATM   15  O   UNK N   1      35.447  19.208   8.306  0.00  0.00    -0.648 OA
BRANCH  14  16
HETATM   16  O   UNK N   1      35.369  17.524   9.751  0.00  0.00    -0.775 OA
HETATM   17  H   UNK N   1      36.239  17.696  10.056  0.00  0.00     0.167 HD
ENDBRANCH  14  16
ENDBRANCH   2  14
BRANCH   6  18
HETATM   18  N   UNK N   1      27.418  18.472   9.125  0.00  0.00    -0.397 N 
HETATM   19  H   UNK N   1      27.263  18.150  10.042  0.00  0.00     0.156 HD
HETATM   20  H   UNK N   1      26.832  19.163   8.741  0.00  0.00     0.156 HD
ENDBRANCH   6  18
BRANCH   7  21
HETATM   21  O   UNK N   1      26.961  16.894   6.864  0.00  0.00    -0.358 OA
HETATM   22  H   UNK N   1      26.740  16.048   6.526  0.00  0.00     0.217 HD
ENDBRANCH   7  21
TORSDOF 4
ENDMDL
MODEL 2
REMARK VINA RESULT:      -5.9      7.387      9.686
REMARK  4 active torsions:
REMARK  status: ('A' for Active; 'I' for Inactive)
REMARK    1  A    between atoms: C_2  and  C_13 
REMARK    2  A    between atoms: C_6  and  N_7 
REMARK    3  A    between atoms: C_8  and  O_9 
REMARK    4  A    between atoms: C_13  and  O_14 
ROOT
HETATM    1  N   UNK N   1      25.032  18.797   5.426  0.00  0.00    -0.417 N 
HETATM    2  C   UNK N   1      25.342  19.789   4.418  0.00  0.00     0.177 A 
HETATM    3  C   UNK N   1      24.327  20.302   3.379  0.00  0.00     0.077 A 
HETATM    4  C   UNK N   1      22.872  19.907   3.189  0.00  0.00    -0.020 A 
HETATM    5  C   UNK N   1      22.218  20.566   2.138  0.00  0.00     0.041 A 
HETATM    6  C   UNK N   1      20.877  20.310   1.839  0.00  0.00     0.060 A 
HETATM    7  C   UNK N   1      20.165  19.378   2.598  0.00  0.00     0.094 A 
HETATM    8  C   UNK N   1      20.793  18.713   3.643  0.00  0.00     0.076 A 
HETATM    9  C   UNK N   1      22.133  18.962   3.951  0.00  0.00     0.074 A 
HETATM   10  O   UNK N   1      22.666  18.284   4.969  0.00  0.00    -0.360 OA
HETATM   11  H   UNK N   1      25.750  18.500   6.088  0.00  0.00     0.150 HD
HETATM   12  H   UNK N   1      24.096  18.395   5.475  0.00  0.00     0.150 HD
HETATM   13  H   UNK N   1      23.562  18.423   5.206  0.00  0.00     0.217 HD
ENDROOT
BRANCH   2  14
HETATM   14  C   UNK N   1      26.741  20.314   4.435  0.00  0.00     0.163 C 
HETATM   15  O   UNK N   1      27.064  21.181   5.232  0.00  0.00    -0.648 OA
BRANCH  14  16
HETATM   16  O   UNK N   1      27.651  19.833   3.568  0.00  0.00    -0.775 OA
HETATM   17  H   UNK N   1      27.371  19.362   2.807  0.00  0.00     0.167 HD
ENDBRANCH  14  16
ENDBRANCH   2  14
BRANCH   6  18
HETATM   18  N   UNK N   1      20.255  20.993   0.776  0.00  0.00    -0.397 N 
HETATM   19  H   UNK N   1      20.784  21.586   0.195  0.00  0.00     0.156 HD
HETATM   20  H   UNK N   1      19.291  20.877   0.614  0.00  0.00     0.156 HD
ENDBRANCH   6  18
BRANCH   7  21
HETATM   21  O   UNK N   1      18.875  19.118   2.325  0.00  0.00    -0.358 OA
HETATM   22  H   UNK N   1      18.270  19.824   2.205  0.00  0.00     0.217 HD
ENDBRANCH   7  21
TORSDOF 4
ENDMDL
MODEL 3
REMARK VINA RESULT:      -5.8     10.332     11.940
REMARK  4 active torsions:
REMARK  status: ('A' for Active; 'I' for Inactive)
REMARK    1  A    between atoms: C_2  and  C_13 
REMARK    2  A    between atoms: C_6  and  N_7 
REMARK    3  A    between atoms: C_8  and  O_9 
REMARK    4  A    between atoms: C_13  and  O_14 
ROOT
HETATM    1  N   UNK N   1      36.204  11.482  14.172  0.00  0.00    -0.417 N 
HETATM    2  C   UNK N   1      35.789  12.838  14.465  0.00  0.00     0.177 A 
HETATM    3  C   UNK N   1      35.430  13.339  15.877  0.00  0.00     0.077 A 
HETATM    4  C   UNK N   1      35.430  12.574  17.190  0.00  0.00    -0.020 A 
HETATM    5  C   UNK N   1      35.048  13.329  18.308  0.00  0.00     0.041 A 
HETATM    6  C   UNK N   1      34.999  12.765  19.586  0.00  0.00     0.060 A 
HETATM    7  C   UNK N   1      35.336  11.421  19.763  0.00  0.00     0.094 A 
HETATM    8  C   UNK N   1      35.717  10.654  18.669  0.00  0.00     0.076 A 
HETATM    9  C   UNK N   1      35.770  11.208  17.388  0.00  0.00     0.074 A 
HETATM   10  O   UNK N   1      36.145  10.408  16.388  0.00  0.00    -0.360 OA
HETATM   11  H   UNK N   1      36.430  11.214  13.213  0.00  0.00     0.150 HD
HETATM   12  H   UNK N   1      36.272  10.796  14.923  0.00  0.00     0.150 HD
HETATM   13  H   UNK N   1      36.193  10.743  15.514  0.00  0.00     0.217 HD
ENDROOT
BRANCH   2  14
HETATM   14  C   UNK N   1      35.724  13.764  13.294  0.00  0.00     0.163 C 
HETATM   15  O   UNK N   1      34.710  13.830  12.616  0.00  0.00    -0.648 OA
BRANCH  14  16
HETATM   16  O   UNK N   1      36.786  14.529  12.981  0.00  0.00    -0.775 OA
HETATM   17  H   UNK N   1      37.134  14.515  12.111  0.00  0.00     0.167 HD
ENDBRANCH  14  16
ENDBRANCH   2  14
BRANCH   6  18
HETATM   18  N   UNK N   1      34.610  13.556  20.685  0.00  0.00    -0.397 N 
HETATM   19  H   UNK N   1      34.792  14.523  20.684  0.00  0.00     0.156 HD
HETATM   20  H   UNK N   1      34.156  13.141  21.454  0.00  0.00     0.156 HD
ENDBRANCH   6  18
BRANCH   7  21
HETATM   21  O   UNK N   1      35.294  10.862  20.984  0.00  0.00    -0.358 OA
HETATM   22  H   UNK N   1      35.557   9.970  21.101  0.00  0.00     0.217 HD
ENDBRANCH   7  21
TORSDOF 4
ENDMDL
MODEL 4
REMARK VINA RESULT:      -5.8      2.505      3.575
REMARK  4 active torsions:
REMARK  status: ('A' for Active; 'I' for Inactive)
REMARK    1  A    between atoms: C_2  and  C_13 
REMARK    2  A    between atoms: C_6  and  N_7 
REMARK    3  A    between atoms: C_8  and  O_9 
REMARK    4  A    between atoms: C_13  and  O_14 
ROOT
HETATM    1  N   UNK N   1      32.564  17.165   9.111  0.00  0.00    -0.417 N 
HETATM    2  C   UNK N   1      33.589  17.673   8.223  0.00  0.00     0.177 A 
HETATM    3  C   UNK N   1      33.462  17.691   6.688  0.00  0.00     0.077 A 
HETATM    4  C   UNK N   1      32.311  17.210   5.819  0.00  0.00    -0.020 A 
HETATM    5  C   UNK N   1      32.512  17.368   4.441  0.00  0.00     0.041 A 
HETATM    6  C   UNK N   1      31.544  16.973   3.513  0.00  0.00     0.060 A 
HETATM    7  C   UNK N   1      30.347  16.408   3.960  0.00  0.00     0.094 A 
HETATM    8  C   UNK N   1      30.127  16.242   5.322  0.00  0.00     0.076 A 
HETATM    9  C   UNK N   1      31.088  16.633   6.257  0.00  0.00     0.074 A 
HETATM   10  O   UNK N   1      30.804  16.441   7.547  0.00  0.00    -0.360 OA
HETATM   11  H   UNK N   1      32.710  17.183  10.121  0.00  0.00     0.150 HD
HETATM   12  H   UNK N   1      31.697  16.789   8.728  0.00  0.00     0.150 HD
HETATM   13  H   UNK N   1      31.423  16.690   8.204  0.00  0.00     0.217 HD
ENDROOT
BRANCH   2  14
HETATM   14  C   UNK N   1      34.819  18.201   8.888  0.00  0.00     0.163 C 
HETATM   15  O   UNK N   1      35.328  19.242   8.504  0.00  0.00    -0.648 OA
BRANCH  14  16
HETATM   16  O   UNK N   1      35.372  17.527   9.913  0.00  0.00    -0.775 OA
HETATM   17  H   UNK N   1      34.825  17.143  10.571  0.00  0.00     0.167 HD
ENDBRANCH  14  16
ENDBRANCH   2  14
BRANCH   6  18
HETATM   18  N   UNK N   1      31.782  17.148   2.136  0.00  0.00    -0.397 N 
HETATM   19  H   UNK N   1      31.302  16.594   1.480  0.00  0.00     0.156 HD
HETATM   20  H   UNK N   1      32.428  17.825   1.830  0.00  0.00     0.156 HD
ENDBRANCH   6  18
BRANCH   7  21
HETATM   21  O   UNK N   1      29.405  16.022   3.083  0.00  0.00    -0.358 OA
HETATM   22  H   UNK N   1      29.629  15.884   2.184  0.00  0.00     0.217 HD
ENDBRANCH   7  21
TORSDOF 4
ENDMDL
MODEL 5
REMARK VINA RESULT:      -5.7      4.203      7.357
REMARK  4 active torsions:
REMARK  status: ('A' for Active; 'I' for Inactive)
REMARK    1  A    between atoms: C_2  and  C_13 
REMARK    2  A    between atoms: C_6  and  N_7 
REMARK    3  A    between atoms: C_8  and  O_9 
REMARK    4  A    between atoms: C_13  and  O_14 
ROOT
HETATM    1  N   UNK N   1      32.474  16.397   9.314  0.00  0.00    -0.417 N 
HETATM    2  C   UNK N   1      33.597  16.464   8.402  0.00  0.00     0.177 A 
HETATM    3  C   UNK N   1      34.969  15.821   8.682  0.00  0.00     0.077 A 
HETATM    4  C   UNK N   1      35.422  15.028   9.896  0.00  0.00    -0.020 A 
HETATM    5  C   UNK N   1      36.749  14.577   9.839  0.00  0.00     0.041 A 
HETATM    6  C   UNK N   1      37.311  13.834  10.881  0.00  0.00     0.060 A 
HETATM    7  C   UNK N   1      36.542  13.531  12.007  0.00  0.00     0.094 A 
HETATM    8  C   UNK N   1      35.226  13.968  12.085  0.00  0.00     0.076 A 
HETATM    9  C   UNK N   1      34.654  14.710  11.049  0.00  0.00     0.074 A 
HETATM   10  O   UNK N   1      33.385  15.094  11.196  0.00  0.00    -0.360 OA
HETATM   11  H   UNK N   1      31.590  16.844   9.069  0.00  0.00     0.150 HD
HETATM   12  H   UNK N   1      32.567  15.905  10.202  0.00  0.00     0.150 HD
HETATM   13  H   UNK N   1      32.966  15.594  10.523  0.00  0.00     0.217 HD
ENDROOT
BRANCH   2  14
HETATM   14  C   UNK N   1      33.354  17.209   7.129  0.00  0.00     0.163 C 
HETATM   15  O   UNK N   1      32.250  17.195   6.608  0.00  0.00    -0.648 OA
BRANCH  14  16
HETATM   16  O   UNK N   1      34.356  17.898   6.551  0.00  0.00    -0.775 OA
HETATM   17  H   UNK N   1      35.012  17.446   6.057  0.00  0.00     0.167 HD
ENDBRANCH  14  16
ENDBRANCH   2  14
BRANCH   6  18
HETATM   18  N   UNK N   1      38.647  13.398  10.788  0.00  0.00    -0.397 N 
HETATM   19  H   UNK N   1      38.869  12.606  10.247  0.00  0.00     0.156 HD
HETATM   20  H   UNK N   1      39.358  13.886  11.263  0.00  0.00     0.156 HD
ENDBRANCH   6  18
BRANCH   7  21
HETATM   21  O   UNK N   1      37.066  12.817  13.019  0.00  0.00    -0.358 OA
HETATM   22  H   UNK N   1      36.935  11.890  13.057  0.00  0.00     0.217 HD
ENDBRANCH   7  21
TORSDOF 4
ENDMDL
MODEL 6
REMARK VINA RESULT:      -5.6      2.374      5.734
REMARK  4 active torsions:
REMARK  status: ('A' for Active; 'I' for Inactive)
REMARK    1  A    between atoms: C_2  and  C_13 
REMARK    2  A    between atoms: C_6  and  N_7 
REMARK    3  A    between atoms: C_8  and  O_9 
REMARK    4  A    between atoms: C_13  and  O_14 
ROOT
HETATM    1  N   UNK N   1      30.408  18.241   9.674  0.00  0.00    -0.417 N 
HETATM    2  C   UNK N   1      29.705  18.127   8.413  0.00  0.00     0.177 A 
HETATM    3  C   UNK N   1      30.349  17.591   7.119  0.00  0.00     0.077 A 
HETATM    4  C   UNK N   1      31.767  17.098   6.891  0.00  0.00    -0.020 A 
HETATM    5  C   UNK N   1      32.037  16.674   5.582  0.00  0.00     0.041 A 
HETATM    6  C   UNK N   1      33.298  16.194   5.216  0.00  0.00     0.060 A 
HETATM    7  C   UNK N   1      34.317  16.132   6.169  0.00  0.00     0.094 A 
HETATM    8  C   UNK N   1      34.072  16.547   7.472  0.00  0.00     0.076 A 
HETATM    9  C   UNK N   1      32.816  17.029   7.848  0.00  0.00     0.074 A 
HETATM   10  O   UNK N   1      32.658  17.409   9.117  0.00  0.00    -0.360 OA
HETATM   11  H   UNK N   1      29.923  18.602  10.496  0.00  0.00     0.150 HD
HETATM   12  H   UNK N   1      31.386  17.960   9.741  0.00  0.00     0.150 HD
HETATM   13  H   UNK N   1      31.830  17.737   9.408  0.00  0.00     0.217 HD
ENDROOT
BRANCH   2  14
HETATM   14  C   UNK N   1      28.277  18.564   8.424  0.00  0.00     0.163 C 
HETATM   15  O   UNK N   1      27.866  19.349   7.583  0.00  0.00    -0.648 OA
BRANCH  14  16
HETATM   16  O   UNK N   1      27.436  18.094   9.365  0.00  0.00    -0.775 OA
HETATM   17  H   UNK N   1      26.877  17.366   9.173  0.00  0.00     0.167 HD
ENDBRANCH  14  16
ENDBRANCH   2  14
BRANCH   6  18
HETATM   18  N   UNK N   1      33.530  15.777   3.891  0.00  0.00    -0.397 N 
HETATM   19  H   UNK N   1      32.823  15.309   3.392  0.00  0.00     0.156 HD
HETATM   20  H   UNK N   1      34.400  15.953   3.465  0.00  0.00     0.156 HD
ENDBRANCH   6  18
BRANCH   7  21
HETATM   21  O   UNK N   1      35.536  15.673   5.836  0.00  0.00    -0.358 OA
HETATM   22  H   UNK N   1      36.296  15.996   6.279  0.00  0.00     0.217 HD
ENDBRANCH   7  21
TORSDOF 4
ENDMDL
MODEL 7
REMARK VINA RESULT:      -5.6      4.493      6.858
REMARK  4 active torsions:
REMARK  status: ('A' for Active; 'I' for Inactive)
REMARK    1  A    between atoms: C_2  and  C_13 
REMARK    2  A    between atoms: C_6  and  N_7 
REMARK    3  A    between atoms: C_8  and  O_9 
REMARK    4  A    between atoms: C_13  and  O_14 
ROOT
HETATM    1  N   UNK N   1      33.749  15.698   7.932  0.00  0.00    -0.417 N 
HETATM    2  C   UNK N   1      34.495  16.750   8.590  0.00  0.00     0.177 A 
HETATM    3  C   UNK N   1      35.183  16.586   9.960  0.00  0.00     0.077 A 
HETATM    4  C   UNK N   1      35.229  15.367  10.865  0.00  0.00    -0.020 A 
HETATM    5  C   UNK N   1      35.946  15.549  12.056  0.00  0.00     0.041 A 
HETATM    6  C   UNK N   1      36.077  14.519  12.992  0.00  0.00     0.060 A 
HETATM    7  C   UNK N   1      35.485  13.279  12.744  0.00  0.00     0.094 A 
HETATM    8  C   UNK N   1      34.770  13.076  11.570  0.00  0.00     0.076 A 
HETATM    9  C   UNK N   1      34.632  14.099  10.628  0.00  0.00     0.074 A 
HETATM   10  O   UNK N   1      33.931  13.828   9.526  0.00  0.00    -0.360 OA
HETATM   11  H   UNK N   1      33.318  15.870   7.024  0.00  0.00     0.150 HD
HETATM   12  H   UNK N   1      33.655  14.784   8.376  0.00  0.00     0.150 HD
HETATM   13  H   UNK N   1      33.816  14.488   8.871  0.00  0.00     0.217 HD
ENDROOT
BRANCH   2  14
HETATM   14  C   UNK N   1      34.572  18.048   7.854  0.00  0.00     0.163 C 
HETATM   15  O   UNK N   1      34.229  18.114   6.684  0.00  0.00    -0.648 OA
BRANCH  14  16
HETATM   16  O   UNK N   1      35.022  19.151   8.481  0.00  0.00    -0.775 OA
HETATM   17  H   UNK N   1      34.962  19.218   9.414  0.00  0.00     0.167 HD
ENDBRANCH  14  16
ENDBRANCH   2  14
BRANCH   6  18
HETATM   18  N   UNK N   1      36.806  14.740  14.177  0.00  0.00    -0.397 N 
HETATM   19  H   UNK N   1      36.967  15.658  14.492  0.00  0.00     0.156 HD
HETATM   20  H   UNK N   1      37.154  13.976  14.691  0.00  0.00     0.156 HD
ENDBRANCH   6  18
BRANCH   7  21
HETATM   21  O   UNK N   1      35.601  12.277  13.632  0.00  0.00    -0.358 OA
HETATM   22  H   UNK N   1      35.153  11.467  13.487  0.00  0.00     0.217 HD
ENDBRANCH   7  21
TORSDOF 4
ENDMDL
MODEL 8
REMARK VINA RESULT:      -5.5      7.098     11.093
REMARK  4 active torsions:
REMARK  status: ('A' for Active; 'I' for Inactive)
REMARK    1  A    between atoms: C_2  and  C_13 
REMARK    2  A    between atoms: C_6  and  N_7 
REMARK    3  A    between atoms: C_8  and  O_9 
REMARK    4  A    between atoms: C_13  and  O_14 
ROOT
HETATM    1  N   UNK N   1      20.793  20.133   2.038  0.00  0.00    -0.417 N 
HETATM    2  C   UNK N   1      20.741  19.002   2.942  0.00  0.00     0.177 A 
HETATM    3  C   UNK N   1      21.944  18.512   3.772  0.00  0.00     0.077 A 
HETATM    4  C   UNK N   1      23.358  19.065   3.823  0.00  0.00    -0.020 A 
HETATM    5  C   UNK N   1      24.223  18.382   4.690  0.00  0.00     0.041 A 
HETATM    6  C   UNK N   1      25.556  18.772   4.845  0.00  0.00     0.060 A 
HETATM    7  C   UNK N   1      26.046  19.864   4.127  0.00  0.00     0.094 A 
HETATM    8  C   UNK N   1      25.206  20.556   3.263  0.00  0.00     0.076 A 
HETATM    9  C   UNK N   1      23.872  20.175   3.100  0.00  0.00     0.074 A 
HETATM   10  O   UNK N   1      23.128  20.888   2.252  0.00  0.00    -0.360 OA
HETATM   11  H   UNK N   1      19.960  20.408   1.518  0.00  0.00     0.150 HD
HETATM   12  H   UNK N   1      21.662  20.653   1.922  0.00  0.00     0.150 HD
HETATM   13  H   UNK N   1      22.229  20.663   2.116  0.00  0.00     0.217 HD
ENDROOT
BRANCH   2  14
HETATM   14  C   UNK N   1      19.421  18.310   3.040  0.00  0.00     0.163 C 
HETATM   15  O   UNK N   1      19.291  17.328   3.753  0.00  0.00    -0.648 OA
BRANCH  14  16
HETATM   16  O   UNK N   1      18.368  18.768   2.338  0.00  0.00    -0.775 OA
HETATM   17  H   UNK N   1      18.304  18.592   1.419  0.00  0.00     0.167 HD
ENDBRANCH  14  16
ENDBRANCH   2  14
BRANCH   6  18
HETATM   18  N   UNK N   1      26.395  18.060   5.725  0.00  0.00    -0.397 N 
HETATM   19  H   UNK N   1      27.071  18.540   6.256  0.00  0.00     0.156 HD
HETATM   20  H   UNK N   1      26.305  17.083   5.810  0.00  0.00     0.156 HD
ENDBRANCH   6  18
BRANCH   7  21
HETATM   21  O   UNK N   1      27.325  20.254   4.263  0.00  0.00    -0.358 OA
HETATM   22  H   UNK N   1      27.707  20.838   3.638  0.00  0.00     0.217 HD
ENDBRANCH   7  21
TORSDOF 4
ENDMDL
MODEL 9
REMARK VINA RESULT:      -5.4     13.790     14.577
REMARK  4 active torsions:
REMARK  status: ('A' for Active; 'I' for Inactive)
REMARK    1  A    between atoms: C_2  and  C_13 
REMARK    2  A    between atoms: C_6  and  N_7 
REMARK    3  A    between atoms: C_8  and  O_9 
REMARK    4  A    between atoms: C_13  and  O_14 
ROOT
HETATM    1  N   UNK N   1      30.488  21.545  -4.704  0.00  0.00    -0.417 N 
HETATM    2  C   UNK N   1      30.061  22.505  -3.707  0.00  0.00     0.177 A 
HETATM    3  C   UNK N   1      28.865  23.459  -3.893  0.00  0.00     0.077 A 
HETATM    4  C   UNK N   1      27.931  23.600  -5.082  0.00  0.00    -0.020 A 
HETATM    5  C   UNK N   1      26.934  24.574  -4.933  0.00  0.00     0.041 A 
HETATM    6  C   UNK N   1      25.998  24.820  -5.941  0.00  0.00     0.060 A 
HETATM    7  C   UNK N   1      26.051  24.085  -7.128  0.00  0.00     0.094 A 
HETATM    8  C   UNK N   1      27.030  23.115  -7.298  0.00  0.00     0.076 A 
HETATM    9  C   UNK N   1      27.970  22.861  -6.296  0.00  0.00     0.074 A 
HETATM   10  O   UNK N   1      28.880  21.914  -6.533  0.00  0.00    -0.360 OA
HETATM   11  H   UNK N   1      31.288  20.940  -4.519  0.00  0.00     0.150 HD
HETATM   12  H   UNK N   1      29.990  21.474  -5.590  0.00  0.00     0.150 HD
HETATM   13  H   UNK N   1      29.527  21.714  -5.886  0.00  0.00     0.217 HD
ENDROOT
BRANCH   2  14
HETATM   14  C   UNK N   1      30.859  22.527  -2.444  0.00  0.00     0.163 C 
HETATM   15  O   UNK N   1      30.447  23.130  -1.465  0.00  0.00    -0.648 OA
BRANCH  14  16
HETATM   16  O   UNK N   1      32.039  21.881  -2.382  0.00  0.00    -0.775 OA
HETATM   17  H   UNK N   1      32.570  21.799  -3.150  0.00  0.00     0.167 HD
ENDBRANCH  14  16
ENDBRANCH   2  14
BRANCH   6  18
HETATM   18  N   UNK N   1      25.011  25.807  -5.754  0.00  0.00    -0.397 N 
HETATM   19  H   UNK N   1      24.755  26.080  -4.843  0.00  0.00     0.156 HD
HETATM   20  H   UNK N   1      24.577  26.224  -6.533  0.00  0.00     0.156 HD
ENDBRANCH   6  18
BRANCH   7  21
HETATM   21  O   UNK N   1      25.159  24.308  -8.109  0.00  0.00    -0.358 OA
HETATM   22  H   UNK N   1      24.985  23.642  -8.745  0.00  0.00     0.217 HD
ENDBRANCH   7  21
TORSDOF 4
ENDMDL
