MODEL 1
REMARK VINA RESULT:      -8.1      0.000      0.000
REMARK  20 active torsions:
REMARK  status: ('A' for Active; 'I' for Inactive)
REMARK    1  A    between atoms: C_29  and  C_16 
REMARK    2  A    between atoms: C_37  and  C_16 
REMARK    3  A    between atoms: C_36  and  C_19 
REMARK    4  A    between atoms: O_94  and  C_19 
REMARK    5  A    between atoms: C_39  and  C_24 
REMARK    6  A    between atoms: C_44  and  C_26 
REMARK    7  A    between atoms: C_51  and  C_28 
REMARK    8  A    between atoms: C_30  and  C_56 
REMARK    9  A    between atoms: C_49  and  C_33 
REMARK   10  A    between atoms: C_35  and  C_45 
REMARK   11  A    between atoms: N_59  and  C_37 
REMARK   12  A    between atoms: O_86  and  C_37 
REMARK   13  A    between atoms: C_38  and  O_87 
REMARK   14  A    between atoms: C_43  and  C_44 
REMARK   15  A    between atoms: C_44  and  O_88 
REMARK   16  A    between atoms: N_57  and  C_45 
REMARK   17  A    between atoms: O_89  and  C_45 
REMARK   18  A    between atoms: C_46  and  O_90 
REMARK   19  A    between atoms: O_91  and  C_47 
REMARK   20  A    between atoms: C_48  and  O_92 
REMARK       I    between atoms: N_85  and  C_56 
ROOT
HETATM    1  C   UNK N   1      35.402  14.241   0.980  0.00  0.00     0.059 C 
HETATM    2  C   UNK N   1      25.287   7.819  -1.277  0.00  0.00     0.018 A 
HETATM    3  C   UNK N   1      23.941   8.189  -1.396  0.00  0.00     0.033 A 
HETATM    4  C   UNK N   1      25.936  16.195   5.378  0.00  0.00     0.205 C 
HETATM    5  C   UNK N   1      26.008   8.463   2.612  0.00  0.00     0.112 C 
HETATM    6  C   UNK N   1      29.658   7.393  -1.205  0.00  0.00     0.086 A 
HETATM    7  C   UNK N   1      22.319  10.378   4.768  0.00  0.00     0.084 A 
HETATM    8  C   UNK N   1      34.273  13.292   1.161  0.00  0.00     0.011 A 
HETATM    9  C   UNK N   1      26.074   8.386  -0.267  0.00  0.00     0.022 A 
HETATM   10  C   UNK N   1      23.419   9.211  -0.579  0.00  0.00     0.066 A 
HETATM   11  C   UNK N   1      31.583  10.447   0.550  0.00  0.00     0.148 C 
HETATM   12  C   UNK N   1      25.956   9.675   1.881  0.00  0.00     0.143 C 
HETATM   13  C   UNK N   1      29.580   8.724  -0.741  0.00  0.00     0.090 A 
HETATM   14  C   UNK N   1      23.487  10.933   4.219  0.00  0.00     0.073 A 
HETATM   15  C   UNK N   1      28.594  14.600   5.189  0.00  0.00     0.039 A 
HETATM   16  C   UNK N   1      25.299  15.056   6.086  0.00  0.00     0.130 C 
HETATM   17  C   UNK N   1      32.270  15.535   4.938  0.00  0.00     0.144 C 
HETATM   18  C   UNK N   1      33.440  13.167   2.274  0.00  0.00     0.097 A 
HETATM   19  C   UNK N   1      25.504   9.386   0.534  0.00  0.00     0.046 A 
HETATM   20  C   UNK N   1      28.851  15.737   6.040  0.00  0.00     0.099 A 
HETATM   21  C   UNK N   1      23.388  13.681   6.539  0.00  0.00     0.174 C 
HETATM   22  C   UNK N   1      30.328   9.799  -1.416  0.00  0.00     0.164 C 
HETATM   23  C   UNK N   1      27.929  16.773   6.631  0.00  0.00     0.164 C 
HETATM   24  C   UNK N   1      33.593  14.001   3.460  0.00  0.00     0.165 C 
HETATM   25  C   UNK N   1      27.492   8.049  -0.167  0.00  0.00     0.086 A 
HETATM   26  C   UNK N   1      24.452  10.168   3.492  0.00  0.00     0.093 C 
HETATM   27  C   UNK N   1      32.437  11.631   0.929  0.00  0.00     0.075 A 
HETATM   28  C   UNK N   1      22.952  12.668   5.541  0.00  0.00     0.077 A 
HETATM   29  C   UNK N   1      30.996  15.085   5.589  0.00  0.00     0.075 A 
HETATM   30  N   UNK N   1      26.685  16.953   6.331  0.00  0.00    -0.362 N 
ATOM     31  HN  UNK N   1      26.194  17.703   6.817  1.00  0.00     0.162 HD
HETATM   32  N   UNK N   1      24.221   9.742   0.337  0.00  0.00    -0.355 N 
ATOM     33  HN  UNK N   1      23.836  10.475   0.934  1.00  0.00     0.166 HD
HETATM   34  N   UNK N   1      31.131  10.605  -0.810  0.00  0.00    -0.358 N 
ATOM     35  HN  UNK N   1      31.472  11.412  -1.331  1.00  0.00     0.162 HD
HETATM   36  N   UNK N   1      25.193  10.654   2.484  0.00  0.00    -0.372 N 
ATOM     37  HN  UNK N   1      25.193  11.634   2.196  1.00  0.00     0.161 HD
HETATM   38  N   UNK N   1      28.378   9.066  -0.180  0.00  0.00    -0.346 N 
ATOM     39  HN  UNK N   1      28.175   9.995   0.191  1.00  0.00     0.167 HD
HETATM   40  N   UNK N   1      23.829  12.181   4.651  0.00  0.00    -0.349 N 
ATOM     41  HN  UNK N   1      24.658  12.685   4.333  1.00  0.00     0.166 HD
HETATM   42  N   UNK N   1      24.064  14.770   5.861  0.00  0.00    -0.360 N 
ATOM     43  HN  UNK N   1      23.544  15.330   5.186  1.00  0.00     0.162 HD
HETATM   44  N   UNK N   1      32.540  14.587   3.877  0.00  0.00    -0.358 N 
ATOM     45  HN  UNK N   1      31.706  14.333   3.348  1.00  0.00     0.162 HD
HETATM   46  N   UNK N   1      32.401  12.259   2.134  0.00  0.00    -0.348 N 
ATOM     47  HN  UNK N   1      31.695  12.084   2.849  1.00  0.00     0.166 HD
HETATM   48  N   UNK N   1      30.199  15.968   6.232  0.00  0.00    -0.348 N 
ATOM     49  HN  UNK N   1      30.559  16.732   6.804  1.00  0.00     0.166 HD
HETATM   50  S   UNK N   1      28.197   6.719  -0.835  0.00  0.00    -0.081 SA
HETATM   51  S   UNK N   1      24.868   8.617   3.792  0.00  0.00    -0.108 SA
HETATM   52  S   UNK N   1      21.769  11.538   5.797  0.00  0.00    -0.084 SA
HETATM   53  S   UNK N   1      33.682  12.261   0.029  0.00  0.00    -0.077 SA
HETATM   54  S   UNK N   1      30.049  13.983   4.823  0.00  0.00    -0.074 SA
ENDROOT
BRANCH  10  55
HETATM   55  C   UNK N   1      22.057   9.032  -0.111  0.00  0.00     0.093 A 
HETATM   56  N   UNK N   1      21.230  10.030  -0.463  0.00  0.00    -0.370 N 
HETATM   57  C   UNK N   1      20.321  10.390   0.492  0.00  0.00     0.166 A 
ATOM     58  HN  UNK N   1      21.275  10.485  -1.375  1.00  0.00     0.161 HD
HETATM   59  C   UNK N   1      20.323   9.525   1.606  0.00  0.00     0.114 A 
HETATM   60  S   UNK N   1      21.590   8.477   1.354  0.00  0.00    -0.108 SA
BRANCH  57  61
HETATM   61  C   UNK N   1      20.525  11.795   0.805  0.00  0.00     0.138 C 
HETATM   62  N   UNK N   1      20.251  12.135   1.996  0.00  0.00    -0.357 N 
HETATM   63  C   UNK N   1      20.972  13.291   2.365  0.00  0.00     0.200 C 
ATOM     64  HN  UNK N   1      19.600  11.640   2.604  1.00  0.00     0.162 HD
HETATM   65  C   UNK N   1      21.504  13.785   0.995  0.00  0.00     0.212 C 
HETATM   66  O   UNK N   1      21.325  12.668   0.180  0.00  0.00    -0.335 OA
BRANCH  63  67
HETATM   67  C   UNK N   1      20.201  14.165   3.313  0.00  0.00     0.245 C 
HETATM   68  N   UNK N   1      20.356  15.523   3.377  0.00  0.00    -0.338 N 
HETATM   69  C   UNK N   1      21.407  16.172   2.634  0.00  0.00     0.127 C 
HETATM   70  C   UNK N   1      19.715  16.439   4.295  0.00  0.00     0.161 C 
HETATM   71  C   UNK N   1      21.768  17.379   3.499  0.00  0.00     0.022 C 
HETATM   72  C   UNK N   1      20.891  17.276   4.753  0.00  0.00     0.035 C 
HETATM   73  O   UNK N   1      19.365  13.612   4.025  0.00  0.00    -0.271 OA
BRANCH  70  74
HETATM   74  C   UNK N   1      18.903  15.868   5.448  0.00  0.00     0.132 C 
BRANCH  74  75
HETATM   75  N   UNK N   1      19.452  15.676   6.592  0.00  0.00    -0.382 N 
HETATM   76  H   UNK N   1      19.773  14.811   6.934  0.00  0.00     0.158 HD
ATOM     77  HN  UNK N   1      19.565  16.488   7.198  1.00  0.00     0.158 HD
ENDBRANCH  74  75
BRANCH  74  78
HETATM   78  O   UNK N   1      17.628  15.479   5.255  0.00  0.00    -0.348 OA
HETATM   79  H   UNK N   1      16.811  15.931   5.174  0.00  0.00     0.219 HD
ENDBRANCH  74  78
ENDBRANCH  70  74
ENDBRANCH  63  67
ENDBRANCH  57  61
ENDBRANCH  10  55
BRANCH  22  80
HETATM   80  O   UNK N   1      30.101   9.979  -2.730  0.00  0.00    -0.345 OA
HETATM   81  H   UNK N   1      29.686  10.511  -3.381  0.00  0.00     0.219 HD
ENDBRANCH  22  80
BRANCH  11  82
HETATM   82  C   UNK N   1      32.399   9.132   0.640  0.00  0.00     0.115 C 
BRANCH  82  83
HETATM   83  C   UNK N   1      32.288   8.381   1.958  0.00  0.00     0.113 C 
BRANCH  83  84
HETATM   84  N   UNK N   1      31.841   7.174   2.034  0.00  0.00    -0.379 N 
HETATM   85  C   UNK N   1      30.499   6.839   2.422  0.00  0.00     0.148 C 
ATOM     86  HN  UNK N   1      32.480   6.411   1.805  1.00  0.00     0.160 HD
ENDBRANCH  83  84
BRANCH  83  87
HETATM   87  O   UNK N   1      32.621   9.014   3.097  0.00  0.00    -0.350 OA
HETATM   88  H   UNK N   1      33.423   9.493   3.163  0.00  0.00     0.219 HD
ENDBRANCH  83  87
ENDBRANCH  82  83
ENDBRANCH  11  82
BRANCH  21  89
HETATM   89  C   UNK N   1      22.224  14.199   7.383  0.00  0.00     0.180 C 
BRANCH  89  90
HETATM   90  C   UNK N   1      22.102  13.580   8.754  0.00  0.00    -0.027 A 
HETATM   91  C   UNK N   1      23.247  13.026   9.335  0.00  0.00     0.010 A 
HETATM   92  C   UNK N   1      23.173  12.394  10.577  0.00  0.00     0.001 A 
HETATM   93  C   UNK N   1      21.952  12.311  11.251  0.00  0.00     0.000 A 
HETATM   94  C   UNK N   1      20.806  12.875  10.691  0.00  0.00     0.001 A 
HETATM   95  C   UNK N   1      20.884  13.510   9.453  0.00  0.00     0.010 A 
ENDBRANCH  89  90
BRANCH  89  96
HETATM   96  O   UNK N   1      22.350  15.584   7.524  0.00  0.00    -0.388 OA
HETATM   97  H   UNK N   1      22.481  16.459   7.127  0.00  0.00     0.210 HD
ENDBRANCH  89  96
ENDBRANCH  21  89
BRANCH  16  98
HETATM   98  O   UNK N   1      26.037  14.331   6.962  0.00  0.00    -0.348 OA
HETATM   99  H   UNK N   1      26.283  13.684   7.593  0.00  0.00     0.219 HD
ENDBRANCH  16  98
BRANCH  24 100
HETATM  100  O   UNK N   1      34.805  14.228   4.000  0.00  0.00    -0.345 OA
HETATM  101  H   UNK N   1      35.397  13.564   4.295  0.00  0.00     0.219 HD
ENDBRANCH  24 100
BRANCH  23 102
HETATM  102  O   UNK N   1      28.475  17.622   7.524  0.00  0.00    -0.345 OA
HETATM  103  H   UNK N   1      28.817  18.450   7.248  0.00  0.00     0.219 HD
ENDBRANCH  23 102
BRANCH  17 104
HETATM  104  C   UNK N   1      33.446  16.005   5.814  0.00  0.00     0.006 C 
HETATM  105  C   UNK N   1      33.350  17.514   6.018  0.00  0.00     0.012 C 
HETATM  106  C   UNK N   1      33.357  15.400   7.207  0.00  0.00     0.012 C 
ENDBRANCH  17 104
BRANCH  15 107
HETATM  107  C   UNK N   1      27.393  14.027   4.513  0.00  0.00     0.215 C 
BRANCH 107 108
HETATM  108  O   UNK N   1      27.709  13.485   3.265  0.00  0.00    -0.391 OA
HETATM  109  C   UNK N   1      26.723  13.985   2.410  0.00  0.00     0.201 C 
ENDBRANCH 107 108
ENDBRANCH  15 107
TORSDOF 20
ENDMDL
MODEL 2
REMARK VINA RESULT:      -8.1      3.461      8.969
REMARK  20 active torsions:
REMARK  status: ('A' for Active; 'I' for Inactive)
REMARK    1  A    between atoms: C_29  and  C_16 
REMARK    2  A    between atoms: C_37  and  C_16 
REMARK    3  A    between atoms: C_36  and  C_19 
REMARK    4  A    between atoms: O_94  and  C_19 
REMARK    5  A    between atoms: C_39  and  C_24 
REMARK    6  A    between atoms: C_44  and  C_26 
REMARK    7  A    between atoms: C_51  and  C_28 
REMARK    8  A    between atoms: C_30  and  C_56 
REMARK    9  A    between atoms: C_49  and  C_33 
REMARK   10  A    between atoms: C_35  and  C_45 
REMARK   11  A    between atoms: N_59  and  C_37 
REMARK   12  A    between atoms: O_86  and  C_37 
REMARK   13  A    between atoms: C_38  and  O_87 
REMARK   14  A    between atoms: C_43  and  C_44 
REMARK   15  A    between atoms: C_44  and  O_88 
REMARK   16  A    between atoms: N_57  and  C_45 
REMARK   17  A    between atoms: O_89  and  C_45 
REMARK   18  A    between atoms: C_46  and  O_90 
REMARK   19  A    between atoms: O_91  and  C_47 
REMARK   20  A    between atoms: C_48  and  O_92 
REMARK       I    between atoms: N_85  and  C_56 
ROOT
HETATM    1  C   UNK N   1      33.714   7.417  10.365  0.00  0.00     0.059 C 
HETATM    2  C   UNK N   1      29.921  18.497   6.976  0.00  0.00     0.018 A 
HETATM    3  C   UNK N   1      28.643  19.051   6.821  0.00  0.00     0.033 A 
HETATM    4  C   UNK N   1      25.107   9.267   4.425  0.00  0.00     0.205 C 
HETATM    5  C   UNK N   1      30.052  15.810   4.005  0.00  0.00     0.112 C 
HETATM    6  C   UNK N   1      33.582  16.320   8.045  0.00  0.00     0.086 A 
HETATM    7  C   UNK N   1      25.968  15.535   1.731  0.00  0.00     0.084 A 
HETATM    8  C   UNK N   1      33.434   8.607   9.519  0.00  0.00     0.011 A 
HETATM    9  C   UNK N   1      30.168  17.193   6.530  0.00  0.00     0.022 A 
HETATM   10  C   UNK N   1      27.589  18.257   6.328  0.00  0.00     0.066 A 
HETATM   11  C   UNK N   1      33.142  12.334   8.204  0.00  0.00     0.148 C 
HETATM   12  C   UNK N   1      29.252  15.360   5.084  0.00  0.00     0.143 C 
HETATM   13  C   UNK N   1      32.680  15.236   8.108  0.00  0.00     0.090 A 
HETATM   14  C   UNK N   1      26.529  14.767   2.766  0.00  0.00     0.073 A 
HETATM   15  C   UNK N   1      28.178   8.963   4.784  0.00  0.00     0.039 A 
HETATM   16  C   UNK N   1      25.327  10.062   3.191  0.00  0.00     0.130 C 
HETATM   17  C   UNK N   1      30.444   6.400   6.438  0.00  0.00     0.144 C 
HETATM   18  C   UNK N   1      32.859   8.627   8.247  0.00  0.00     0.097 A 
HETATM   19  C   UNK N   1      29.091  16.448   6.028  0.00  0.00     0.046 A 
HETATM   20  C   UNK N   1      27.656   7.642   4.534  0.00  0.00     0.099 A 
HETATM   21  C   UNK N   1      24.707  11.847   1.716  0.00  0.00     0.174 C 
HETATM   22  C   UNK N   1      32.587  14.408   9.323  0.00  0.00     0.164 C 
HETATM   23  C   UNK N   1      26.283   7.169   4.126  0.00  0.00     0.164 C 
HETATM   24  C   UNK N   1      32.446   7.410   7.559  0.00  0.00     0.165 C 
HETATM   25  C   UNK N   1      31.481  16.585   6.736  0.00  0.00     0.086 A 
HETATM   26  C   UNK N   1      27.764  15.096   3.406  0.00  0.00     0.093 C 
HETATM   27  C   UNK N   1      33.057  10.871   8.563  0.00  0.00     0.075 A 
HETATM   28  C   UNK N   1      25.012  13.255   2.090  0.00  0.00     0.077 A 
HETATM   29  C   UNK N   1      29.734   7.106   5.321  0.00  0.00     0.075 A 
HETATM   30  N   UNK N   1      25.206   7.880   4.090  0.00  0.00    -0.362 N 
ATOM     31  HN  UNK N   1      24.350   7.412   3.796  1.00  0.00     0.162 HD
HETATM   32  N   UNK N   1      27.871  17.014   5.956  0.00  0.00    -0.355 N 
ATOM     33  HN  UNK N   1      27.108  16.445   5.589  1.00  0.00     0.166 HD
HETATM   34  N   UNK N   1      32.700  13.123   9.327  0.00  0.00    -0.358 N 
ATOM     35  HN  UNK N   1      32.459  12.630  10.186  1.00  0.00     0.162 HD
HETATM   36  N   UNK N   1      28.039  14.831   4.693  0.00  0.00    -0.372 N 
ATOM     37  HN  UNK N   1      27.423  14.300   5.310  1.00  0.00     0.161 HD
HETATM   38  N   UNK N   1      31.528  15.405   7.386  0.00  0.00    -0.346 N 
ATOM     39  HN  UNK N   1      30.783  14.710   7.346  1.00  0.00     0.167 HD
HETATM   40  N   UNK N   1      26.006  13.521   2.951  0.00  0.00    -0.349 N 
ATOM     41  HN  UNK N   1      26.333  12.867   3.663  1.00  0.00     0.166 HD
HETATM   42  N   UNK N   1      24.549  11.051   2.918  0.00  0.00    -0.360 N 
ATOM     43  HN  UNK N   1      23.797  11.280   3.567  1.00  0.00     0.162 HD
HETATM   44  N   UNK N   1      31.257   7.399   7.099  0.00  0.00    -0.358 N 
ATOM     45  HN  UNK N   1      30.773   8.288   7.223  1.00  0.00     0.162 HD
HETATM   46  N   UNK N   1      32.626   9.890   7.726  0.00  0.00    -0.348 N 
ATOM     47  HN  UNK N   1      32.185  10.063   6.823  1.00  0.00     0.166 HD
HETATM   48  N   UNK N   1      28.556   6.643   4.848  0.00  0.00    -0.348 N 
ATOM     49  HN  UNK N   1      28.351   5.650   4.735  1.00  0.00     0.166 HD
HETATM   50  S   UNK N   1      32.870  17.417   7.037  0.00  0.00    -0.081 SA
HETATM   51  S   UNK N   1      29.063  15.780   2.687  0.00  0.00    -0.108 SA
HETATM   52  S   UNK N   1      24.805  14.562   1.095  0.00  0.00    -0.084 SA
HETATM   53  S   UNK N   1      33.632  10.176   9.958  0.00  0.00    -0.077 SA
HETATM   54  S   UNK N   1      29.698   8.748   5.306  0.00  0.00    -0.074 SA
ENDROOT
BRANCH  10  55
HETATM   55  C   UNK N   1      26.641  18.915   5.447  0.00  0.00     0.093 A 
HETATM   56  N   UNK N   1      25.358  18.641   5.733  0.00  0.00    -0.370 N 
HETATM   57  C   UNK N   1      24.546  18.480   4.646  0.00  0.00     0.166 A 
ATOM     58  HN  UNK N   1      25.015  18.560   6.690  1.00  0.00     0.161 HD
HETATM   59  C   UNK N   1      25.186  18.798   3.430  0.00  0.00     0.114 A 
HETATM   60  S   UNK N   1      26.773  19.098   3.828  0.00  0.00    -0.108 SA
BRANCH  57  61
HETATM   61  C   UNK N   1      23.969  17.146   4.705  0.00  0.00     0.138 C 
HETATM   62  N   UNK N   1      23.790  16.679   5.871  0.00  0.00    -0.357 N 
HETATM   63  C   UNK N   1      22.767  15.706   5.868  0.00  0.00     0.200 C 
ATOM     64  HN  UNK N   1      24.312  16.969   6.697  1.00  0.00     0.162 HD
HETATM   65  C   UNK N   1      22.589  15.435   4.352  0.00  0.00     0.212 C 
HETATM   66  O   UNK N   1      23.237  16.526   3.772  0.00  0.00    -0.335 OA
BRANCH  63  67
HETATM   67  C   UNK N   1      23.014  14.619   6.876  0.00  0.00     0.245 C 
HETATM   68  N   UNK N   1      22.044  14.138   7.713  0.00  0.00    -0.338 N 
HETATM   69  C   UNK N   1      20.755  14.779   7.780  0.00  0.00     0.127 C 
HETATM   70  C   UNK N   1      22.197  13.147   8.758  0.00  0.00     0.161 C 
HETATM   71  C   UNK N   1      20.312  14.548   9.224  0.00  0.00     0.022 C 
HETATM   72  C   UNK N   1      21.470  13.812   9.908  0.00  0.00     0.035 C 
HETATM   73  O   UNK N   1      24.140  14.126   6.899  0.00  0.00    -0.271 OA
BRANCH  70  74
HETATM   74  C   UNK N   1      23.598  12.683   9.125  0.00  0.00     0.132 C 
BRANCH  74  75
HETATM   75  N   UNK N   1      24.029  11.546   8.716  0.00  0.00    -0.382 N 
HETATM   76  H   UNK N   1      23.600  10.677   8.884  0.00  0.00     0.158 HD
ATOM     77  HN  UNK N   1      24.892  11.544   8.171  1.00  0.00     0.158 HD
ENDBRANCH  74  75
BRANCH  74  78
HETATM   78  O   UNK N   1      24.363  13.421   9.953  0.00  0.00    -0.348 OA
HETATM   79  H   UNK N   1      24.363  13.579  10.877  0.00  0.00     0.219 HD
ENDBRANCH  74  78
ENDBRANCH  70  74
ENDBRANCH  63  67
ENDBRANCH  57  61
ENDBRANCH  10  55
BRANCH  22  80
HETATM   80  O   UNK N   1      32.305  15.035  10.479  0.00  0.00    -0.345 OA
HETATM   81  H   UNK N   1      32.018  14.937  11.366  0.00  0.00     0.219 HD
ENDBRANCH  22  80
BRANCH  11  82
HETATM   82  C   UNK N   1      34.604  12.733   7.877  0.00  0.00     0.115 C 
BRANCH  82  83
HETATM   83  C   UNK N   1      34.928  12.878   6.398  0.00  0.00     0.113 C 
BRANCH  83  84
HETATM   84  N   UNK N   1      35.292  13.999   5.874  0.00  0.00    -0.379 N 
HETATM   85  C   UNK N   1      34.564  14.671   4.833  0.00  0.00     0.148 C 
ATOM     86  HN  UNK N   1      36.148  14.434   6.219  1.00  0.00     0.160 HD
ENDBRANCH  83  84
BRANCH  83  87
HETATM   87  O   UNK N   1      34.783  11.812   5.592  0.00  0.00    -0.350 OA
HETATM   88  H   UNK N   1      34.438  11.908   4.726  0.00  0.00     0.219 HD
ENDBRANCH  83  87
ENDBRANCH  82  83
ENDBRANCH  11  82
BRANCH  21  89
HETATM   89  C   UNK N   1      23.471  11.741   0.823  0.00  0.00     0.180 C 
BRANCH  89  90
HETATM   90  C   UNK N   1      23.308  10.420   0.111  0.00  0.00    -0.027 A 
HETATM   91  C   UNK N   1      24.430   9.856  -0.504  0.00  0.00     0.010 A 
HETATM   92  C   UNK N   1      24.317   8.663  -1.219  0.00  0.00     0.001 A 
HETATM   93  C   UNK N   1      23.080   8.022  -1.326  0.00  0.00     0.000 A 
HETATM   94  C   UNK N   1      21.957   8.565  -0.703  0.00  0.00     0.001 A 
HETATM   95  C   UNK N   1      22.073   9.754   0.015  0.00  0.00     0.010 A 
ENDBRANCH  89  90
BRANCH  89  96
HETATM   96  O   UNK N   1      22.333  11.980   1.597  0.00  0.00    -0.388 OA
HETATM   97  H   UNK N   1      21.892  12.460   2.315  0.00  0.00     0.210 HD
ENDBRANCH  89  96
ENDBRANCH  21  89
BRANCH  16  98
HETATM   98  O   UNK N   1      26.351   9.729   2.368  0.00  0.00    -0.348 OA
HETATM   99  H   UNK N   1      27.102   9.798   1.813  0.00  0.00     0.219 HD
ENDBRANCH  16  98
BRANCH  24 100
HETATM  100  O   UNK N   1      33.241   6.325   7.525  0.00  0.00    -0.345 OA
HETATM  101  H   UNK N   1      33.091   5.561   7.003  0.00  0.00     0.219 HD
ENDBRANCH  24 100
BRANCH  23 102
HETATM  102  O   UNK N   1      26.167   5.861   3.818  0.00  0.00    -0.345 OA
HETATM  103  H   UNK N   1      25.410   5.542   3.368  0.00  0.00     0.219 HD
ENDBRANCH  23 102
BRANCH  17 104
HETATM  104  C   UNK N   1      31.056   5.008   6.189  0.00  0.00     0.006 C 
HETATM  105  C   UNK N   1      29.994   3.940   6.434  0.00  0.00     0.012 C 
HETATM  106  C   UNK N   1      31.462   4.850   4.732  0.00  0.00     0.012 C 
ENDBRANCH  17 104
BRANCH  15 107
HETATM  107  C   UNK N   1      27.610  10.345   4.811  0.00  0.00     0.215 C 
BRANCH 107 108
HETATM  108  O   UNK N   1      28.612  11.316   4.869  0.00  0.00    -0.391 OA
HETATM  109  C   UNK N   1      28.916  11.580   3.531  0.00  0.00     0.201 C 
ENDBRANCH 107 108
ENDBRANCH  15 107
TORSDOF 20
ENDMDL
MODEL 3
REMARK VINA RESULT:      -8.0      7.258     11.695
REMARK  20 active torsions:
REMARK  status: ('A' for Active; 'I' for Inactive)
REMARK    1  A    between atoms: C_29  and  C_16 
REMARK    2  A    between atoms: C_37  and  C_16 
REMARK    3  A    between atoms: C_36  and  C_19 
REMARK    4  A    between atoms: O_94  and  C_19 
REMARK    5  A    between atoms: C_39  and  C_24 
REMARK    6  A    between atoms: C_44  and  C_26 
REMARK    7  A    between atoms: C_51  and  C_28 
REMARK    8  A    between atoms: C_30  and  C_56 
REMARK    9  A    between atoms: C_49  and  C_33 
REMARK   10  A    between atoms: C_35  and  C_45 
REMARK   11  A    between atoms: N_59  and  C_37 
REMARK   12  A    between atoms: O_86  and  C_37 
REMARK   13  A    between atoms: C_38  and  O_87 
REMARK   14  A    between atoms: C_43  and  C_44 
REMARK   15  A    between atoms: C_44  and  O_88 
REMARK   16  A    between atoms: N_57  and  C_45 
REMARK   17  A    between atoms: O_89  and  C_45 
REMARK   18  A    between atoms: C_46  and  O_90 
REMARK   19  A    between atoms: O_91  and  C_47 
REMARK   20  A    between atoms: C_48  and  O_92 
REMARK       I    between atoms: N_85  and  C_56 
ROOT
HETATM    1  C   UNK N   1      39.638   8.645  14.860  0.00  0.00     0.059 C 
HETATM    2  C   UNK N   1      34.457   5.744   4.211  0.00  0.00     0.018 A 
HETATM    3  C   UNK N   1      34.393   6.411   2.980  0.00  0.00     0.033 A 
HETATM    4  C   UNK N   1      34.948  15.614   8.362  0.00  0.00     0.205 C 
HETATM    5  C   UNK N   1      32.209   8.083   6.565  0.00  0.00     0.112 C 
HETATM    6  C   UNK N   1      35.376   4.019   8.143  0.00  0.00     0.086 A 
HETATM    7  C   UNK N   1      30.772  11.934   4.322  0.00  0.00     0.084 A 
HETATM    8  C   UNK N   1      38.598   8.370  13.833  0.00  0.00     0.011 A 
HETATM    9  C   UNK N   1      34.291   6.467   5.398  0.00  0.00     0.022 A 
HETATM   10  C   UNK N   1      34.279   7.815   2.946  0.00  0.00     0.066 A 
HETATM   11  C   UNK N   1      36.524   6.706  10.895  0.00  0.00     0.148 C 
HETATM   12  C   UNK N   1      33.481   8.656   6.317  0.00  0.00     0.143 C 
HETATM   13  C   UNK N   1      35.838   5.330   8.389  0.00  0.00     0.090 A 
HETATM   14  C   UNK N   1      31.848  11.692   5.193  0.00  0.00     0.073 A 
HETATM   15  C   UNK N   1      34.851  13.398  10.536  0.00  0.00     0.039 A 
HETATM   16  C   UNK N   1      33.544  15.310   7.986  0.00  0.00     0.130 C 
HETATM   17  C   UNK N   1      36.652  12.789  13.827  0.00  0.00     0.144 C 
HETATM   18  C   UNK N   1      37.470   9.140  13.542  0.00  0.00     0.097 A 
HETATM   19  C   UNK N   1      34.161   7.861   5.314  0.00  0.00     0.046 A 
HETATM   20  C   UNK N   1      35.004  14.653  11.229  0.00  0.00     0.099 A 
HETATM   21  C   UNK N   1      31.821  15.105   6.332  0.00  0.00     0.174 C 
HETATM   22  C   UNK N   1      37.209   5.564   8.873  0.00  0.00     0.164 C 
HETATM   23  C   UNK N   1      34.951  16.079  10.741  0.00  0.00     0.164 C 
HETATM   24  C   UNK N   1      37.160  10.371  14.257  0.00  0.00     0.165 C 
HETATM   25  C   UNK N   1      34.409   5.794   6.689  0.00  0.00     0.086 A 
HETATM   26  C   UNK N   1      32.181  10.392   5.687  0.00  0.00     0.093 C 
HETATM   27  C   UNK N   1      37.221   7.552  11.932  0.00  0.00     0.075 A 
HETATM   28  C   UNK N   1      31.803  13.926   5.425  0.00  0.00     0.077 A 
HETATM   29  C   UNK N   1      35.537  13.203  12.914  0.00  0.00     0.075 A 
HETATM   30  N   UNK N   1      34.931  16.467   9.509  0.00  0.00    -0.362 N 
ATOM     31  HN  UNK N   1      34.900  17.472   9.339  1.00  0.00     0.162 HD
HETATM   32  N   UNK N   1      34.163   8.455   4.104  0.00  0.00    -0.355 N 
ATOM     33  HN  UNK N   1      34.071   9.470   4.076  1.00  0.00     0.166 HD
HETATM   34  N   UNK N   1      37.491   6.253   9.926  0.00  0.00    -0.358 N 
ATOM     35  HN  UNK N   1      38.469   6.494  10.086  1.00  0.00     0.162 HD
HETATM   36  N   UNK N   1      33.430   9.991   5.972  0.00  0.00    -0.372 N 
ATOM     37  HN  UNK N   1      34.247  10.603   5.937  1.00  0.00     0.161 HD
HETATM   38  N   UNK N   1      35.298   6.290   7.573  0.00  0.00    -0.346 N 
ATOM     39  HN  UNK N   1      35.545   7.278   7.630  1.00  0.00     0.167 HD
HETATM   40  N   UNK N   1      32.401  12.784   5.796  0.00  0.00    -0.349 N 
ATOM     41  HN  UNK N   1      33.180  12.737   6.453  1.00  0.00     0.166 HD
HETATM   42  N   UNK N   1      33.183  15.373   6.751  0.00  0.00    -0.360 N 
ATOM     43  HN  UNK N   1      33.877  15.619   6.047  1.00  0.00     0.162 HD
HETATM   44  N   UNK N   1      36.920  11.396  13.536  0.00  0.00    -0.358 N 
ATOM     45  HN  UNK N   1      36.914  11.189  12.538  1.00  0.00     0.162 HD
HETATM   46  N   UNK N   1      36.717   8.697  12.465  0.00  0.00    -0.348 N 
ATOM     47  HN  UNK N   1      35.885   9.172  12.116  1.00  0.00     0.166 HD
HETATM   48  N   UNK N   1      35.387  14.494  12.547  0.00  0.00    -0.348 N 
ATOM     49  HN  UNK N   1      35.542  15.277  13.182  1.00  0.00     0.166 HD
HETATM   50  S   UNK N   1      34.275   4.169   6.923  0.00  0.00    -0.081 SA
HETATM   51  S   UNK N   1      31.118   9.205   6.050  0.00  0.00    -0.108 SA
HETATM   52  S   UNK N   1      30.581  13.567   4.366  0.00  0.00    -0.084 SA
HETATM   53  S   UNK N   1      38.623   7.156  12.729  0.00  0.00    -0.077 SA
HETATM   54  S   UNK N   1      35.149  12.244  11.637  0.00  0.00    -0.074 SA
ENDROOT
BRANCH  10  55
HETATM   55  C   UNK N   1      33.441   8.371   1.901  0.00  0.00     0.093 A 
HETATM   56  N   UNK N   1      33.948   9.476   1.331  0.00  0.00    -0.370 N 
HETATM   57  C   UNK N   1      33.032  10.444   1.032  0.00  0.00     0.166 A 
ATOM     58  HN  UNK N   1      34.944   9.585   1.137  1.00  0.00     0.161 HD
HETATM   59  C   UNK N   1      31.701  10.021   1.230  0.00  0.00     0.114 A 
HETATM   60  S   UNK N   1      31.812   8.512   1.923  0.00  0.00    -0.108 SA
BRANCH  57  61
HETATM   61  C   UNK N   1      33.403  11.656   1.745  0.00  0.00     0.138 C 
HETATM   62  N   UNK N   1      34.583  11.677   2.209  0.00  0.00    -0.357 N 
HETATM   63  C   UNK N   1      35.036  13.005   2.363  0.00  0.00     0.200 C 
ATOM     64  HN  UNK N   1      35.130  10.848   2.439  1.00  0.00     0.162 HD
HETATM   65  C   UNK N   1      33.722  13.811   2.202  0.00  0.00     0.212 C 
HETATM   66  O   UNK N   1      32.861  12.874   1.630  0.00  0.00    -0.335 OA
BRANCH  63  67
HETATM   67  C   UNK N   1      35.958  13.158   3.540  0.00  0.00     0.245 C 
HETATM   68  N   UNK N   1      37.292  13.438   3.417  0.00  0.00    -0.338 N 
HETATM   69  C   UNK N   1      37.920  13.436   2.120  0.00  0.00     0.127 C 
HETATM   70  C   UNK N   1      38.271  13.537   4.479  0.00  0.00     0.161 C 
HETATM   71  C   UNK N   1      39.352  12.992   2.414  0.00  0.00     0.022 C 
HETATM   72  C   UNK N   1      39.404  12.703   3.919  0.00  0.00     0.035 C 
HETATM   73  O   UNK N   1      35.454  13.066   4.659  0.00  0.00    -0.271 OA
BRANCH  70  74
HETATM   74  C   UNK N   1      37.866  13.127   5.886  0.00  0.00     0.132 C 
BRANCH  74  75
HETATM   75  N   UNK N   1      37.946  11.899   6.249  0.00  0.00    -0.382 N 
HETATM   76  H   UNK N   1      38.554  11.543   6.937  0.00  0.00     0.158 HD
ATOM     77  HN  UNK N   1      37.326  11.235   5.786  1.00  0.00     0.158 HD
ENDBRANCH  74  75
BRANCH  74  78
HETATM   78  O   UNK N   1      37.339  14.032   6.733  0.00  0.00    -0.348 OA
HETATM   79  H   UNK N   1      37.492  14.942   6.896  0.00  0.00     0.219 HD
ENDBRANCH  74  78
ENDBRANCH  70  74
ENDBRANCH  63  67
ENDBRANCH  57  61
ENDBRANCH  10  55
BRANCH  22  80
HETATM   80  O   UNK N   1      38.220   5.079   8.129  0.00  0.00    -0.345 OA
HETATM   81  H   UNK N   1      39.147   4.961   8.060  0.00  0.00     0.219 HD
ENDBRANCH  22  80
BRANCH  11  82
HETATM   82  C   UNK N   1      35.876   5.461  11.551  0.00  0.00     0.115 C 
BRANCH  82  83
HETATM   83  C   UNK N   1      34.366   5.527  11.732  0.00  0.00     0.113 C 
BRANCH  83  84
HETATM   84  N   UNK N   1      33.630   6.384  11.110  0.00  0.00    -0.379 N 
HETATM   85  C   UNK N   1      32.620   6.027  10.152  0.00  0.00     0.148 C 
ATOM     86  HN  UNK N   1      33.773   7.374  11.311  1.00  0.00     0.160 HD
ENDBRANCH  83  84
BRANCH  83  87
HETATM   87  O   UNK N   1      33.779   4.695  12.609  0.00  0.00    -0.350 OA
HETATM   88  H   UNK N   1      34.207   3.908  12.885  0.00  0.00     0.219 HD
ENDBRANCH  83  87
ENDBRANCH  82  83
ENDBRANCH  11  82
BRANCH  21  89
HETATM   89  C   UNK N   1      31.194  16.340   5.686  0.00  0.00     0.180 C 
BRANCH  89  90
HETATM   90  C   UNK N   1      30.268  17.130   6.580  0.00  0.00    -0.027 A 
HETATM   91  C   UNK N   1      29.020  17.504   6.075  0.00  0.00     0.010 A 
HETATM   92  C   UNK N   1      28.151  18.279   6.844  0.00  0.00     0.001 A 
HETATM   93  C   UNK N   1      28.523  18.688   8.127  0.00  0.00     0.000 A 
HETATM   94  C   UNK N   1      29.759  18.307   8.649  0.00  0.00     0.001 A 
HETATM   95  C   UNK N   1      30.623  17.528   7.881  0.00  0.00     0.010 A 
ENDBRANCH  89  90
BRANCH  89  96
HETATM   96  O   UNK N   1      32.216  17.183   5.239  0.00  0.00    -0.388 OA
HETATM   97  H   UNK N   1      33.151  17.439   5.235  0.00  0.00     0.210 HD
ENDBRANCH  89  96
ENDBRANCH  21  89
BRANCH  16  98
HETATM   98  O   UNK N   1      32.662  14.970   8.957  0.00  0.00    -0.348 OA
HETATM   99  H   UNK N   1      32.303  14.615   9.745  0.00  0.00     0.219 HD
ENDBRANCH  16  98
BRANCH  24 100
HETATM  100  O   UNK N   1      37.247  10.439  15.599  0.00  0.00    -0.345 OA
HETATM  101  H   UNK N   1      37.759  11.062  16.076  0.00  0.00     0.219 HD
ENDBRANCH  24 100
BRANCH  23 102
HETATM  102  O   UNK N   1      34.977  17.039  11.688  0.00  0.00    -0.345 OA
HETATM  103  H   UNK N   1      34.251  17.156  12.269  0.00  0.00     0.219 HD
ENDBRANCH  23 102
BRANCH  17 104
HETATM  104  C   UNK N   1      36.634  13.237  15.301  0.00  0.00     0.006 C 
HETATM  105  C   UNK N   1      37.187  14.655  15.402  0.00  0.00     0.012 C 
HETATM  106  C   UNK N   1      35.207  13.320  15.821  0.00  0.00     0.012 C 
ENDBRANCH  17 104
BRANCH  15 107
HETATM  107  C   UNK N   1      34.652  12.983   9.115  0.00  0.00     0.215 C 
BRANCH 107 108
HETATM  108  O   UNK N   1      35.786  12.357   8.594  0.00  0.00    -0.391 OA
HETATM  109  C   UNK N   1      35.421  11.012   8.487  0.00  0.00     0.201 C 
ENDBRANCH 107 108
ENDBRANCH  15 107
TORSDOF 20
ENDMDL
MODEL 4
REMARK VINA RESULT:      -8.0      4.181     10.110
REMARK  20 active torsions:
REMARK  status: ('A' for Active; 'I' for Inactive)
REMARK    1  A    between atoms: C_29  and  C_16 
REMARK    2  A    between atoms: C_37  and  C_16 
REMARK    3  A    between atoms: C_36  and  C_19 
REMARK    4  A    between atoms: O_94  and  C_19 
REMARK    5  A    between atoms: C_39  and  C_24 
REMARK    6  A    between atoms: C_44  and  C_26 
REMARK    7  A    between atoms: C_51  and  C_28 
REMARK    8  A    between atoms: C_30  and  C_56 
REMARK    9  A    between atoms: C_49  and  C_33 
REMARK   10  A    between atoms: C_35  and  C_45 
REMARK   11  A    between atoms: N_59  and  C_37 
REMARK   12  A    between atoms: O_86  and  C_37 
REMARK   13  A    between atoms: C_38  and  O_87 
REMARK   14  A    between atoms: C_43  and  C_44 
REMARK   15  A    between atoms: C_44  and  O_88 
REMARK   16  A    between atoms: N_57  and  C_45 
REMARK   17  A    between atoms: O_89  and  C_45 
REMARK   18  A    between atoms: C_46  and  O_90 
REMARK   19  A    between atoms: O_91  and  C_47 
REMARK   20  A    between atoms: C_48  and  O_92 
REMARK       I    between atoms: N_85  and  C_56 
ROOT
HETATM    1  C   UNK N   1      36.941   7.343  11.447  0.00  0.00     0.059 C 
HETATM    2  C   UNK N   1      31.592  17.928   8.618  0.00  0.00     0.018 A 
HETATM    3  C   UNK N   1      30.258  18.272   8.362  0.00  0.00     0.033 A 
HETATM    4  C   UNK N   1      28.793   8.348   4.711  0.00  0.00     0.205 C 
HETATM    5  C   UNK N   1      32.504  15.636   5.460  0.00  0.00     0.112 C 
HETATM    6  C   UNK N   1      35.455  16.294   9.920  0.00  0.00     0.086 A 
HETATM    7  C   UNK N   1      28.788  14.925   2.700  0.00  0.00     0.084 A 
HETATM    8  C   UNK N   1      36.541   8.553  10.682  0.00  0.00     0.011 A 
HETATM    9  C   UNK N   1      32.113  16.739   8.093  0.00  0.00     0.022 A 
HETATM   10  C   UNK N   1      29.418  17.370   7.679  0.00  0.00     0.066 A 
HETATM   11  C   UNK N   1      35.722  12.297   9.674  0.00  0.00     0.148 C 
HETATM   12  C   UNK N   1      31.691  14.944   6.392  0.00  0.00     0.143 C 
HETATM   13  C   UNK N   1      34.760  15.074   9.780  0.00  0.00     0.090 A 
HETATM   14  C   UNK N   1      29.369  14.155   3.723  0.00  0.00     0.073 A 
HETATM   15  C   UNK N   1      31.815   8.528   5.404  0.00  0.00     0.039 A 
HETATM   16  C   UNK N   1      28.991   9.296   3.586  0.00  0.00     0.130 C 
HETATM   17  C   UNK N   1      34.323   6.219   7.084  0.00  0.00     0.144 C 
HETATM   18  C   UNK N   1      36.104   8.613   9.357  0.00  0.00     0.097 A 
HETATM   19  C   UNK N   1      31.243  15.882   7.403  0.00  0.00     0.046 A 
HETATM   20  C   UNK N   1      31.566   7.172   4.978  0.00  0.00     0.099 A 
HETATM   21  C   UNK N   1      28.215  11.100   2.211  0.00  0.00     0.174 C 
HETATM   22  C   UNK N   1      34.694  14.116  10.897  0.00  0.00     0.164 C 
HETATM   23  C   UNK N   1      30.350   6.521   4.370  0.00  0.00     0.164 C 
HETATM   24  C   UNK N   1      35.988   7.425   8.520  0.00  0.00     0.165 C 
HETATM   25  C   UNK N   1      33.485  16.342   8.398  0.00  0.00     0.086 A 
HETATM   26  C   UNK N   1      30.454  14.616   4.532  0.00  0.00     0.093 C 
HETATM   27  C   UNK N   1      35.864  10.811   9.891  0.00  0.00     0.075 A 
HETATM   28  C   UNK N   1      28.224  12.491   2.740  0.00  0.00     0.077 A 
HETATM   29  C   UNK N   1      33.616   6.911   5.957  0.00  0.00     0.075 A 
HETATM   30  N   UNK N   1      29.172   7.042   4.269  0.00  0.00    -0.362 N 
ATOM     31  HN  UNK N   1      28.447   6.471   3.835  1.00  0.00     0.162 HD
HETATM   32  N   UNK N   1      29.955  16.239   7.235  0.00  0.00    -0.355 N 
ATOM     33  HN  UNK N   1      29.347  15.593   6.732  1.00  0.00     0.166 HD
HETATM   34  N   UNK N   1      35.033  12.876  10.801  0.00  0.00    -0.358 N 
ATOM     35  HN  UNK N   1      34.798  12.260  11.579  1.00  0.00     0.162 HD
HETATM   36  N   UNK N   1      30.639  14.264   5.814  0.00  0.00    -0.372 N 
ATOM     37  HN  UNK N   1      30.068  13.574   6.304  1.00  0.00     0.161 HD
HETATM   38  N   UNK N   1      33.676  15.124   8.944  0.00  0.00    -0.346 N 
ATOM     39  HN  UNK N   1      33.075  14.321   8.754  1.00  0.00     0.167 HD
HETATM   40  N   UNK N   1      29.061  12.826   3.734  0.00  0.00    -0.349 N 
ATOM     41  HN  UNK N   1      29.425  12.163   4.419  1.00  0.00     0.166 HD
HETATM   42  N   UNK N   1      28.081  10.164   3.310  0.00  0.00    -0.360 N 
ATOM     43  HN  UNK N   1      27.238  10.192   3.883  1.00  0.00     0.162 HD
HETATM   44  N   UNK N   1      34.872   7.263   7.922  0.00  0.00    -0.358 N 
ATOM     45  HN  UNK N   1      34.227   8.040   8.066  1.00  0.00     0.162 HD
HETATM   46  N   UNK N   1      35.703   9.868   8.925  0.00  0.00    -0.348 N 
ATOM     47  HN  UNK N   1      35.332  10.060   7.994  1.00  0.00     0.166 HD
HETATM   48  N   UNK N   1      32.594   6.310   5.309  0.00  0.00    -0.348 N 
ATOM     49  HN  UNK N   1      32.583   5.315   5.085  1.00  0.00     0.166 HD
HETATM   50  S   UNK N   1      34.665  17.358   8.935  0.00  0.00    -0.081 SA
HETATM   51  S   UNK N   1      31.675  15.581   4.036  0.00  0.00    -0.108 SA
HETATM   52  S   UNK N   1      27.888  13.844   1.847  0.00  0.00    -0.084 SA
HETATM   53  S   UNK N   1      36.409  10.077  11.277  0.00  0.00    -0.077 SA
HETATM   54  S   UNK N   1      33.288   8.516   6.083  0.00  0.00    -0.074 SA
ENDROOT
BRANCH  10  55
HETATM   55  C   UNK N   1      28.463  17.950   6.753  0.00  0.00     0.093 A 
HETATM   56  N   UNK N   1      27.197  17.558   6.967  0.00  0.00    -0.370 N 
HETATM   57  C   UNK N   1      26.462  17.337   5.836  0.00  0.00     0.166 A 
ATOM     58  HN  UNK N   1      26.812  17.434   7.903  1.00  0.00     0.161 HD
HETATM   59  C   UNK N   1      27.134  17.726   4.660  0.00  0.00     0.114 A 
HETATM   60  S   UNK N   1      28.664  18.165   5.145  0.00  0.00    -0.108 SA
BRANCH  57  61
HETATM   61  C   UNK N   1      26.007  15.955   5.854  0.00  0.00     0.138 C 
HETATM   62  N   UNK N   1      25.104  15.689   6.704  0.00  0.00    -0.357 N 
HETATM   63  C   UNK N   1      24.353  14.564   6.299  0.00  0.00     0.200 C 
ATOM     64  HN  UNK N   1      24.942  16.215   7.561  1.00  0.00     0.162 HD
HETATM   65  C   UNK N   1      25.230  13.989   5.157  0.00  0.00     0.212 C 
HETATM   66  O   UNK N   1      26.087  15.052   4.870  0.00  0.00    -0.335 OA
BRANCH  63  67
HETATM   67  C   UNK N   1      23.880  13.745   7.467  0.00  0.00     0.245 C 
HETATM   68  N   UNK N   1      22.595  13.778   7.936  0.00  0.00    -0.338 N 
HETATM   69  C   UNK N   1      21.657  14.744   7.421  0.00  0.00     0.127 C 
HETATM   70  C   UNK N   1      22.061  13.084   9.088  0.00  0.00     0.161 C 
HETATM   71  C   UNK N   1      20.735  15.019   8.608  0.00  0.00     0.022 C 
HETATM   72  C   UNK N   1      21.292  14.193   9.775  0.00  0.00     0.035 C 
HETATM   73  O   UNK N   1      24.698  12.984   7.981  0.00  0.00    -0.271 OA
BRANCH  70  74
HETATM   74  C   UNK N   1      23.025  12.362  10.017  0.00  0.00     0.132 C 
BRANCH  74  75
HETATM   75  N   UNK N   1      23.033  11.081  10.071  0.00  0.00    -0.382 N 
HETATM   76  H   UNK N   1      22.242  10.499   9.989  0.00  0.00     0.158 HD
ATOM     77  HN  UNK N   1      23.935  10.625  10.211  1.00  0.00     0.158 HD
ENDBRANCH  74  75
BRANCH  74  78
HETATM   78  O   UNK N   1      23.816  13.063  10.853  0.00  0.00    -0.348 OA
HETATM   79  H   UNK N   1      23.756  13.315  11.753  0.00  0.00     0.219 HD
ENDBRANCH  74  78
ENDBRANCH  70  74
ENDBRANCH  63  67
ENDBRANCH  57  61
ENDBRANCH  10  55
BRANCH  22  80
HETATM   80  O   UNK N   1      34.188  14.559  12.063  0.00  0.00    -0.345 OA
HETATM   81  H   UNK N   1      33.436  14.908  12.501  0.00  0.00     0.219 HD
ENDBRANCH  22  80
BRANCH  11  82
HETATM   82  C   UNK N   1      37.114  12.969   9.560  0.00  0.00     0.115 C 
BRANCH  82  83
HETATM   83  C   UNK N   1      37.517  13.407   8.160  0.00  0.00     0.113 C 
BRANCH  83  84
HETATM   84  N   UNK N   1      36.709  13.353   7.156  0.00  0.00    -0.379 N 
HETATM   85  C   UNK N   1      36.243  14.508   6.440  0.00  0.00     0.148 C 
ATOM     86  HN  UNK N   1      36.382  12.435   6.853  1.00  0.00     0.160 HD
ENDBRANCH  83  84
BRANCH  83  87
HETATM   87  O   UNK N   1      38.778  13.820   7.946  0.00  0.00    -0.350 OA
HETATM   88  H   UNK N   1      39.012  14.722   8.052  0.00  0.00     0.219 HD
ENDBRANCH  83  87
ENDBRANCH  82  83
ENDBRANCH  11  82
BRANCH  21  89
HETATM   89  C   UNK N   1      27.116  10.885   1.171  0.00  0.00     0.180 C 
BRANCH  89  90
HETATM   90  C   UNK N   1      27.302   9.677   0.284  0.00  0.00    -0.027 A 
HETATM   91  C   UNK N   1      28.553   9.477  -0.307  0.00  0.00     0.010 A 
HETATM   92  C   UNK N   1      28.758   8.405  -1.177  0.00  0.00     0.001 A 
HETATM   93  C   UNK N   1      27.714   7.523  -1.463  0.00  0.00     0.000 A 
HETATM   94  C   UNK N   1      26.466   7.701  -0.866  0.00  0.00     0.001 A 
HETATM   95  C   UNK N   1      26.265   8.770   0.006  0.00  0.00     0.010 A 
ENDBRANCH  89  90
BRANCH  89  96
HETATM   96  O   UNK N   1      25.887  10.776   1.828  0.00  0.00    -0.388 OA
HETATM   97  H   UNK N   1      25.218  10.232   2.270  0.00  0.00     0.210 HD
ENDBRANCH  89  96
ENDBRANCH  21  89
BRANCH  16  98
HETATM   98  O   UNK N   1      30.137   9.231   2.865  0.00  0.00    -0.348 OA
HETATM   99  H   UNK N   1      30.884   8.890   2.415  0.00  0.00     0.219 HD
ENDBRANCH  16  98
BRANCH  24 100
HETATM  100  O   UNK N   1      36.963   6.498   8.486  0.00  0.00    -0.345 OA
HETATM  101  H   UNK N   1      36.850   5.603   8.232  0.00  0.00     0.219 HD
ENDBRANCH  24 100
BRANCH  23 102
HETATM  102  O   UNK N   1      30.501   5.254   3.936  0.00  0.00    -0.345 OA
HETATM  103  H   UNK N   1      30.830   4.589   4.509  0.00  0.00     0.219 HD
ENDBRANCH  23 102
BRANCH  17 104
HETATM  104  C   UNK N   1      35.197   4.985   6.788  0.00  0.00     0.006 C 
HETATM  105  C   UNK N   1      34.325   3.733   6.815  0.00  0.00     0.012 C 
HETATM  106  C   UNK N   1      35.767   5.052   5.380  0.00  0.00     0.012 C 
ENDBRANCH  17 104
BRANCH  15 107
HETATM  107  C   UNK N   1      31.010   9.783   5.485  0.00  0.00     0.215 C 
BRANCH 107 108
HETATM  108  O   UNK N   1      31.811  10.898   5.735  0.00  0.00    -0.391 OA
HETATM  109  C   UNK N   1      32.170  11.360   4.466  0.00  0.00     0.201 C 
ENDBRANCH 107 108
ENDBRANCH  15 107
TORSDOF 20
ENDMDL
MODEL 5
REMARK VINA RESULT:      -7.6      5.043      9.048
REMARK  20 active torsions:
REMARK  status: ('A' for Active; 'I' for Inactive)
REMARK    1  A    between atoms: C_29  and  C_16 
REMARK    2  A    between atoms: C_37  and  C_16 
REMARK    3  A    between atoms: C_36  and  C_19 
REMARK    4  A    between atoms: O_94  and  C_19 
REMARK    5  A    between atoms: C_39  and  C_24 
REMARK    6  A    between atoms: C_44  and  C_26 
REMARK    7  A    between atoms: C_51  and  C_28 
REMARK    8  A    between atoms: C_30  and  C_56 
REMARK    9  A    between atoms: C_49  and  C_33 
REMARK   10  A    between atoms: C_35  and  C_45 
REMARK   11  A    between atoms: N_59  and  C_37 
REMARK   12  A    between atoms: O_86  and  C_37 
REMARK   13  A    between atoms: C_38  and  O_87 
REMARK   14  A    between atoms: C_43  and  C_44 
REMARK   15  A    between atoms: C_44  and  O_88 
REMARK   16  A    between atoms: N_57  and  C_45 
REMARK   17  A    between atoms: O_89  and  C_45 
REMARK   18  A    between atoms: C_46  and  O_90 
REMARK   19  A    between atoms: O_91  and  C_47 
REMARK   20  A    between atoms: C_48  and  O_92 
REMARK       I    between atoms: N_85  and  C_56 
ROOT
HETATM    1  C   UNK N   1      36.214  14.427  12.756  0.00  0.00     0.059 C 
HETATM    2  C   UNK N   1      28.395  15.323   3.444  0.00  0.00     0.018 A 
HETATM    3  C   UNK N   1      27.108  14.808   3.240  0.00  0.00     0.033 A 
HETATM    4  C   UNK N   1      29.801   6.606   9.520  0.00  0.00     0.205 C 
HETATM    5  C   UNK N   1      30.655  12.013   3.398  0.00  0.00     0.112 C 
HETATM    6  C   UNK N   1      32.215  16.958   4.865  0.00  0.00     0.086 A 
HETATM    7  C   UNK N   1      28.051   8.138   3.048  0.00  0.00     0.084 A 
HETATM    8  C   UNK N   1      35.608  14.249  11.411  0.00  0.00     0.011 A 
HETATM    9  C   UNK N   1      29.377  14.517   4.033  0.00  0.00     0.022 A 
HETATM   10  C   UNK N   1      26.777  13.530   3.731  0.00  0.00     0.066 A 
HETATM   11  C   UNK N   1      33.831  14.942   7.937  0.00  0.00     0.148 C 
HETATM   12  C   UNK N   1      29.939  12.142   4.614  0.00  0.00     0.143 C 
HETATM   13  C   UNK N   1      32.008  16.014   5.894  0.00  0.00     0.090 A 
HETATM   14  C   UNK N   1      28.624   8.796   4.149  0.00  0.00     0.073 A 
HETATM   15  C   UNK N   1      32.377   8.322   9.264  0.00  0.00     0.039 A 
HETATM   16  C   UNK N   1      29.907   6.227   8.088  0.00  0.00     0.130 C 
HETATM   17  C   UNK N   1      35.094   9.456  11.668  0.00  0.00     0.144 C 
HETATM   18  C   UNK N   1      35.465  13.059  10.695  0.00  0.00     0.097 A 
HETATM   19  C   UNK N   1      29.005  13.243   4.488  0.00  0.00     0.046 A 
HETATM   20  C   UNK N   1      32.685   7.243  10.170  0.00  0.00     0.099 A 
HETATM   21  C   UNK N   1      28.887   5.711   5.981  0.00  0.00     0.174 C 
HETATM   22  C   UNK N   1      32.028  16.430   7.307  0.00  0.00     0.164 C 
HETATM   23  C   UNK N   1      31.908   6.011  10.560  0.00  0.00     0.164 C 
HETATM   24  C   UNK N   1      35.926  11.777  11.214  0.00  0.00     0.165 C 
HETATM   25  C   UNK N   1      30.707  15.059   4.301  0.00  0.00     0.086 A 
HETATM   26  C   UNK N   1      29.300  10.053   4.047  0.00  0.00     0.093 C 
HETATM   27  C   UNK N   1      34.407  14.455   9.244  0.00  0.00     0.075 A 
HETATM   28  C   UNK N   1      28.325   6.804   5.143  0.00  0.00     0.077 A 
HETATM   29  C   UNK N   1      34.451   8.632  10.592  0.00  0.00     0.075 A 
HETATM   30  N   UNK N   1      30.674   5.760  10.274  0.00  0.00    -0.362 N 
ATOM     31  HN  UNK N   1      30.286   4.881  10.616  1.00  0.00     0.162 HD
HETATM   32  N   UNK N   1      27.737  12.823   4.315  0.00  0.00    -0.355 N 
ATOM     33  HN  UNK N   1      27.497  11.893   4.660  1.00  0.00     0.166 HD
HETATM   34  N   UNK N   1      32.770  15.880   8.207  0.00  0.00    -0.358 N 
ATOM     35  HN  UNK N   1      32.593  16.126   9.181  1.00  0.00     0.162 HD
HETATM   36  N   UNK N   1      29.317  10.979   5.018  0.00  0.00    -0.372 N 
ATOM     37  HN  UNK N   1      28.916  10.840   5.946  1.00  0.00     0.161 HD
HETATM   38  N   UNK N   1      31.170  14.982   5.565  0.00  0.00    -0.346 N 
ATOM     39  HN  UNK N   1      30.922  14.232   6.211  1.00  0.00     0.167 HD
HETATM   40  N   UNK N   1      28.776   8.060   5.287  0.00  0.00    -0.349 N 
ATOM     41  HN  UNK N   1      29.186   8.422   6.149  1.00  0.00     0.166 HD
HETATM   42  N   UNK N   1      28.841   6.097   7.378  0.00  0.00    -0.360 N 
ATOM     43  HN  UNK N   1      27.936   6.271   7.812  1.00  0.00     0.162 HD
HETATM   44  N   UNK N   1      35.078  10.824  11.195  0.00  0.00    -0.358 N 
ATOM     45  HN  UNK N   1      34.198  11.082  10.749  1.00  0.00     0.162 HD
HETATM   46  N   UNK N   1      34.772  13.170   9.499  0.00  0.00    -0.348 N 
ATOM     47  HN  UNK N   1      34.563  12.384   8.885  1.00  0.00     0.166 HD
HETATM   48  N   UNK N   1      33.846   7.460  10.887  0.00  0.00    -0.348 N 
ATOM     49  HN  UNK N   1      34.210   6.800  11.574  1.00  0.00     0.166 HD
HETATM   50  S   UNK N   1      31.345  16.396   3.580  0.00  0.00    -0.081 SA
HETATM   51  S   UNK N   1      30.210  10.550   2.785  0.00  0.00    -0.108 SA
HETATM   52  S   UNK N   1      27.758   6.616   3.599  0.00  0.00    -0.084 SA
HETATM   53  S   UNK N   1      34.858  15.410  10.525  0.00  0.00    -0.077 SA
HETATM   54  S   UNK N   1      33.594   9.384   9.410  0.00  0.00    -0.074 SA
ENDROOT
BRANCH  10  55
HETATM   55  C   UNK N   1      25.901  12.725   2.900  0.00  0.00     0.093 A 
HETATM   56  N   UNK N   1      24.692  12.506   3.442  0.00  0.00    -0.370 N 
HETATM   57  C   UNK N   1      24.187  11.253   3.238  0.00  0.00     0.166 A 
ATOM     58  HN  UNK N   1      24.189  13.221   3.966  1.00  0.00     0.161 HD
HETATM   59  C   UNK N   1      24.968  10.483   2.352  0.00  0.00     0.114 A 
HETATM   60  S   UNK N   1      26.317  11.402   2.033  0.00  0.00    -0.108 SA
BRANCH  57  61
HETATM   61  C   UNK N   1      23.952  10.643   4.538  0.00  0.00     0.138 C 
HETATM   62  N   UNK N   1      23.541  11.429   5.444  0.00  0.00    -0.357 N 
HETATM   63  C   UNK N   1      22.829  10.721   6.435  0.00  0.00     0.200 C 
ATOM     64  HN  UNK N   1      23.703  12.435   5.455  1.00  0.00     0.162 HD
HETATM   65  C   UNK N   1      23.190   9.251   6.099  0.00  0.00     0.212 C 
HETATM   66  O   UNK N   1      23.706   9.355   4.807  0.00  0.00    -0.335 OA
BRANCH  63  67
HETATM   67  C   UNK N   1      23.006  11.320   7.802  0.00  0.00     0.245 C 
HETATM   68  N   UNK N   1      22.122  12.207   8.353  0.00  0.00    -0.338 N 
HETATM   69  C   UNK N   1      21.040  12.742   7.565  0.00  0.00     0.127 C 
HETATM   70  C   UNK N   1      22.237  12.888   9.625  0.00  0.00     0.161 C 
HETATM   71  C   UNK N   1      20.824  14.137   8.149  0.00  0.00     0.022 C 
HETATM   72  C   UNK N   1      21.895  14.310   9.234  0.00  0.00     0.035 C 
HETATM   73  O   UNK N   1      23.981  10.946   8.452  0.00  0.00    -0.271 OA
BRANCH  70  74
HETATM   74  C   UNK N   1      23.543  12.779  10.396  0.00  0.00     0.132 C 
BRANCH  74  75
HETATM   75  N   UNK N   1      23.598  12.094  11.479  0.00  0.00    -0.382 N 
HETATM   76  H   UNK N   1      24.419  11.878  11.979  0.00  0.00     0.158 HD
ATOM     77  HN  UNK N   1      22.718  11.742  11.854  1.00  0.00     0.158 HD
ENDBRANCH  74  75
BRANCH  74  78
HETATM   78  O   UNK N   1      24.628  13.471   9.997  0.00  0.00    -0.348 OA
HETATM   79  H   UNK N   1      25.126  14.175  10.362  0.00  0.00     0.219 HD
ENDBRANCH  74  78
ENDBRANCH  70  74
ENDBRANCH  63  67
ENDBRANCH  57  61
ENDBRANCH  10  55
BRANCH  22  80
HETATM   80  O   UNK N   1      31.171  17.398   7.680  0.00  0.00    -0.345 OA
HETATM   81  H   UNK N   1      30.272  17.637   7.797  0.00  0.00     0.219 HD
ENDBRANCH  22  80
BRANCH  11  82
HETATM   82  C   UNK N   1      34.915  15.666   7.098  0.00  0.00     0.115 C 
BRANCH  82  83
HETATM   83  C   UNK N   1      35.524  14.848   5.969  0.00  0.00     0.113 C 
BRANCH  83  84
HETATM   84  N   UNK N   1      34.840  14.003   5.277  0.00  0.00    -0.379 N 
HETATM   85  C   UNK N   1      34.587  14.138   3.869  0.00  0.00     0.148 C 
ATOM     86  HN  UNK N   1      34.456  13.189   5.758  1.00  0.00     0.160 HD
ENDBRANCH  83  84
BRANCH  83  87
HETATM   87  O   UNK N   1      36.838  14.973   5.712  0.00  0.00    -0.350 OA
HETATM   88  H   UNK N   1      37.140  15.502   5.000  0.00  0.00     0.219 HD
ENDBRANCH  83  87
ENDBRANCH  82  83
ENDBRANCH  11  82
BRANCH  21  89
HETATM   89  C   UNK N   1      28.166   4.382   5.756  0.00  0.00     0.180 C 
BRANCH  89  90
HETATM   90  C   UNK N   1      28.908   3.161   6.243  0.00  0.00    -0.027 A 
HETATM   91  C   UNK N   1      28.312   2.374   7.233  0.00  0.00     0.010 A 
HETATM   92  C   UNK N   1      28.982   1.266   7.753  0.00  0.00     0.001 A 
HETATM   93  C   UNK N   1      30.256   0.934   7.287  0.00  0.00     0.000 A 
HETATM   94  C   UNK N   1      30.856   1.701   6.288  0.00  0.00     0.001 A 
HETATM   95  C   UNK N   1      30.182   2.804   5.767  0.00  0.00     0.010 A 
ENDBRANCH  89  90
BRANCH  89  96
HETATM   96  O   UNK N   1      26.919   4.433   6.387  0.00  0.00    -0.388 OA
HETATM   97  H   UNK N   1      25.971   4.632   6.355  0.00  0.00     0.210 HD
ENDBRANCH  89  96
ENDBRANCH  21  89
BRANCH  16  98
HETATM   98  O   UNK N   1      31.135   6.023   7.551  0.00  0.00    -0.348 OA
HETATM   99  H   UNK N   1      31.918   5.599   7.262  0.00  0.00     0.219 HD
ENDBRANCH  16  98
BRANCH  24 100
HETATM  100  O   UNK N   1      37.136  11.653  11.789  0.00  0.00    -0.345 OA
HETATM  101  H   UNK N   1      37.563  12.314  12.298  0.00  0.00     0.219 HD
ENDBRANCH  24 100
BRANCH  23 102
HETATM  102  O   UNK N   1      32.557   5.109  11.325  0.00  0.00    -0.345 OA
HETATM  103  H   UNK N   1      32.443   5.102  12.255  0.00  0.00     0.219 HD
ENDBRANCH  23 102
BRANCH  17 104
HETATM  104  C   UNK N   1      36.366   8.938  12.364  0.00  0.00     0.006 C 
HETATM  105  C   UNK N   1      35.971   8.061  13.548  0.00  0.00     0.012 C 
HETATM  106  C   UNK N   1      37.158   8.031  11.434  0.00  0.00     0.012 C 
ENDBRANCH  17 104
BRANCH  15 107
HETATM  107  C   UNK N   1      31.205   8.702   8.420  0.00  0.00     0.215 C 
BRANCH 107 108
HETATM  108  O   UNK N   1      31.538   9.678   7.480  0.00  0.00    -0.391 OA
HETATM  109  C   UNK N   1      31.977   8.955   6.368  0.00  0.00     0.201 C 
ENDBRANCH 107 108
ENDBRANCH  15 107
TORSDOF 20
ENDMDL
MODEL 6
REMARK VINA RESULT:      -7.1      2.365      4.270
REMARK  20 active torsions:
REMARK  status: ('A' for Active; 'I' for Inactive)
REMARK    1  A    between atoms: C_29  and  C_16 
REMARK    2  A    between atoms: C_37  and  C_16 
REMARK    3  A    between atoms: C_36  and  C_19 
REMARK    4  A    between atoms: O_94  and  C_19 
REMARK    5  A    between atoms: C_39  and  C_24 
REMARK    6  A    between atoms: C_44  and  C_26 
REMARK    7  A    between atoms: C_51  and  C_28 
REMARK    8  A    between atoms: C_30  and  C_56 
REMARK    9  A    between atoms: C_49  and  C_33 
REMARK   10  A    between atoms: C_35  and  C_45 
REMARK   11  A    between atoms: N_59  and  C_37 
REMARK   12  A    between atoms: O_86  and  C_37 
REMARK   13  A    between atoms: C_38  and  O_87 
REMARK   14  A    between atoms: C_43  and  C_44 
REMARK   15  A    between atoms: C_44  and  O_88 
REMARK   16  A    between atoms: N_57  and  C_45 
REMARK   17  A    between atoms: O_89  and  C_45 
REMARK   18  A    between atoms: C_46  and  O_90 
REMARK   19  A    between atoms: O_91  and  C_47 
REMARK   20  A    between atoms: C_48  and  O_92 
REMARK       I    between atoms: N_85  and  C_56 
ROOT
HETATM    1  C   UNK N   1      35.428  14.357   1.069  0.00  0.00     0.059 C 
HETATM    2  C   UNK N   1      25.320   8.012  -1.426  0.00  0.00     0.018 A 
HETATM    3  C   UNK N   1      23.978   8.391  -1.565  0.00  0.00     0.033 A 
HETATM    4  C   UNK N   1      25.897  16.317   5.324  0.00  0.00     0.205 C 
HETATM    5  C   UNK N   1      25.977   8.613   2.481  0.00  0.00     0.112 C 
HETATM    6  C   UNK N   1      29.686   7.563  -1.284  0.00  0.00     0.086 A 
HETATM    7  C   UNK N   1      22.261  10.526   4.593  0.00  0.00     0.084 A 
HETATM    8  C   UNK N   1      34.290  13.412   1.221  0.00  0.00     0.011 A 
HETATM    9  C   UNK N   1      26.092   8.565  -0.397  0.00  0.00     0.022 A 
HETATM   10  C   UNK N   1      23.447   9.407  -0.746  0.00  0.00     0.066 A 
HETATM   11  C   UNK N   1      31.596  10.587   0.536  0.00  0.00     0.148 C 
HETATM   12  C   UNK N   1      25.944   9.833   1.762  0.00  0.00     0.143 C 
HETATM   13  C   UNK N   1      29.607   8.889  -0.807  0.00  0.00     0.090 A 
HETATM   14  C   UNK N   1      23.442  11.080   4.069  0.00  0.00     0.073 A 
HETATM   15  C   UNK N   1      28.550  14.710   5.164  0.00  0.00     0.039 A 
HETATM   16  C   UNK N   1      25.242  15.174   6.009  0.00  0.00     0.130 C 
HETATM   17  C   UNK N   1      32.234  15.627   4.986  0.00  0.00     0.144 C 
HETATM   18  C   UNK N   1      33.437  13.281   2.319  0.00  0.00     0.097 A 
HETATM   19  C   UNK N   1      25.514   9.560   0.404  0.00  0.00     0.046 A 
HETATM   20  C   UNK N   1      28.798  15.837   6.031  0.00  0.00     0.099 A 
HETATM   21  C   UNK N   1      23.317  13.805   6.416  0.00  0.00     0.174 C 
HETATM   22  C   UNK N   1      30.372   9.966  -1.459  0.00  0.00     0.164 C 
HETATM   23  C   UNK N   1      27.871  16.872   6.617  0.00  0.00     0.164 C 
HETATM   24  C   UNK N   1      33.575  14.102   3.515  0.00  0.00     0.165 C 
HETATM   25  C   UNK N   1      27.507   8.220  -0.276  0.00  0.00     0.086 A 
HETATM   26  C   UNK N   1      24.415  10.317   3.351  0.00  0.00     0.093 C 
HETATM   27  C   UNK N   1      32.451  11.764   0.941  0.00  0.00     0.075 A 
HETATM   28  C   UNK N   1      22.892  12.805   5.399  0.00  0.00     0.077 A 
HETATM   29  C   UNK N   1      30.947  15.178   5.611  0.00  0.00     0.075 A 
HETATM   30  N   UNK N   1      26.634  17.061   6.298  0.00  0.00    -0.362 N 
ATOM     31  HN  UNK N   1      26.138  17.809   6.782  1.00  0.00     0.162 HD
HETATM   32  N   UNK N   1      24.236   9.925   0.188  0.00  0.00    -0.355 N 
ATOM     33  HN  UNK N   1      23.845  10.653   0.786  1.00  0.00     0.166 HD
HETATM   34  N   UNK N   1      31.169  10.762  -0.831  0.00  0.00    -0.358 N 
ATOM     35  HN  UNK N   1      31.524  11.573  -1.337  1.00  0.00     0.162 HD
HETATM   36  N   UNK N   1      25.176  10.810   2.361  0.00  0.00    -0.372 N 
ATOM     37  HN  UNK N   1      25.185  11.792   2.083  1.00  0.00     0.161 HD
HETATM   38  N   UNK N   1      28.398   9.232  -0.263  0.00  0.00    -0.346 N 
ATOM     39  HN  UNK N   1      28.193  10.158   0.113  1.00  0.00     0.167 HD
HETATM   40  N   UNK N   1      23.783  12.322   4.520  0.00  0.00    -0.349 N 
ATOM     41  HN  UNK N   1      24.619  12.825   4.221  1.00  0.00     0.166 HD
HETATM   42  N   UNK N   1      24.009  14.898   5.760  0.00  0.00    -0.360 N 
ATOM     43  HN  UNK N   1      23.504  15.467   5.082  1.00  0.00     0.162 HD
HETATM   44  N   UNK N   1      32.517  14.689   3.920  0.00  0.00    -0.358 N 
ATOM     45  HN  UNK N   1      31.691  14.444   3.374  1.00  0.00     0.162 HD
HETATM   46  N   UNK N   1      32.397  12.380   2.152  0.00  0.00    -0.348 N 
ATOM     47  HN  UNK N   1      31.678  12.201   2.853  1.00  0.00     0.166 HD
HETATM   48  N   UNK N   1      30.144  16.058   6.249  0.00  0.00    -0.348 N 
ATOM     49  HN  UNK N   1      30.498  16.814   6.835  1.00  0.00     0.166 HD
HETATM   50  S   UNK N   1      28.216   6.892  -0.946  0.00  0.00    -0.081 SA
HETATM   51  S   UNK N   1      24.817   8.761   3.643  0.00  0.00    -0.108 SA
HETATM   52  S   UNK N   1      21.700  11.678   5.623  0.00  0.00    -0.084 SA
HETATM   53  S   UNK N   1      33.714  12.396   0.069  0.00  0.00    -0.077 SA
HETATM   54  S   UNK N   1      30.008  14.089   4.817  0.00  0.00    -0.074 SA
ENDROOT
BRANCH  10  55
HETATM   55  C   UNK N   1      22.077   9.231  -0.304  0.00  0.00     0.093 A 
HETATM   56  N   UNK N   1      21.969   8.797   0.962  0.00  0.00    -0.370 N 
HETATM   57  C   UNK N   1      20.973   7.886   1.177  0.00  0.00     0.166 A 
ATOM     58  HN  UNK N   1      22.584   9.122   1.708  1.00  0.00     0.161 HD
HETATM   59  C   UNK N   1      20.143   7.704   0.052  0.00  0.00     0.114 A 
HETATM   60  S   UNK N   1      20.843   8.593  -1.167  0.00  0.00    -0.108 SA
BRANCH  57  61
HETATM   61  C   UNK N   1      21.577   6.669   1.697  0.00  0.00     0.138 C 
HETATM   62  N   UNK N   1      22.170   6.787   2.813  0.00  0.00    -0.357 N 
HETATM   63  C   UNK N   1      22.218   5.548   3.486  0.00  0.00     0.200 C 
ATOM     64  HN  UNK N   1      22.557   7.658   3.173  1.00  0.00     0.162 HD
HETATM   65  C   UNK N   1      21.812   4.558   2.364  0.00  0.00     0.212 C 
HETATM   66  O   UNK N   1      21.258   5.403   1.402  0.00  0.00    -0.335 OA
BRANCH  63  67
HETATM   67  C   UNK N   1      23.468   5.394   4.307  0.00  0.00     0.245 C 
HETATM   68  N   UNK N   1      23.588   5.864   5.586  0.00  0.00    -0.338 N 
HETATM   69  C   UNK N   1      22.554   6.688   6.160  0.00  0.00     0.127 C 
HETATM   70  C   UNK N   1      24.763   5.827   6.430  0.00  0.00     0.161 C 
HETATM   71  C   UNK N   1      23.313   7.601   7.121  0.00  0.00     0.022 C 
HETATM   72  C   UNK N   1      24.796   7.245   6.960  0.00  0.00     0.035 C 
HETATM   73  O   UNK N   1      24.399   4.775   3.794  0.00  0.00    -0.271 OA
BRANCH  70  74
HETATM   74  C   UNK N   1      26.086   5.387   5.821  0.00  0.00     0.132 C 
BRANCH  74  75
HETATM   75  N   UNK N   1      26.853   6.244   5.253  0.00  0.00    -0.382 N 
HETATM   76  H   UNK N   1      27.330   6.111   4.403  0.00  0.00     0.158 HD
ATOM     77  HN  UNK N   1      26.978   7.141   5.723  1.00  0.00     0.158 HD
ENDBRANCH  74  75
BRANCH  74  78
HETATM   78  O   UNK N   1      26.422   4.082   5.795  0.00  0.00    -0.348 OA
HETATM   79  H   UNK N   1      26.162   3.330   6.289  0.00  0.00     0.219 HD
ENDBRANCH  74  78
ENDBRANCH  70  74
ENDBRANCH  63  67
ENDBRANCH  57  61
ENDBRANCH  10  55
BRANCH  22  80
HETATM   80  O   UNK N   1      30.169  10.161  -2.774  0.00  0.00    -0.345 OA
HETATM   81  H   UNK N   1      30.558  10.172  -3.627  0.00  0.00     0.219 HD
ENDBRANCH  22  80
BRANCH  11  82
HETATM   82  C   UNK N   1      32.404   9.268   0.626  0.00  0.00     0.115 C 
BRANCH  82  83
HETATM   83  C   UNK N   1      32.210   8.468   1.905  0.00  0.00     0.113 C 
BRANCH  83  84
HETATM   84  N   UNK N   1      31.385   7.480   1.988  0.00  0.00    -0.379 N 
HETATM   85  C   UNK N   1      30.100   7.561   2.626  0.00  0.00     0.148 C 
ATOM     86  HN  UNK N   1      31.662   6.588   1.576  1.00  0.00     0.160 HD
ENDBRANCH  83  84
BRANCH  83  87
HETATM   87  O   UNK N   1      32.886   8.831   3.009  0.00  0.00    -0.350 OA
HETATM   88  H   UNK N   1      33.209   9.706   3.107  0.00  0.00     0.219 HD
ENDBRANCH  83  87
ENDBRANCH  82  83
ENDBRANCH  11  82
BRANCH  21  89
HETATM   89  C   UNK N   1      22.141  14.321   7.245  0.00  0.00     0.180 C 
BRANCH  89  90
HETATM   90  C   UNK N   1      21.998  13.695   8.611  0.00  0.00    -0.027 A 
HETATM   91  C   UNK N   1      23.110  13.055   9.166  0.00  0.00     0.010 A 
HETATM   92  C   UNK N   1      23.012  12.415  10.402  0.00  0.00     0.001 A 
HETATM   93  C   UNK N   1      21.800  12.411  11.096  0.00  0.00     0.000 A 
HETATM   94  C   UNK N   1      20.687  13.061  10.562  0.00  0.00     0.001 A 
HETATM   95  C   UNK N   1      20.789  13.703   9.330  0.00  0.00     0.010 A 
ENDBRANCH  89  90
BRANCH  89  96
HETATM   96  O   UNK N   1      22.266  15.705   7.393  0.00  0.00    -0.388 OA
HETATM   97  H   UNK N   1      21.997  16.603   7.146  0.00  0.00     0.210 HD
ENDBRANCH  89  96
ENDBRANCH  21  89
BRANCH  16  98
HETATM   98  O   UNK N   1      25.961  14.437   6.891  0.00  0.00    -0.348 OA
HETATM   99  H   UNK N   1      26.598  13.849   7.244  0.00  0.00     0.219 HD
ENDBRANCH  16  98
BRANCH  24 100
HETATM  100  O   UNK N   1      34.778  14.316   4.079  0.00  0.00    -0.345 OA
HETATM  101  H   UNK N   1      35.419  13.655   4.253  0.00  0.00     0.219 HD
ENDBRANCH  24 100
BRANCH  23 102
HETATM  102  O   UNK N   1      28.406  17.709   7.528  0.00  0.00    -0.345 OA
HETATM  103  H   UNK N   1      29.252  17.538   7.895  0.00  0.00     0.219 HD
ENDBRANCH  23 102
BRANCH  17 104
HETATM  104  C   UNK N   1      33.398  16.082   5.887  0.00  0.00     0.006 C 
HETATM  105  C   UNK N   1      33.229  17.562   6.217  0.00  0.00     0.012 C 
HETATM  106  C   UNK N   1      33.358  15.361   7.225  0.00  0.00     0.012 C 
ENDBRANCH  17 104
BRANCH  15 107
HETATM  107  C   UNK N   1      27.358  14.150   4.461  0.00  0.00     0.215 C 
BRANCH 107 108
HETATM  108  O   UNK N   1      27.697  13.592   3.228  0.00  0.00    -0.391 OA
HETATM  109  C   UNK N   1      26.983  14.350   2.296  0.00  0.00     0.201 C 
ENDBRANCH 107 108
ENDBRANCH  15 107
TORSDOF 20
ENDMDL
MODEL 7
REMARK VINA RESULT:      -7.1      5.258     12.087
REMARK  20 active torsions:
REMARK  status: ('A' for Active; 'I' for Inactive)
REMARK    1  A    between atoms: C_29  and  C_16 
REMARK    2  A    between atoms: C_37  and  C_16 
REMARK    3  A    between atoms: C_36  and  C_19 
REMARK    4  A    between atoms: O_94  and  C_19 
REMARK    5  A    between atoms: C_39  and  C_24 
REMARK    6  A    between atoms: C_44  and  C_26 
REMARK    7  A    between atoms: C_51  and  C_28 
REMARK    8  A    between atoms: C_30  and  C_56 
REMARK    9  A    between atoms: C_49  and  C_33 
REMARK   10  A    between atoms: C_35  and  C_45 
REMARK   11  A    between atoms: N_59  and  C_37 
REMARK   12  A    between atoms: O_86  and  C_37 
REMARK   13  A    between atoms: C_38  and  O_87 
REMARK   14  A    between atoms: C_43  and  C_44 
REMARK   15  A    between atoms: C_44  and  O_88 
REMARK   16  A    between atoms: N_57  and  C_45 
REMARK   17  A    between atoms: O_89  and  C_45 
REMARK   18  A    between atoms: C_46  and  O_90 
REMARK   19  A    between atoms: O_91  and  C_47 
REMARK   20  A    between atoms: C_48  and  O_92 
REMARK       I    between atoms: N_85  and  C_56 
ROOT
HETATM    1  C   UNK N   1      25.866   6.508   0.501  0.00  0.00     0.059 C 
HETATM    2  C   UNK N   1      35.525  10.516   6.769  0.00  0.00     0.018 A 
HETATM    3  C   UNK N   1      35.652  11.089   8.041  0.00  0.00     0.033 A 
HETATM    4  C   UNK N   1      25.803  15.029   6.839  0.00  0.00     0.205 C 
HETATM    5  C   UNK N   1      33.567  13.365   4.741  0.00  0.00     0.112 C 
HETATM    6  C   UNK N   1      34.503   8.315   3.109  0.00  0.00     0.086 A 
HETATM    7  C   UNK N   1      32.373  16.953   7.503  0.00  0.00     0.084 A 
HETATM    8  C   UNK N   1      27.026   7.343   0.910  0.00  0.00     0.011 A 
HETATM    9  C   UNK N   1      34.466  10.903   5.939  0.00  0.00     0.022 A 
HETATM   10  C   UNK N   1      34.655  11.961   8.522  0.00  0.00     0.066 A 
HETATM   11  C   UNK N   1      30.623   8.505   2.100  0.00  0.00     0.148 C 
HETATM   12  C   UNK N   1      32.707  12.662   5.621  0.00  0.00     0.143 C 
HETATM   13  C   UNK N   1      33.191   8.626   3.527  0.00  0.00     0.090 A 
HETATM   14  C   UNK N   1      31.664  15.822   7.060  0.00  0.00     0.073 A 
HETATM   15  C   UNK N   1      26.455  13.616   4.150  0.00  0.00     0.039 A 
HETATM   16  C   UNK N   1      26.823  16.067   6.543  0.00  0.00     0.130 C 
HETATM   17  C   UNK N   1      24.523  11.383   1.757  0.00  0.00     0.144 C 
HETATM   18  C   UNK N   1      27.073   8.734   1.019  0.00  0.00     0.097 A 
HETATM   19  C   UNK N   1      33.508  11.789   6.454  0.00  0.00     0.046 A 
HETATM   20  C   UNK N   1      25.098  14.095   4.050  0.00  0.00     0.099 A 
HETATM   21  C   UNK N   1      28.533  17.583   7.268  0.00  0.00     0.174 C 
HETATM   22  C   UNK N   1      32.185   7.563   3.692  0.00  0.00     0.164 C 
HETATM   23  C   UNK N   1      24.281  14.986   4.952  0.00  0.00     0.164 C 
HETATM   24  C   UNK N   1      25.923   9.579   0.722  0.00  0.00     0.165 C 
HETATM   25  C   UNK N   1      34.291  10.272   4.633  0.00  0.00     0.086 A 
HETATM   26  C   UNK N   1      32.263  14.770   6.299  0.00  0.00     0.093 C 
HETATM   27  C   UNK N   1      29.173   8.266   1.758  0.00  0.00     0.075 A 
HETATM   28  C   UNK N   1      29.879  17.062   7.628  0.00  0.00     0.077 A 
HETATM   29  C   UNK N   1      25.139  12.646   2.282  0.00  0.00     0.075 A 
HETATM   30  N   UNK N   1      24.601  15.370   6.143  0.00  0.00    -0.362 N 
ATOM     31  HN  UNK N   1      23.938  15.970   6.632  1.00  0.00     0.162 HD
HETATM   32  N   UNK N   1      33.652  12.265   7.706  0.00  0.00    -0.355 N 
ATOM     33  HN  UNK N   1      32.937  12.904   8.054  1.00  0.00     0.166 HD
HETATM   34  N   UNK N   1      31.025   7.578   3.129  0.00  0.00    -0.358 N 
ATOM     35  HN  UNK N   1      30.343   6.884   3.434  1.00  0.00     0.162 HD
HETATM   36  N   UNK N   1      31.888  13.483   6.369  0.00  0.00    -0.372 N 
ATOM     37  HN  UNK N   1      31.090  13.150   6.912  1.00  0.00     0.161 HD
HETATM   38  N   UNK N   1      33.098   9.702   4.370  0.00  0.00    -0.346 N 
ATOM     39  HN  UNK N   1      32.215  10.036   4.758  1.00  0.00     0.167 HD
HETATM   40  N   UNK N   1      30.304  15.892   7.126  0.00  0.00    -0.349 N 
ATOM     41  HN  UNK N   1      29.680  15.141   6.827  1.00  0.00     0.166 HD
HETATM   42  N   UNK N   1      27.538  16.554   7.498  0.00  0.00    -0.360 N 
ATOM     43  HN  UNK N   1      27.398  16.205   8.445  1.00  0.00     0.162 HD
HETATM   44  N   UNK N   1      25.605  10.432   1.616  0.00  0.00    -0.358 N 
ATOM     45  HN  UNK N   1      26.255  10.447   2.402  1.00  0.00     0.162 HD
HETATM   46  N   UNK N   1      28.262   9.246   1.516  0.00  0.00    -0.348 N 
ATOM     47  HN  UNK N   1      28.432  10.238   1.680  1.00  0.00     0.166 HD
HETATM   48  N   UNK N   1      24.406  13.527   2.998  0.00  0.00    -0.348 N 
ATOM     49  HN  UNK N   1      23.434  13.751   2.782  1.00  0.00     0.166 HD
HETATM   50  S   UNK N   1      35.464   9.459   3.812  0.00  0.00    -0.081 SA
HETATM   51  S   UNK N   1      33.441  14.948   5.181  0.00  0.00    -0.108 SA
HETATM   52  S   UNK N   1      31.197  18.005   7.969  0.00  0.00    -0.084 SA
HETATM   53  S   UNK N   1      28.477   6.792   1.444  0.00  0.00    -0.077 SA
HETATM   54  S   UNK N   1      26.659  12.598   2.904  0.00  0.00    -0.074 SA
ENDROOT
BRANCH  10  55
HETATM   55  C   UNK N   1      35.109  13.090   9.313  0.00  0.00     0.093 A 
HETATM   56  N   UNK N   1      35.879  12.744  10.357  0.00  0.00    -0.370 N 
HETATM   57  C   UNK N   1      35.665  13.467  11.497  0.00  0.00     0.166 A 
ATOM     58  HN  UNK N   1      36.571  11.997  10.304  1.00  0.00     0.161 HD
HETATM   59  C   UNK N   1      34.787  14.553  11.301  0.00  0.00     0.114 A 
HETATM   60  S   UNK N   1      34.233  14.402   9.740  0.00  0.00    -0.108 SA
BRANCH  57  61
HETATM   61  C   UNK N   1      35.275  12.545  12.552  0.00  0.00     0.138 C 
HETATM   62  N   UNK N   1      36.040  11.546  12.714  0.00  0.00    -0.357 N 
HETATM   63  C   UNK N   1      35.939  11.048  14.031  0.00  0.00     0.200 C 
ATOM     64  HN  UNK N   1      36.644  11.156  11.992  1.00  0.00     0.162 HD
HETATM   65  C   UNK N   1      34.670  11.772  14.550  0.00  0.00     0.212 C 
HETATM   66  O   UNK N   1      34.502  12.795  13.616  0.00  0.00    -0.335 OA
BRANCH  63  67
HETATM   67  C   UNK N   1      36.120   9.558  14.092  0.00  0.00     0.245 C 
HETATM   68  N   UNK N   1      37.247   8.958  14.586  0.00  0.00    -0.338 N 
HETATM   69  C   UNK N   1      38.402   9.748  14.928  0.00  0.00     0.127 C 
HETATM   70  C   UNK N   1      37.544   7.542  14.625  0.00  0.00     0.161 C 
HETATM   71  C   UNK N   1      39.576   8.808  14.655  0.00  0.00     0.022 C 
HETATM   72  C   UNK N   1      38.962   7.520  14.093  0.00  0.00     0.035 C 
HETATM   73  O   UNK N   1      35.177   8.866  13.712  0.00  0.00    -0.271 OA
BRANCH  70  74
HETATM   74  C   UNK N   1      36.618   6.581  13.896  0.00  0.00     0.132 C 
BRANCH  74  75
HETATM   75  N   UNK N   1      36.769   6.366  12.640  0.00  0.00    -0.382 N 
HETATM   76  H   UNK N   1      36.164   5.835  12.073  0.00  0.00     0.158 HD
ATOM     77  HN  UNK N   1      37.586   6.779  12.191  1.00  0.00     0.158 HD
ENDBRANCH  74  75
BRANCH  74  78
HETATM   78  O   UNK N   1      35.579   6.017  14.542  0.00  0.00    -0.348 OA
HETATM   79  H   UNK N   1      35.267   5.139  14.637  0.00  0.00     0.219 HD
ENDBRANCH  74  78
ENDBRANCH  70  74
ENDBRANCH  63  67
ENDBRANCH  57  61
ENDBRANCH  10  55
BRANCH  22  80
HETATM   80  O   UNK N   1      32.482   6.555   4.532  0.00  0.00    -0.345 OA
HETATM   81  H   UNK N   1      32.380   5.642   4.717  0.00  0.00     0.219 HD
ENDBRANCH  22  80
BRANCH  11  82
HETATM   82  C   UNK N   1      31.523   8.272   0.860  0.00  0.00     0.115 C 
BRANCH  82  83
HETATM   83  C   UNK N   1      31.845   9.514   0.042  0.00  0.00     0.113 C 
BRANCH  83  84
HETATM   84  N   UNK N   1      31.091   9.927  -0.919  0.00  0.00    -0.379 N 
HETATM   85  C   UNK N   1      30.307  11.130  -0.861  0.00  0.00     0.148 C 
ATOM     86  HN  UNK N   1      31.050   9.367  -1.771  1.00  0.00     0.160 HD
ENDBRANCH  83  84
BRANCH  83  87
HETATM   87  O   UNK N   1      32.985  10.181   0.296  0.00  0.00    -0.350 OA
HETATM   88  H   UNK N   1      33.327  10.233   1.166  0.00  0.00     0.219 HD
ENDBRANCH  83  87
ENDBRANCH  82  83
ENDBRANCH  11  82
BRANCH  21  89
HETATM   89  C   UNK N   1      28.185  18.861   8.030  0.00  0.00     0.180 C 
BRANCH  89  90
HETATM   90  C   UNK N   1      27.500  19.928   7.211  0.00  0.00    -0.027 A 
HETATM   91  C   UNK N   1      27.707  19.937   5.828  0.00  0.00     0.010 A 
HETATM   92  C   UNK N   1      27.138  20.935   5.035  0.00  0.00     0.001 A 
HETATM   93  C   UNK N   1      26.355  21.933   5.619  0.00  0.00     0.000 A 
HETATM   94  C   UNK N   1      26.126  21.926   6.995  0.00  0.00     0.001 A 
HETATM   95  C   UNK N   1      26.691  20.926   7.783  0.00  0.00     0.010 A 
ENDBRANCH  89  90
BRANCH  89  96
HETATM   96  O   UNK N   1      27.369  18.532   9.115  0.00  0.00    -0.388 OA
HETATM   97  H   UNK N   1      27.245  18.433  10.071  0.00  0.00     0.210 HD
ENDBRANCH  89  96
ENDBRANCH  21  89
BRANCH  16  98
HETATM   98  O   UNK N   1      26.984  16.486   5.265  0.00  0.00    -0.348 OA
HETATM   99  H   UNK N   1      27.380  16.700   4.444  0.00  0.00     0.219 HD
ENDBRANCH  16  98
BRANCH  24 100
HETATM  100  O   UNK N   1      25.175   9.377  -0.379  0.00  0.00    -0.345 OA
HETATM  101  H   UNK N   1      24.259   9.180  -0.381  0.00  0.00     0.219 HD
ENDBRANCH  24 100
BRANCH  23 102
HETATM  102  O   UNK N   1      23.079  15.374   4.483  0.00  0.00    -0.345 OA
HETATM  103  H   UNK N   1      22.964  15.579   3.575  0.00  0.00     0.219 HD
ENDBRANCH  23 102
BRANCH  17 104
HETATM  104  C   UNK N   1      23.468  11.461   0.638  0.00  0.00     0.006 C 
HETATM  105  C   UNK N   1      22.080  11.579   1.261  0.00  0.00     0.012 C 
HETATM  106  C   UNK N   1      23.650  12.725  -0.189  0.00  0.00     0.012 C 
ENDBRANCH  17 104
BRANCH  15 107
HETATM  107  C   UNK N   1      27.552  13.730   5.156  0.00  0.00     0.215 C 
BRANCH 107 108
HETATM  108  O   UNK N   1      28.766  13.254   4.657  0.00  0.00    -0.391 OA
HETATM  109  C   UNK N   1      29.365  14.375   4.075  0.00  0.00     0.201 C 
ENDBRANCH 107 108
ENDBRANCH  15 107
TORSDOF 20
ENDMDL
MODEL 8
REMARK VINA RESULT:      -7.1      5.195     10.917
REMARK  20 active torsions:
REMARK  status: ('A' for Active; 'I' for Inactive)
REMARK    1  A    between atoms: C_29  and  C_16 
REMARK    2  A    between atoms: C_37  and  C_16 
REMARK    3  A    between atoms: C_36  and  C_19 
REMARK    4  A    between atoms: O_94  and  C_19 
REMARK    5  A    between atoms: C_39  and  C_24 
REMARK    6  A    between atoms: C_44  and  C_26 
REMARK    7  A    between atoms: C_51  and  C_28 
REMARK    8  A    between atoms: C_30  and  C_56 
REMARK    9  A    between atoms: C_49  and  C_33 
REMARK   10  A    between atoms: C_35  and  C_45 
REMARK   11  A    between atoms: N_59  and  C_37 
REMARK   12  A    between atoms: O_86  and  C_37 
REMARK   13  A    between atoms: C_38  and  O_87 
REMARK   14  A    between atoms: C_43  and  C_44 
REMARK   15  A    between atoms: C_44  and  O_88 
REMARK   16  A    between atoms: N_57  and  C_45 
REMARK   17  A    between atoms: O_89  and  C_45 
REMARK   18  A    between atoms: C_46  and  O_90 
REMARK   19  A    between atoms: O_91  and  C_47 
REMARK   20  A    between atoms: C_48  and  O_92 
REMARK       I    between atoms: N_85  and  C_56 
ROOT
HETATM    1  C   UNK N   1      37.724   9.783  13.654  0.00  0.00     0.059 C 
HETATM    2  C   UNK N   1      30.507  16.413   6.400  0.00  0.00     0.018 A 
HETATM    3  C   UNK N   1      29.282  16.135   5.778  0.00  0.00     0.033 A 
HETATM    4  C   UNK N   1      32.200   5.870   5.471  0.00  0.00     0.205 C 
HETATM    5  C   UNK N   1      33.025  13.978   4.454  0.00  0.00     0.112 C 
HETATM    6  C   UNK N   1      34.077  16.787   8.930  0.00  0.00     0.086 A 
HETATM    7  C   UNK N   1      30.774  11.229   1.404  0.00  0.00     0.084 A 
HETATM    8  C   UNK N   1      37.226  10.517  12.461  0.00  0.00     0.011 A 
HETATM    9  C   UNK N   1      31.509  15.435   6.423  0.00  0.00     0.022 A 
HETATM   10  C   UNK N   1      29.023  14.841   5.284  0.00  0.00     0.066 A 
HETATM   11  C   UNK N   1      35.639  13.282  10.106  0.00  0.00     0.148 C 
HETATM   12  C   UNK N   1      32.221  13.268   5.379  0.00  0.00     0.143 C 
HETATM   13  C   UNK N   1      33.877  15.397   9.072  0.00  0.00     0.090 A 
HETATM   14  C   UNK N   1      31.216  11.018   2.721  0.00  0.00     0.073 A 
HETATM   15  C   UNK N   1      34.640   7.380   6.660  0.00  0.00     0.039 A 
HETATM   16  C   UNK N   1      32.433   6.521   4.157  0.00  0.00     0.130 C 
HETATM   17  C   UNK N   1      37.086   6.714   9.491  0.00  0.00     0.144 C 
HETATM   18  C   UNK N   1      37.229  10.082  11.134  0.00  0.00     0.097 A 
HETATM   19  C   UNK N   1      31.211  14.168   5.901  0.00  0.00     0.046 A 
HETATM   20  C   UNK N   1      34.972   5.976   6.675  0.00  0.00     0.099 A 
HETATM   21  C   UNK N   1      31.604   7.491   2.127  0.00  0.00     0.174 C 
HETATM   22  C   UNK N   1      33.768  14.788  10.409  0.00  0.00     0.164 C 
HETATM   23  C   UNK N   1      34.273   4.776   6.089  0.00  0.00     0.164 C 
HETATM   24  C   UNK N   1      37.756   8.781  10.742  0.00  0.00     0.165 C 
HETATM   25  C   UNK N   1      32.769  15.693   7.116  0.00  0.00     0.086 A 
HETATM   26  C   UNK N   1      31.793  12.047   3.529  0.00  0.00     0.093 C 
HETATM   27  C   UNK N   1      36.162  12.069  10.835  0.00  0.00     0.075 A 
HETATM   28  C   UNK N   1      31.013   8.856   2.147  0.00  0.00     0.077 A 
HETATM   29  C   UNK N   1      36.587   6.782   8.078  0.00  0.00     0.075 A 
HETATM   30  N   UNK N   1      33.085   4.753   5.581  0.00  0.00    -0.362 N 
ATOM     31  HN  UNK N   1      32.748   3.858   5.228  1.00  0.00     0.162 HD
HETATM   32  N   UNK N   1      29.996  13.940   5.366  0.00  0.00    -0.355 N 
ATOM     33  HN  UNK N   1      29.809  13.008   4.998  1.00  0.00     0.166 HD
HETATM   34  N   UNK N   1      34.489  13.796  10.808  0.00  0.00    -0.358 N 
ATOM     35  HN  UNK N   1      34.227  13.343  11.683  1.00  0.00     0.162 HD
HETATM   36  N   UNK N   1      31.669  12.114   4.864  0.00  0.00    -0.372 N 
ATOM     37  HN  UNK N   1      31.218  11.394   5.432  1.00  0.00     0.161 HD
HETATM   38  N   UNK N   1      33.150  14.816   8.067  0.00  0.00    -0.346 N 
ATOM     39  HN  UNK N   1      32.920  13.823   8.041  1.00  0.00     0.167 HD
HETATM   40  N   UNK N   1      31.350   9.720   3.117  0.00  0.00    -0.349 N 
ATOM     41  HN  UNK N   1      31.670   9.438   4.044  1.00  0.00     0.166 HD
HETATM   42  N   UNK N   1      31.432   6.869   3.426  0.00  0.00    -0.360 N 
ATOM     43  HN  UNK N   1      30.488   6.701   3.772  1.00  0.00     0.162 HD
HETATM   44  N   UNK N   1      36.992   8.057  10.021  0.00  0.00    -0.358 N 
ATOM     45  HN  UNK N   1      36.126   8.529   9.760  1.00  0.00     0.162 HD
HETATM   46  N   UNK N   1      36.613  10.936  10.233  0.00  0.00    -0.348 N 
ATOM     47  HN  UNK N   1      36.510  10.739   9.237  1.00  0.00     0.166 HD
HETATM   48  N   UNK N   1      36.060   5.693   7.478  0.00  0.00    -0.348 N 
ATOM     49  HN  UNK N   1      36.430   4.751   7.605  1.00  0.00     0.166 HD
HETATM   50  S   UNK N   1      33.343  17.187   7.506  0.00  0.00    -0.081 SA
HETATM   51  S   UNK N   1      32.743  13.264   2.995  0.00  0.00    -0.108 SA
HETATM   52  S   UNK N   1      30.569   9.713   0.801  0.00  0.00    -0.084 SA
HETATM   53  S   UNK N   1      36.447  11.962  12.468  0.00  0.00    -0.077 SA
HETATM   54  S   UNK N   1      35.754   8.110   7.586  0.00  0.00    -0.074 SA
ENDROOT
BRANCH  10  55
HETATM   55  C   UNK N   1      28.274  14.760   4.044  0.00  0.00     0.093 A 
HETATM   56  N   UNK N   1      28.088  15.948   3.447  0.00  0.00    -0.370 N 
HETATM   57  C   UNK N   1      26.861  16.119   2.871  0.00  0.00     0.166 A 
ATOM     58  HN  UNK N   1      28.809  16.670   3.424  1.00  0.00     0.161 HD
HETATM   59  C   UNK N   1      26.084  14.942   2.874  0.00  0.00     0.114 A 
HETATM   60  S   UNK N   1      26.959  13.833   3.752  0.00  0.00    -0.108 SA
BRANCH  57  61
HETATM   61  C   UNK N   1      26.227  17.274   3.487  0.00  0.00     0.138 C 
HETATM   62  N   UNK N   1      24.992  17.417   3.239  0.00  0.00    -0.357 N 
HETATM   63  C   UNK N   1      24.360  18.160   4.259  0.00  0.00     0.200 C 
ATOM     64  HN  UNK N   1      24.520  17.045   2.416  1.00  0.00     0.162 HD
HETATM   65  C   UNK N   1      25.573  18.737   5.032  0.00  0.00     0.212 C 
HETATM   66  O   UNK N   1      26.628  17.948   4.572  0.00  0.00    -0.335 OA
BRANCH  63  67
HETATM   67  C   UNK N   1      23.238  19.011   3.732  0.00  0.00     0.245 C 
HETATM   68  N   UNK N   1      21.918  18.752   3.981  0.00  0.00    -0.338 N 
HETATM   69  C   UNK N   1      21.528  17.531   4.641  0.00  0.00     0.127 C 
HETATM   70  C   UNK N   1      20.769  19.466   3.467  0.00  0.00     0.161 C 
HETATM   71  C   UNK N   1      20.150  17.229   4.053  0.00  0.00     0.022 C 
HETATM   72  C   UNK N   1      19.887  18.324   3.011  0.00  0.00     0.035 C 
HETATM   73  O   UNK N   1      23.553  20.007   3.082  0.00  0.00    -0.271 OA
BRANCH  70  74
HETATM   74  C   UNK N   1      20.986  20.519   2.391  0.00  0.00     0.132 C 
BRANCH  74  75
HETATM   75  N   UNK N   1      20.790  20.231   1.157  0.00  0.00    -0.382 N 
HETATM   76  H   UNK N   1      19.989  20.466   0.634  0.00  0.00     0.158 HD
ATOM     77  HN  UNK N   1      21.526  19.715   0.675  1.00  0.00     0.158 HD
ENDBRANCH  74  75
BRANCH  74  78
HETATM   78  O   UNK N   1      21.469  21.734   2.717  0.00  0.00    -0.348 OA
HETATM   79  H   UNK N   1      21.313  22.333   3.420  0.00  0.00     0.219 HD
ENDBRANCH  74  78
ENDBRANCH  70  74
ENDBRANCH  63  67
ENDBRANCH  57  61
ENDBRANCH  10  55
BRANCH  22  80
HETATM   80  O   UNK N   1      32.812  15.262  11.228  0.00  0.00    -0.345 OA
HETATM   81  H   UNK N   1      32.539  15.974  11.774  0.00  0.00     0.219 HD
ENDBRANCH  22  80
BRANCH  11  82
HETATM   82  C   UNK N   1      36.715  14.396  10.057  0.00  0.00     0.115 C 
BRANCH  82  83
HETATM   83  C   UNK N   1      38.102  13.948   9.622  0.00  0.00     0.113 C 
BRANCH  83  84
HETATM   84  N   UNK N   1      38.402  13.718   8.389  0.00  0.00    -0.379 N 
HETATM   85  C   UNK N   1      39.259  12.648   7.959  0.00  0.00     0.148 C 
ATOM     86  HN  UNK N   1      38.007  14.334   7.676  1.00  0.00     0.160 HD
ENDBRANCH  83  84
BRANCH  83  87
HETATM   87  O   UNK N   1      39.041  13.735  10.560  0.00  0.00    -0.350 OA
HETATM   88  H   UNK N   1      39.921  13.524  10.318  0.00  0.00     0.219 HD
ENDBRANCH  83  87
ENDBRANCH  82  83
ENDBRANCH  11  82
BRANCH  21  89
HETATM   89  C   UNK N   1      31.009   6.619   1.021  0.00  0.00     0.180 C 
BRANCH  89  90
HETATM   90  C   UNK N   1      31.906   5.508   0.530  0.00  0.00    -0.027 A 
HETATM   91  C   UNK N   1      33.258   5.791   0.322  0.00  0.00     0.010 A 
HETATM   92  C   UNK N   1      34.115   4.811  -0.181  0.00  0.00     0.001 A 
HETATM   93  C   UNK N   1      33.626   3.538  -0.481  0.00  0.00     0.000 A 
HETATM   94  C   UNK N   1      32.282   3.237  -0.261  0.00  0.00     0.001 A 
HETATM   95  C   UNK N   1      31.430   4.215   0.246  0.00  0.00     0.010 A 
ENDBRANCH  89  90
BRANCH  89  96
HETATM   96  O   UNK N   1      29.811   6.064   1.478  0.00  0.00    -0.388 OA
HETATM   97  H   UNK N   1      29.275   5.284   1.690  0.00  0.00     0.210 HD
ENDBRANCH  89  96
ENDBRANCH  21  89
BRANCH  16  98
HETATM   98  O   UNK N   1      33.707   6.739   3.748  0.00  0.00    -0.348 OA
HETATM   99  H   UNK N   1      34.496   6.705   3.244  0.00  0.00     0.219 HD
ENDBRANCH  16  98
BRANCH  24 100
HETATM  100  O   UNK N   1      38.931   8.332  11.221  0.00  0.00    -0.345 OA
HETATM  101  H   UNK N   1      39.063   7.969  12.074  0.00  0.00     0.219 HD
ENDBRANCH  24 100
BRANCH  23 102
HETATM  102  O   UNK N   1      34.939   3.606   6.148  0.00  0.00    -0.345 OA
HETATM  103  H   UNK N   1      35.205   3.249   6.973  0.00  0.00     0.219 HD
ENDBRANCH  23 102
BRANCH  17 104
HETATM  104  C   UNK N   1      38.347   5.889   9.812  0.00  0.00     0.006 C 
HETATM  105  C   UNK N   1      37.947   4.439  10.070  0.00  0.00     0.012 C 
HETATM  106  C   UNK N   1      39.282   5.845   8.614  0.00  0.00     0.012 C 
ENDBRANCH  17 104
BRANCH  15 107
HETATM  107  C   UNK N   1      33.501   8.199   6.148  0.00  0.00     0.215 C 
BRANCH 107 108
HETATM  108  O   UNK N   1      33.207   9.267   6.998  0.00  0.00    -0.391 OA
HETATM  109  C   UNK N   1      31.925   8.985   7.478  0.00  0.00     0.201 C 
ENDBRANCH 107 108
ENDBRANCH  15 107
TORSDOF 20
ENDMDL
MODEL 9
REMARK VINA RESULT:      -7.0      5.456      9.978
REMARK  20 active torsions:
REMARK  status: ('A' for Active; 'I' for Inactive)
REMARK    1  A    between atoms: C_29  and  C_16 
REMARK    2  A    between atoms: C_37  and  C_16 
REMARK    3  A    between atoms: C_36  and  C_19 
REMARK    4  A    between atoms: O_94  and  C_19 
REMARK    5  A    between atoms: C_39  and  C_24 
REMARK    6  A    between atoms: C_44  and  C_26 
REMARK    7  A    between atoms: C_51  and  C_28 
REMARK    8  A    between atoms: C_30  and  C_56 
REMARK    9  A    between atoms: C_49  and  C_33 
REMARK   10  A    between atoms: C_35  and  C_45 
REMARK   11  A    between atoms: N_59  and  C_37 
REMARK   12  A    between atoms: O_86  and  C_37 
REMARK   13  A    between atoms: C_38  and  O_87 
REMARK   14  A    between atoms: C_43  and  C_44 
REMARK   15  A    between atoms: C_44  and  O_88 
REMARK   16  A    between atoms: N_57  and  C_45 
REMARK   17  A    between atoms: O_89  and  C_45 
REMARK   18  A    between atoms: C_46  and  O_90 
REMARK   19  A    between atoms: O_91  and  C_47 
REMARK   20  A    between atoms: C_48  and  O_92 
REMARK       I    between atoms: N_85  and  C_56 
ROOT
HETATM    1  C   UNK N   1      36.400  12.688  14.644  0.00  0.00     0.059 C 
HETATM    2  C   UNK N   1      30.720  16.107   4.412  0.00  0.00     0.018 A 
HETATM    3  C   UNK N   1      29.455  15.809   3.890  0.00  0.00     0.033 A 
HETATM    4  C   UNK N   1      30.010   6.416   8.933  0.00  0.00     0.205 C 
HETATM    5  C   UNK N   1      32.602  12.578   4.162  0.00  0.00     0.112 C 
HETATM    6  C   UNK N   1      34.325  16.968   6.768  0.00  0.00     0.086 A 
HETATM    7  C   UNK N   1      29.745   9.191   2.646  0.00  0.00     0.084 A 
HETATM    8  C   UNK N   1      36.058  12.812  13.203  0.00  0.00     0.011 A 
HETATM    9  C   UNK N   1      31.480  15.093   5.008  0.00  0.00     0.022 A 
HETATM   10  C   UNK N   1      28.906  14.523   4.070  0.00  0.00     0.066 A 
HETATM   11  C   UNK N   1      35.087  14.286   9.654  0.00  0.00     0.148 C 
HETATM   12  C   UNK N   1      31.675  12.603   5.233  0.00  0.00     0.143 C 
HETATM   13  C   UNK N   1      33.823  15.907   7.552  0.00  0.00     0.090 A 
HETATM   14  C   UNK N   1      30.151   9.581   3.934  0.00  0.00     0.073 A 
HETATM   15  C   UNK N   1      32.744   7.792   9.461  0.00  0.00     0.039 A 
HETATM   16  C   UNK N   1      30.361   6.262   7.498  0.00  0.00     0.130 C 
HETATM   17  C   UNK N   1      35.027   8.151  12.478  0.00  0.00     0.144 C 
HETATM   18  C   UNK N   1      35.943  11.783  12.266  0.00  0.00     0.097 A 
HETATM   19  C   UNK N   1      30.899  13.824   5.147  0.00  0.00     0.046 A 
HETATM   20  C   UNK N   1      32.756   6.550  10.194  0.00  0.00     0.099 A 
HETATM   21  C   UNK N   1      29.735   6.233   5.184  0.00  0.00     0.174 C 
HETATM   22  C   UNK N   1      33.603  16.083   8.998  0.00  0.00     0.164 C 
HETATM   23  C   UNK N   1      31.798   5.385  10.205  0.00  0.00     0.164 C 
HETATM   24  C   UNK N   1      36.160  10.384  12.615  0.00  0.00     0.165 C 
HETATM   25  C   UNK N   1      32.777  15.404   5.604  0.00  0.00     0.086 A 
HETATM   26  C   UNK N   1      30.956  10.736   4.187  0.00  0.00     0.093 C 
HETATM   27  C   UNK N   1      35.339  13.522  10.931  0.00  0.00     0.075 A 
HETATM   28  C   UNK N   1      29.463   7.512   4.476  0.00  0.00     0.077 A 
HETATM   29  C   UNK N   1      34.533   7.605  11.172  0.00  0.00     0.075 A 
HETATM   30  N   UNK N   1      30.627   5.351   9.662  0.00  0.00    -0.362 N 
ATOM     31  HN  UNK N   1      30.093   4.488   9.762  1.00  0.00     0.162 HD
HETATM   32  N   UNK N   1      29.655  13.610   4.677  0.00  0.00    -0.355 N 
ATOM     33  HN  UNK N   1      29.259  12.677   4.796  1.00  0.00     0.166 HD
HETATM   34  N   UNK N   1      34.092  15.301   9.899  0.00  0.00    -0.358 N 
ATOM     35  HN  UNK N   1      33.750  15.408  10.854  1.00  0.00     0.162 HD
HETATM   36  N   UNK N   1      30.871  11.483   5.299  0.00  0.00    -0.372 N 
ATOM     37  HN  UNK N   1      30.282  11.251   6.099  1.00  0.00     0.161 HD
HETATM   38  N   UNK N   1      32.968  15.063   6.894  0.00  0.00    -0.346 N 
ATOM     39  HN  UNK N   1      32.523  14.258   7.337  1.00  0.00     0.167 HD
HETATM   40  N   UNK N   1      29.999   8.657   4.926  0.00  0.00    -0.349 N 
ATOM     41  HN  UNK N   1      30.264   8.818   5.898  1.00  0.00     0.166 HD
HETATM   42  N   UNK N   1      29.450   6.392   6.597  0.00  0.00    -0.360 N 
ATOM     43  HN  UNK N   1      28.498   6.612   6.888  1.00  0.00     0.162 HD
HETATM   44  N   UNK N   1      35.243   9.568  12.270  0.00  0.00    -0.358 N 
ATOM     45  HN  UNK N   1      34.499  10.009  11.729  1.00  0.00     0.162 HD
HETATM   46  N   UNK N   1      35.517  12.177  11.007  0.00  0.00    -0.348 N 
ATOM     47  HN  UNK N   1      35.357  11.534  10.231  1.00  0.00     0.166 HD
HETATM   48  N   UNK N   1      33.767   6.492  11.134  0.00  0.00    -0.348 N 
ATOM     49  HN  UNK N   1      33.920   5.687  11.742  1.00  0.00     0.166 HD
HETATM   50  S   UNK N   1      33.675  16.742   5.267  0.00  0.00    -0.081 SA
HETATM   51  S   UNK N   1      32.144  11.305   3.220  0.00  0.00    -0.108 SA
HETATM   52  S   UNK N   1      29.199   7.653   2.847  0.00  0.00    -0.084 SA
HETATM   53  S   UNK N   1      35.620  14.190  12.425  0.00  0.00    -0.077 SA
HETATM   54  S   UNK N   1      34.008   8.646  10.015  0.00  0.00    -0.074 SA
ENDROOT
BRANCH  10  55
HETATM   55  C   UNK N   1      28.138  13.987   2.962  0.00  0.00     0.093 A 
HETATM   56  N   UNK N   1      27.109  14.766   2.591  0.00  0.00    -0.370 N 
HETATM   57  C   UNK N   1      25.971  14.092   2.244  0.00  0.00     0.166 A 
ATOM     58  HN  UNK N   1      27.171  15.783   2.570  1.00  0.00     0.161 HD
HETATM   59  C   UNK N   1      26.156  12.696   2.184  0.00  0.00     0.114 A 
HETATM   60  S   UNK N   1      27.702  12.427   2.736  0.00  0.00    -0.108 SA
BRANCH  57  61
HETATM   61  C   UNK N   1      24.898  14.533   3.121  0.00  0.00     0.138 C 
HETATM   62  N   UNK N   1      24.087  15.367   2.616  0.00  0.00    -0.357 N 
HETATM   63  C   UNK N   1      22.837  15.307   3.268  0.00  0.00     0.200 C 
ATOM     64  HN  UNK N   1      24.308  15.994   1.844  1.00  0.00     0.162 HD
HETATM   65  C   UNK N   1      23.175  14.470   4.529  0.00  0.00     0.212 C 
HETATM   66  O   UNK N   1      24.405  13.904   4.195  0.00  0.00    -0.335 OA
BRANCH  63  67
HETATM   67  C   UNK N   1      22.160  16.648   3.327  0.00  0.00     0.245 C 
HETATM   68  N   UNK N   1      21.064  16.968   2.573  0.00  0.00    -0.338 N 
HETATM   69  C   UNK N   1      20.597  16.070   1.548  0.00  0.00     0.127 C 
HETATM   70  C   UNK N   1      20.386  18.245   2.507  0.00  0.00     0.161 C 
HETATM   71  C   UNK N   1      19.995  17.003   0.498  0.00  0.00     0.022 C 
HETATM   72  C   UNK N   1      20.238  18.428   1.012  0.00  0.00     0.035 C 
HETATM   73  O   UNK N   1      22.609  17.463   4.131  0.00  0.00    -0.271 OA
BRANCH  70  74
HETATM   74  C   UNK N   1      21.018  19.445   3.195  0.00  0.00     0.132 C 
BRANCH  74  75
HETATM   75  N   UNK N   1      21.893  20.155   2.582  0.00  0.00    -0.382 N 
HETATM   76  H   UNK N   1      21.709  20.981   2.079  0.00  0.00     0.158 HD
ATOM     77  HN  UNK N   1      22.861  19.836   2.618  1.00  0.00     0.158 HD
ENDBRANCH  74  75
BRANCH  74  78
HETATM   78  O   UNK N   1      20.731  19.719   4.483  0.00  0.00    -0.348 OA
HETATM   79  H   UNK N   1      19.970  20.031   4.932  0.00  0.00     0.219 HD
ENDBRANCH  74  78
ENDBRANCH  70  74
ENDBRANCH  63  67
ENDBRANCH  57  61
ENDBRANCH  10  55
BRANCH  22  80
HETATM   80  O   UNK N   1      32.790  17.083   9.383  0.00  0.00    -0.345 OA
HETATM   81  H   UNK N   1      31.905  17.348   9.542  0.00  0.00     0.219 HD
ENDBRANCH  22  80
BRANCH  11  82
HETATM   82  C   UNK N   1      36.383  14.986   9.171  0.00  0.00     0.115 C 
BRANCH  82  83
HETATM   83  C   UNK N   1      37.646  14.139   9.232  0.00  0.00     0.113 C 
BRANCH  83  84
HETATM   84  N   UNK N   1      37.851  13.140   8.443  0.00  0.00    -0.379 N 
HETATM   85  C   UNK N   1      38.462  11.906   8.854  0.00  0.00     0.148 C 
ATOM     86  HN  UNK N   1      37.562  13.232   7.468  1.00  0.00     0.160 HD
ENDBRANCH  83  84
BRANCH  83  87
HETATM   87  O   UNK N   1      38.564  14.408  10.177  0.00  0.00    -0.350 OA
HETATM   88  H   UNK N   1      39.072  15.195  10.142  0.00  0.00     0.219 HD
ENDBRANCH  83  87
ENDBRANCH  82  83
ENDBRANCH  11  82
BRANCH  21  89
HETATM   89  C   UNK N   1      28.944   5.066   4.594  0.00  0.00     0.180 C 
BRANCH  89  90
HETATM   90  C   UNK N   1      29.780   3.907   4.109  0.00  0.00    -0.027 A 
HETATM   91  C   UNK N   1      31.163   3.960   4.304  0.00  0.00     0.010 A 
HETATM   92  C   UNK N   1      31.983   2.938   3.825  0.00  0.00     0.001 A 
HETATM   93  C   UNK N   1      31.427   1.852   3.145  0.00  0.00     0.000 A 
HETATM   94  C   UNK N   1      30.047   1.778   2.958  0.00  0.00     0.001 A 
HETATM   95  C   UNK N   1      29.230   2.797   3.442  0.00  0.00     0.010 A 
ENDBRANCH  89  90
BRANCH  89  96
HETATM   96  O   UNK N   1      28.042   4.600   5.556  0.00  0.00    -0.388 OA
HETATM   97  H   UNK N   1      27.816   4.437   6.484  0.00  0.00     0.210 HD
ENDBRANCH  89  96
ENDBRANCH  21  89
BRANCH  16  98
HETATM   98  O   UNK N   1      31.645   5.986   7.161  0.00  0.00    -0.348 OA
HETATM   99  H   UNK N   1      32.563   5.814   7.228  0.00  0.00     0.219 HD
ENDBRANCH  16  98
BRANCH  24 100
HETATM  100  O   UNK N   1      37.214  10.008  13.364  0.00  0.00    -0.345 OA
HETATM  101  H   UNK N   1      37.854   9.371  13.114  0.00  0.00     0.219 HD
ENDBRANCH  24 100
BRANCH  23 102
HETATM  102  O   UNK N   1      32.188   4.294  10.895  0.00  0.00    -0.345 OA
HETATM  103  H   UNK N   1      31.901   4.158  11.776  0.00  0.00     0.219 HD
ENDBRANCH  23 102
BRANCH  17 104
HETATM  104  C   UNK N   1      36.078   7.363  13.283  0.00  0.00     0.006 C 
HETATM  105  C   UNK N   1      35.381   6.263  14.078  0.00  0.00     0.012 C 
HETATM  106  C   UNK N   1      37.041   6.643  12.352  0.00  0.00     0.012 C 
ENDBRANCH  17 104
BRANCH  15 107
HETATM  107  C   UNK N   1      31.808   8.456   8.506  0.00  0.00     0.215 C 
BRANCH 107 108
HETATM  108  O   UNK N   1      32.363   9.611   7.953  0.00  0.00    -0.391 OA
HETATM  109  C   UNK N   1      33.000   9.168   6.790  0.00  0.00     0.201 C 
ENDBRANCH 107 108
ENDBRANCH  15 107
TORSDOF 20
ENDMDL
