MODEL 1
REMARK VINA RESULT:      -3.9      0.000      0.000
REMARK  6 active torsions:
REMARK  status: ('A' for Active; 'I' for Inactive)
REMARK    1  A    between atoms: C_2  and  N_1 
REMARK    2  A    between atoms: C_2  and  C_3 
REMARK    3  A    between atoms: C_2  and  C_6 
REMARK    4  A    between atoms: C_3  and  S_4 
REMARK    5  A    between atoms: S_4  and  S_5 
REMARK    6  A    between atoms: C_6  and  O_7 
ROOT
HETATM    1  C   UNK N   1      34.063  17.174   9.060  0.00  0.00     0.183 C 
ENDROOT
BRANCH   1   2
HETATM    2  N   UNK N   1      34.726  17.012  10.355  0.00  0.00    -0.417 N 
HETATM    3  H   UNK N   1      35.368  17.728  10.693  0.00  0.00     0.150 HD
HETATM    4  H   UNK N   1      34.545  16.182  10.919  0.00  0.00     0.150 HD
ENDBRANCH   1   2
BRANCH   1   5
HETATM    5  C   UNK N   1      32.849  16.232   8.803  0.00  0.00     0.121 C 
BRANCH   5   6
HETATM    6  S   UNK N   1      31.363  17.240   8.425  0.00  0.00    -0.098 SA
BRANCH   6   7
HETATM    7  S   UNK N   1      30.934  16.846   6.382  0.00  0.00    -0.111 SA
HETATM    8  H   UNK N   1      29.989  15.926   6.051  0.00  0.00     0.114 HD
ENDBRANCH   6   7
ENDBRANCH   5   6
ENDBRANCH   1   5
BRANCH   1   9
HETATM    9  C   UNK N   1      34.629  18.250   8.096  0.00  0.00     0.163 C 
HETATM   10  O   UNK N   1      35.259  19.214   8.522  0.00  0.00    -0.648 OA
BRANCH   9  11
HETATM   11  O   UNK N   1      34.448  18.160   6.768  0.00  0.00    -0.775 OA
HETATM   12  H   UNK N   1      35.124  18.442   6.183  0.00  0.00     0.167 HD
ENDBRANCH   9  11
ENDBRANCH   1   9
TORSDOF 6
ENDMDL
MODEL 2
REMARK VINA RESULT:      -3.7      2.453      2.688
REMARK  6 active torsions:
REMARK  status: ('A' for Active; 'I' for Inactive)
REMARK    1  A    between atoms: C_2  and  N_1 
REMARK    2  A    between atoms: C_2  and  C_3 
REMARK    3  A    between atoms: C_2  and  C_6 
REMARK    4  A    between atoms: C_3  and  S_4 
REMARK    5  A    between atoms: S_4  and  S_5 
REMARK    6  A    between atoms: C_6  and  O_7 
ROOT
HETATM    1  C   UNK N   1      34.537  16.989   9.082  0.00  0.00     0.183 C 
ENDROOT
BRANCH   1   2
HETATM    2  N   UNK N   1      34.891  17.114  10.496  0.00  0.00    -0.417 N 
HETATM    3  H   UNK N   1      35.486  16.413  10.937  0.00  0.00     0.150 HD
HETATM    4  H   UNK N   1      34.542  17.902  11.041  0.00  0.00     0.150 HD
ENDBRANCH   1   2
BRANCH   1   5
HETATM    5  C   UNK N   1      33.977  15.602   8.649  0.00  0.00     0.121 C 
BRANCH   5   6
HETATM    6  S   UNK N   1      35.341  14.576   7.973  0.00  0.00    -0.098 SA
BRANCH   6   7
HETATM    7  S   UNK N   1      35.259  14.866   5.870  0.00  0.00    -0.111 SA
HETATM    8  H   UNK N   1      35.815  13.948   5.035  0.00  0.00     0.114 HD
ENDBRANCH   6   7
ENDBRANCH   5   6
ENDBRANCH   1   5
BRANCH   1   9
HETATM    9  C   UNK N   1      34.752  18.231   8.178  0.00  0.00     0.163 C 
HETATM   10  O   UNK N   1      34.375  18.237   7.009  0.00  0.00    -0.648 OA
BRANCH   9  11
HETATM   11  O   UNK N   1      35.357  19.336   8.644  0.00  0.00    -0.775 OA
HETATM   12  H   UNK N   1      35.074  20.182   8.356  0.00  0.00     0.167 HD
ENDBRANCH   9  11
ENDBRANCH   1   9
TORSDOF 6
ENDMDL
MODEL 3
REMARK VINA RESULT:      -3.6     14.311     14.821
REMARK  6 active torsions:
REMARK  status: ('A' for Active; 'I' for Inactive)
REMARK    1  A    between atoms: C_2  and  N_1 
REMARK    2  A    between atoms: C_2  and  C_3 
REMARK    3  A    between atoms: C_2  and  C_6 
REMARK    4  A    between atoms: C_3  and  S_4 
REMARK    5  A    between atoms: S_4  and  S_5 
REMARK    6  A    between atoms: C_6  and  O_7 
ROOT
HETATM    1  C   UNK N   1      20.249  19.119   2.206  0.00  0.00     0.183 C 
ENDROOT
BRANCH   1   2
HETATM    2  N   UNK N   1      18.802  18.908   2.265  0.00  0.00    -0.417 N 
HETATM    3  H   UNK N   1      18.213  19.190   1.482  0.00  0.00     0.150 HD
HETATM    4  H   UNK N   1      18.383  18.479   3.090  0.00  0.00     0.150 HD
ENDBRANCH   1   2
BRANCH   1   5
HETATM    5  C   UNK N   1      21.111  18.097   3.006  0.00  0.00     0.121 C 
BRANCH   5   6
HETATM    6  S   UNK N   1      20.252  16.476   3.051  0.00  0.00    -0.098 SA
BRANCH   6   7
HETATM    7  S   UNK N   1      20.432  15.702   1.081  0.00  0.00    -0.111 SA
HETATM    8  H   UNK N   1      19.315  15.423   0.355  0.00  0.00     0.114 HD
ENDBRANCH   6   7
ENDBRANCH   5   6
ENDBRANCH   1   5
BRANCH   1   9
HETATM    9  C   UNK N   1      20.764  20.318   1.367  0.00  0.00     0.163 C 
HETATM   10  O   UNK N   1      21.367  21.248   1.895  0.00  0.00    -0.648 OA
BRANCH   9  11
HETATM   11  O   UNK N   1      20.567  20.375   0.039  0.00  0.00    -0.775 OA
HETATM   12  H   UNK N   1      21.179  20.831  -0.506  0.00  0.00     0.167 HD
ENDBRANCH   9  11
ENDBRANCH   1   9
TORSDOF 6
ENDMDL
MODEL 4
REMARK VINA RESULT:      -3.6      3.177      3.583
REMARK  6 active torsions:
REMARK  status: ('A' for Active; 'I' for Inactive)
REMARK    1  A    between atoms: C_2  and  N_1 
REMARK    2  A    between atoms: C_2  and  C_3 
REMARK    3  A    between atoms: C_2  and  C_6 
REMARK    4  A    between atoms: C_3  and  S_4 
REMARK    5  A    between atoms: S_4  and  S_5 
REMARK    6  A    between atoms: C_6  and  O_7 
ROOT
HETATM    1  C   UNK N   1      34.237  17.186   9.189  0.00  0.00     0.183 C 
ENDROOT
BRANCH   1   2
HETATM    2  N   UNK N   1      32.830  16.787   9.170  0.00  0.00    -0.417 N 
HETATM    3  H   UNK N   1      32.113  17.429   9.505  0.00  0.00     0.150 HD
HETATM    4  H   UNK N   1      32.566  15.865   8.821  0.00  0.00     0.150 HD
ENDBRANCH   1   2
BRANCH   1   5
HETATM    5  C   UNK N   1      35.127  16.466  10.246  0.00  0.00     0.121 C 
BRANCH   5   6
HETATM    6  S   UNK N   1      35.731  14.876   9.555  0.00  0.00    -0.098 SA
BRANCH   6   7
HETATM    7  S   UNK N   1      36.609  13.858  11.199  0.00  0.00    -0.111 SA
HETATM    8  H   UNK N   1      37.119  14.566  12.243  0.00  0.00     0.114 HD
ENDBRANCH   6   7
ENDBRANCH   5   6
ENDBRANCH   1   5
BRANCH   1   9
HETATM    9  C   UNK N   1      34.689  18.267   8.172  0.00  0.00     0.163 C 
HETATM   10  O   UNK N   1      35.297  19.269   8.539  0.00  0.00    -0.648 OA
BRANCH   9  11
HETATM   11  O   UNK N   1      34.430  18.140   6.859  0.00  0.00    -0.775 OA
HETATM   12  H   UNK N   1      33.877  17.447   6.556  0.00  0.00     0.167 HD
ENDBRANCH   9  11
ENDBRANCH   1   9
TORSDOF 6
ENDMDL
MODEL 5
REMARK VINA RESULT:      -3.6     13.869     14.359
REMARK  6 active torsions:
REMARK  status: ('A' for Active; 'I' for Inactive)
REMARK    1  A    between atoms: C_2  and  N_1 
REMARK    2  A    between atoms: C_2  and  C_3 
REMARK    3  A    between atoms: C_2  and  C_6 
REMARK    4  A    between atoms: C_3  and  S_4 
REMARK    5  A    between atoms: S_4  and  S_5 
REMARK    6  A    between atoms: C_6  and  O_7 
ROOT
HETATM    1  C   UNK N   1      20.261  18.942   2.268  0.00  0.00     0.183 C 
ENDROOT
BRANCH   1   2
HETATM    2  N   UNK N   1      18.812  18.745   2.322  0.00  0.00    -0.417 N 
HETATM    3  H   UNK N   1      18.429  17.816   2.492  0.00  0.00     0.150 HD
HETATM    4  H   UNK N   1      18.186  19.539   2.190  0.00  0.00     0.150 HD
ENDBRANCH   1   2
BRANCH   1   5
HETATM    5  C   UNK N   1      21.110  17.927   3.091  0.00  0.00     0.121 C 
BRANCH   5   6
HETATM    6  S   UNK N   1      21.470  18.633   4.746  0.00  0.00    -0.098 SA
BRANCH   6   7
HETATM    7  S   UNK N   1      21.815  16.953   5.999  0.00  0.00    -0.111 SA
HETATM    8  H   UNK N   1      22.970  16.243   5.882  0.00  0.00     0.114 HD
ENDBRANCH   6   7
ENDBRANCH   5   6
ENDBRANCH   1   5
BRANCH   1   9
HETATM    9  C   UNK N   1      20.792  20.121   1.410  0.00  0.00     0.163 C 
HETATM   10  O   UNK N   1      21.338  21.089   1.933  0.00  0.00    -0.648 OA
BRANCH   9  11
HETATM   11  O   UNK N   1      20.671  20.120   0.072  0.00  0.00    -0.775 OA
HETATM   12  H   UNK N   1      19.929  20.526  -0.331  0.00  0.00     0.167 HD
ENDBRANCH   9  11
ENDBRANCH   1   9
TORSDOF 6
ENDMDL
MODEL 6
REMARK VINA RESULT:      -3.5      4.865      5.273
REMARK  6 active torsions:
REMARK  status: ('A' for Active; 'I' for Inactive)
REMARK    1  A    between atoms: C_2  and  N_1 
REMARK    2  A    between atoms: C_2  and  C_3 
REMARK    3  A    between atoms: C_2  and  C_6 
REMARK    4  A    between atoms: C_3  and  S_4 
REMARK    5  A    between atoms: S_4  and  S_5 
REMARK    6  A    between atoms: C_6  and  O_7 
ROOT
HETATM    1  C   UNK N   1      34.696  15.030  11.224  0.00  0.00     0.183 C 
ENDROOT
BRANCH   1   2
HETATM    2  N   UNK N   1      33.313  15.109  10.751  0.00  0.00    -0.417 N 
HETATM    3  H   UNK N   1      33.103  14.972   9.763  0.00  0.00     0.150 HD
HETATM    4  H   UNK N   1      32.559  15.300  11.411  0.00  0.00     0.150 HD
ENDBRANCH   1   2
BRANCH   1   5
HETATM    5  C   UNK N   1      35.064  13.741  12.016  0.00  0.00     0.121 C 
BRANCH   5   6
HETATM    6  S   UNK N   1      35.733  12.484  10.859  0.00  0.00    -0.098 SA
BRANCH   6   7
HETATM    7  S   UNK N   1      37.835  12.514  11.166  0.00  0.00    -0.111 SA
HETATM    8  H   UNK N   1      38.390  11.745  12.142  0.00  0.00     0.114 HD
ENDBRANCH   6   7
ENDBRANCH   5   6
ENDBRANCH   1   5
BRANCH   1   9
HETATM    9  C   UNK N   1      35.634  16.221  10.892  0.00  0.00     0.163 C 
HETATM   10  O   UNK N   1      35.180  17.330  10.622  0.00  0.00    -0.648 OA
BRANCH   9  11
HETATM   11  O   UNK N   1      36.970  16.076  10.890  0.00  0.00    -0.775 OA
HETATM   12  H   UNK N   1      37.479  16.415  11.600  0.00  0.00     0.167 HD
ENDBRANCH   9  11
ENDBRANCH   1   9
TORSDOF 6
ENDMDL
MODEL 7
REMARK VINA RESULT:      -3.4      2.641      3.048
REMARK  6 active torsions:
REMARK  status: ('A' for Active; 'I' for Inactive)
REMARK    1  A    between atoms: C_2  and  N_1 
REMARK    2  A    between atoms: C_2  and  C_3 
REMARK    3  A    between atoms: C_2  and  C_6 
REMARK    4  A    between atoms: C_3  and  S_4 
REMARK    5  A    between atoms: S_4  and  S_5 
REMARK    6  A    between atoms: C_6  and  O_7 
ROOT
HETATM    1  C   UNK N   1      34.598  15.481   9.948  0.00  0.00     0.183 C 
ENDROOT
BRANCH   1   2
HETATM    2  N   UNK N   1      33.602  15.045  10.927  0.00  0.00    -0.417 N 
HETATM    3  H   UNK N   1      33.612  14.087  11.273  0.00  0.00     0.150 HD
HETATM    4  H   UNK N   1      32.896  15.701  11.262  0.00  0.00     0.150 HD
ENDBRANCH   1   2
BRANCH   1   5
HETATM    5  C   UNK N   1      34.433  14.898   8.513  0.00  0.00     0.121 C 
BRANCH   5   6
HETATM    6  S   UNK N   1      34.250  16.274   7.312  0.00  0.00    -0.098 SA
BRANCH   6   7
HETATM    7  S   UNK N   1      32.702  17.495   8.103  0.00  0.00    -0.111 SA
HETATM    8  H   UNK N   1      32.771  17.931   9.390  0.00  0.00     0.114 HD
ENDBRANCH   6   7
ENDBRANCH   5   6
ENDBRANCH   1   5
BRANCH   1   9
HETATM    9  C   UNK N   1      35.697  16.463  10.434  0.00  0.00     0.163 C 
HETATM   10  O   UNK N   1      35.539  17.678  10.359  0.00  0.00    -0.648 OA
BRANCH   9  11
HETATM   11  O   UNK N   1      36.853  16.014  10.952  0.00  0.00    -0.775 OA
HETATM   12  H   UNK N   1      37.320  16.534  11.577  0.00  0.00     0.167 HD
ENDBRANCH   9  11
ENDBRANCH   1   9
TORSDOF 6
ENDMDL
MODEL 8
REMARK VINA RESULT:      -3.1     11.672     11.840
REMARK  6 active torsions:
REMARK  status: ('A' for Active; 'I' for Inactive)
REMARK    1  A    between atoms: C_2  and  N_1 
REMARK    2  A    between atoms: C_2  and  C_3 
REMARK    3  A    between atoms: C_2  and  C_6 
REMARK    4  A    between atoms: C_3  and  S_4 
REMARK    5  A    between atoms: S_4  and  S_5 
REMARK    6  A    between atoms: C_6  and  O_7 
ROOT
HETATM    1  C   UNK N   1      44.406  21.358   3.688  0.00  0.00     0.183 C 
ENDROOT
BRANCH   1   2
HETATM    2  N   UNK N   1      45.840  21.092   3.797  0.00  0.00    -0.417 N 
HETATM    3  H   UNK N   1      46.452  21.256   2.998  0.00  0.00     0.150 HD
HETATM    4  H   UNK N   1      46.228  20.742   4.673  0.00  0.00     0.150 HD
ENDBRANCH   1   2
BRANCH   1   5
HETATM    5  C   UNK N   1      43.598  20.350   2.818  0.00  0.00     0.121 C 
BRANCH   5   6
HETATM    6  S   UNK N   1      41.840  20.359   3.346  0.00  0.00    -0.098 SA
BRANCH   6   7
HETATM    7  S   UNK N   1      40.880  21.732   2.041  0.00  0.00    -0.111 SA
HETATM    8  H   UNK N   1      41.484  22.103   0.880  0.00  0.00     0.114 HD
ENDBRANCH   6   7
ENDBRANCH   5   6
ENDBRANCH   1   5
BRANCH   1   9
HETATM    9  C   UNK N   1      43.849  22.597   4.439  0.00  0.00     0.163 C 
HETATM   10  O   UNK N   1      43.765  22.610   5.664  0.00  0.00    -0.648 OA
BRANCH   9  11
HETATM   11  O   UNK N   1      43.441  23.690   3.773  0.00  0.00    -0.775 OA
HETATM   12  H   UNK N   1      42.533  23.804   3.571  0.00  0.00     0.167 HD
ENDBRANCH   9  11
ENDBRANCH   1   9
TORSDOF 6
ENDMDL
MODEL 9
REMARK VINA RESULT:      -3.1     12.837     13.357
REMARK  6 active torsions:
REMARK  status: ('A' for Active; 'I' for Inactive)
REMARK    1  A    between atoms: C_2  and  N_1 
REMARK    2  A    between atoms: C_2  and  C_3 
REMARK    3  A    between atoms: C_2  and  C_6 
REMARK    4  A    between atoms: C_3  and  S_4 
REMARK    5  A    between atoms: S_4  and  S_5 
REMARK    6  A    between atoms: C_6  and  O_7 
ROOT
HETATM    1  C   UNK N   1      44.647  22.748   3.273  0.00  0.00     0.183 C 
ENDROOT
BRANCH   1   2
HETATM    2  N   UNK N   1      45.644  22.133   4.149  0.00  0.00    -0.417 N 
HETATM    3  H   UNK N   1      45.947  21.173   3.983  0.00  0.00     0.150 HD
HETATM    4  H   UNK N   1      46.037  22.664   4.926  0.00  0.00     0.150 HD
ENDBRANCH   1   2
BRANCH   1   5
HETATM    5  C   UNK N   1      43.224  22.119   3.326  0.00  0.00     0.121 C 
BRANCH   5   6
HETATM    6  S   UNK N   1      42.573  21.934   1.620  0.00  0.00    -0.098 SA
BRANCH   6   7
HETATM    7  S   UNK N   1      41.210  23.544   1.372  0.00  0.00    -0.111 SA
HETATM    8  H   UNK N   1      39.942  23.301   0.943  0.00  0.00     0.114 HD
ENDBRANCH   6   7
ENDBRANCH   5   6
ENDBRANCH   1   5
BRANCH   1   9
HETATM    9  C   UNK N   1      45.106  23.944   2.396  0.00  0.00     0.163 C 
HETATM   10  O   UNK N   1      44.936  25.103   2.767  0.00  0.00    -0.648 OA
BRANCH   9  11
HETATM   11  O   UNK N   1      45.701  23.750   1.208  0.00  0.00    -0.775 OA
HETATM   12  H   UNK N   1      46.486  24.216   0.995  0.00  0.00     0.167 HD
ENDBRANCH   9  11
ENDBRANCH   1   9
TORSDOF 6
ENDMDL
