MODEL 1
REMARK VINA RESULT:      -9.3      0.000      0.000
REMARK  13 active torsions:
REMARK  status: ('A' for Active; 'I' for Inactive)
REMARK    1  A    between atoms: C_22  and  C_17 
REMARK    2  A    between atoms: C_25  and  C_17 
REMARK    3  A    between atoms: C_23  and  C_18 
REMARK    4  A    between atoms: N_33  and  C_18 
REMARK    5  A    between atoms: C_29  and  C_24 
REMARK    6  A    between atoms: C_27  and  C_25 
REMARK    7  A    between atoms: C_25  and  N_35 
REMARK    8  A    between atoms: O_38  and  C_26 
REMARK    9  A    between atoms: C_31  and  C_27 
REMARK   10  A    between atoms: C_27  and  O_39 
REMARK   11  A    between atoms: C_28  and  C_30 
REMARK   12  A    between atoms: C_29  and  O_40 
REMARK   13  A    between atoms: O_41  and  C_30 
REMARK       I    between atoms: N_37  and  C_31 
ROOT
HETATM    1  C   UNK N   1      34.384  16.713  10.002  0.00  0.00     0.233 C 
ENDROOT
BRANCH   1   2
HETATM    2  C   UNK N   1      33.584  16.705   8.688  0.00  0.00     0.125 C 
BRANCH   2   3
HETATM    3  C   UNK N   1      34.243  17.490   7.547  0.00  0.00     0.066 C 
BRANCH   3   4
HETATM    4  C   UNK N   1      33.953  16.990   6.178  0.00  0.00    -0.056 A 
HETATM    5  C   UNK N   1      33.295  17.796   5.239  0.00  0.00     0.007 A 
HETATM    6  C   UNK N   1      32.999  17.289   3.973  0.00  0.00     0.001 A 
HETATM    7  C   UNK N   1      33.374  15.984   3.642  0.00  0.00     0.000 A 
HETATM    8  C   UNK N   1      34.046  15.188   4.574  0.00  0.00     0.001 A 
HETATM    9  C   UNK N   1      34.330  15.691   5.844  0.00  0.00     0.007 A 
ENDBRANCH   3   4
ENDBRANCH   2   3
BRANCH   2  10
HETATM   10  N   UNK N   1      32.326  17.398   8.827  0.00  0.00    -0.362 N 
HETATM   11  C   UNK N   1      31.237  16.764   9.069  0.00  0.00     0.147 C 
ATOM     12  HN  UNK N   1      32.301  18.414   8.731  1.00  0.00     0.162 HD
BRANCH  11  13
HETATM   13  C   UNK N   1      30.231  16.879   7.995  0.00  0.00     0.023 A 
HETATM   14  C   UNK N   1      30.536  16.236   6.788  0.00  0.00     0.016 A 
HETATM   15  C   UNK N   1      29.833  16.534   5.625  0.00  0.00     0.004 A 
HETATM   16  C   UNK N   1      28.819  17.489   5.649  0.00  0.00     0.037 A 
HETATM   17  C   UNK N   1      28.478  18.125   6.845  0.00  0.00     0.072 A 
HETATM   18  C   UNK N   1      29.175  17.829   8.029  0.00  0.00    -0.014 A 
HETATM   19  C   UNK N   1      28.811  18.555   9.289  0.00  0.00     0.052 C 
BRANCH  17  20
HETATM   20  O   UNK N   1      27.501  19.049   6.842  0.00  0.00    -0.360 OA
HETATM   21  H   UNK N   1      27.228  19.945   6.850  0.00  0.00     0.217 HD
ENDBRANCH  17  20
ENDBRANCH  11  13
BRANCH  11  22
HETATM   22  O   UNK N   1      31.260  15.629   9.802  0.00  0.00    -0.346 OA
HETATM   23  H   UNK N   1      31.627  14.822  10.105  0.00  0.00     0.219 HD
ENDBRANCH  11  22
ENDBRANCH   2  10
ENDBRANCH   1   2
BRANCH   1  24
HETATM   24  C   UNK N   1      34.488  15.290  10.516  0.00  0.00     0.252 C 
HETATM   25  N   UNK N   1      35.496  14.409  10.169  0.00  0.00    -0.327 N 
HETATM   26  C   UNK N   1      36.463  14.693   9.132  0.00  0.00     0.201 C 
HETATM   27  C   UNK N   1      35.602  13.078  10.741  0.00  0.00     0.180 C 
HETATM   28  S   UNK N   1      36.987  13.081   8.462  0.00  0.00    -0.137 SA
HETATM   29  C   UNK N   1      36.890  12.458  10.160  0.00  0.00     0.030 C 
HETATM   30  C   UNK N   1      36.840  10.941  10.176  0.00  0.00     0.029 C 
HETATM   31  C   UNK N   1      38.155  12.918  10.880  0.00  0.00     0.029 C 
HETATM   32  O   UNK N   1      33.611  14.918  11.294  0.00  0.00    -0.270 OA
BRANCH  27  33
HETATM   33  C   UNK N   1      35.575  13.082  12.268  0.00  0.00     0.136 C 
HETATM   34  N   UNK N   1      36.602  13.520  12.914  0.00  0.00    -0.368 N 
ATOM     35  HN  UNK N   1      37.458  13.692  12.387  1.00  0.00     0.161 HD
BRANCH  34  36
HETATM   36  C   UNK N   1      36.621  13.779  14.328  0.00  0.00     0.160 C 
BRANCH  36  37
HETATM   37  C   UNK N   1      36.673  12.442  15.022  0.00  0.00    -0.035 A 
HETATM   38  C   UNK N   1      37.544  11.447  14.545  0.00  0.00     0.009 A 
HETATM   39  C   UNK N   1      37.648  10.219  15.207  0.00  0.00     0.001 A 
HETATM   40  C   UNK N   1      36.883   9.973  16.349  0.00  0.00     0.001 A 
HETATM   41  C   UNK N   1      36.011  10.954  16.828  0.00  0.00     0.007 A 
HETATM   42  C   UNK N   1      35.903  12.187  16.173  0.00  0.00    -0.054 A 
HETATM   43  C   UNK N   1      34.978  13.218  16.724  0.00  0.00     0.049 C 
ENDBRANCH  36  37
ENDBRANCH  34  36
BRANCH  33  44
HETATM   44  O   UNK N   1      34.456  12.712  12.923  0.00  0.00    -0.348 OA
HETATM   45  H   UNK N   1      33.809  13.259  13.323  0.00  0.00     0.219 HD
ENDBRANCH  33  44
ENDBRANCH  27  33
ENDBRANCH   1  24
BRANCH   1  46
HETATM   46  O   UNK N   1      35.636  17.306   9.826  0.00  0.00    -0.384 OA
HETATM   47  H   UNK N   1      35.816  18.134   9.354  0.00  0.00     0.210 HD
ENDBRANCH   1  46
TORSDOF 13
ENDMDL
MODEL 2
REMARK VINA RESULT:      -8.8     17.067     20.434
REMARK  13 active torsions:
REMARK  status: ('A' for Active; 'I' for Inactive)
REMARK    1  A    between atoms: C_22  and  C_17 
REMARK    2  A    between atoms: C_25  and  C_17 
REMARK    3  A    between atoms: C_23  and  C_18 
REMARK    4  A    between atoms: N_33  and  C_18 
REMARK    5  A    between atoms: C_29  and  C_24 
REMARK    6  A    between atoms: C_27  and  C_25 
REMARK    7  A    between atoms: C_25  and  N_35 
REMARK    8  A    between atoms: O_38  and  C_26 
REMARK    9  A    between atoms: C_31  and  C_27 
REMARK   10  A    between atoms: C_27  and  O_39 
REMARK   11  A    between atoms: C_28  and  C_30 
REMARK   12  A    between atoms: C_29  and  O_40 
REMARK   13  A    between atoms: O_41  and  C_30 
REMARK       I    between atoms: N_37  and  C_31 
ROOT
HETATM    1  C   UNK N   1      25.967  23.215  -8.682  0.00  0.00     0.233 C 
ENDROOT
BRANCH   1   2
HETATM    2  C   UNK N   1      26.742  24.226  -7.821  0.00  0.00     0.125 C 
BRANCH   2   3
HETATM    3  C   UNK N   1      27.091  23.717  -6.416  0.00  0.00     0.066 C 
BRANCH   3   4
HETATM    4  C   UNK N   1      28.218  24.416  -5.745  0.00  0.00    -0.056 A 
HETATM    5  C   UNK N   1      28.168  24.722  -4.379  0.00  0.00     0.007 A 
HETATM    6  C   UNK N   1      29.221  25.414  -3.782  0.00  0.00     0.001 A 
HETATM    7  C   UNK N   1      30.329  25.788  -4.546  0.00  0.00     0.000 A 
HETATM    8  C   UNK N   1      30.386  25.467  -5.906  0.00  0.00     0.001 A 
HETATM    9  C   UNK N   1      29.326  24.786  -6.505  0.00  0.00     0.007 A 
ENDBRANCH   3   4
ENDBRANCH   2   3
BRANCH   2  10
HETATM   10  N   UNK N   1      25.944  25.389  -7.517  0.00  0.00    -0.362 N 
HETATM   11  C   UNK N   1      26.302  26.562  -7.894  0.00  0.00     0.147 C 
ATOM     12  HN  UNK N   1      25.077  25.277  -6.991  1.00  0.00     0.162 HD
BRANCH  11  13
HETATM   13  C   UNK N   1      26.577  27.488  -6.778  0.00  0.00     0.023 A 
HETATM   14  C   UNK N   1      27.857  28.056  -6.745  0.00  0.00     0.016 A 
HETATM   15  C   UNK N   1      28.331  28.678  -5.594  0.00  0.00     0.004 A 
HETATM   16  C   UNK N   1      27.534  28.731  -4.452  0.00  0.00     0.037 A 
HETATM   17  C   UNK N   1      26.244  28.193  -4.467  0.00  0.00     0.072 A 
HETATM   18  C   UNK N   1      25.750  27.569  -5.625  0.00  0.00    -0.014 A 
HETATM   19  C   UNK N   1      24.377  26.969  -5.599  0.00  0.00     0.052 C 
BRANCH  17  20
HETATM   20  O   UNK N   1      25.497  28.249  -3.351  0.00  0.00    -0.360 OA
HETATM   21  H   UNK N   1      24.664  28.351  -2.933  0.00  0.00     0.217 HD
ENDBRANCH  17  20
ENDBRANCH  11  13
BRANCH  11  22
HETATM   22  O   UNK N   1      26.995  26.724  -9.043  0.00  0.00    -0.346 OA
HETATM   23  H   UNK N   1      27.122  26.686  -9.970  0.00  0.00     0.219 HD
ENDBRANCH  11  22
ENDBRANCH   2  10
ENDBRANCH   1   2
BRANCH   1  24
HETATM   24  C   UNK N   1      26.761  21.926  -8.753  0.00  0.00     0.252 C 
HETATM   25  N   UNK N   1      27.829  21.716  -9.607  0.00  0.00    -0.327 N 
HETATM   26  C   UNK N   1      28.190  22.645 -10.654  0.00  0.00     0.201 C 
HETATM   27  C   UNK N   1      28.612  20.492  -9.594  0.00  0.00     0.180 C 
HETATM   28  S   UNK N   1      28.995  21.661 -11.960  0.00  0.00    -0.137 SA
HETATM   29  C   UNK N   1      29.742  20.689 -10.626  0.00  0.00     0.030 C 
HETATM   30  C   UNK N   1      30.263  19.363 -11.149  0.00  0.00     0.029 C 
HETATM   31  C   UNK N   1      30.916  21.501 -10.082  0.00  0.00     0.029 C 
HETATM   32  O   UNK N   1      26.419  21.022  -7.992  0.00  0.00    -0.270 OA
BRANCH  27  33
HETATM   33  C   UNK N   1      29.127  20.130  -8.202  0.00  0.00     0.136 C 
HETATM   34  N   UNK N   1      29.451  21.074  -7.386  0.00  0.00    -0.368 N 
ATOM     35  HN  UNK N   1      29.508  22.023  -7.755  1.00  0.00     0.161 HD
BRANCH  34  36
HETATM   36  C   UNK N   1      29.738  20.878  -5.990  0.00  0.00     0.160 C 
BRANCH  36  37
HETATM   37  C   UNK N   1      30.979  21.675  -5.679  0.00  0.00    -0.035 A 
HETATM   38  C   UNK N   1      31.869  22.007  -6.715  0.00  0.00     0.009 A 
HETATM   39  C   UNK N   1      32.998  22.791  -6.458  0.00  0.00     0.001 A 
HETATM   40  C   UNK N   1      33.249  23.250  -5.163  0.00  0.00     0.001 A 
HETATM   41  C   UNK N   1      32.373  22.922  -4.124  0.00  0.00     0.007 A 
HETATM   42  C   UNK N   1      31.239  22.139  -4.375  0.00  0.00    -0.054 A 
HETATM   43  C   UNK N   1      30.316  21.825  -3.247  0.00  0.00     0.049 C 
ENDBRANCH  36  37
ENDBRANCH  34  36
BRANCH  33  44
HETATM   44  O   UNK N   1      29.159  18.840  -7.810  0.00  0.00    -0.348 OA
HETATM   45  H   UNK N   1      28.440  18.254  -7.684  0.00  0.00     0.219 HD
ENDBRANCH  33  44
ENDBRANCH  27  33
ENDBRANCH   1  24
BRANCH   1  46
HETATM   46  O   UNK N   1      24.676  23.015  -8.186  0.00  0.00    -0.384 OA
HETATM   47  H   UNK N   1      23.913  22.696  -8.692  0.00  0.00     0.210 HD
ENDBRANCH   1  46
TORSDOF 13
ENDMDL
MODEL 3
REMARK VINA RESULT:      -8.8      1.438      2.027
REMARK  13 active torsions:
REMARK  status: ('A' for Active; 'I' for Inactive)
REMARK    1  A    between atoms: C_22  and  C_17 
REMARK    2  A    between atoms: C_25  and  C_17 
REMARK    3  A    between atoms: C_23  and  C_18 
REMARK    4  A    between atoms: N_33  and  C_18 
REMARK    5  A    between atoms: C_29  and  C_24 
REMARK    6  A    between atoms: C_27  and  C_25 
REMARK    7  A    between atoms: C_25  and  N_35 
REMARK    8  A    between atoms: O_38  and  C_26 
REMARK    9  A    between atoms: C_31  and  C_27 
REMARK   10  A    between atoms: C_27  and  O_39 
REMARK   11  A    between atoms: C_28  and  C_30 
REMARK   12  A    between atoms: C_29  and  O_40 
REMARK   13  A    between atoms: O_41  and  C_30 
REMARK       I    between atoms: N_37  and  C_31 
ROOT
HETATM    1  C   UNK N   1      35.398  15.675   8.955  0.00  0.00     0.233 C 
ENDROOT
BRANCH   1   2
HETATM    2  C   UNK N   1      34.112  15.925   8.150  0.00  0.00     0.125 C 
BRANCH   2   3
HETATM    3  C   UNK N   1      34.215  17.079   7.144  0.00  0.00     0.066 C 
BRANCH   3   4
HETATM    4  C   UNK N   1      33.847  16.741   5.745  0.00  0.00    -0.056 A 
HETATM    5  C   UNK N   1      33.112  17.635   4.954  0.00  0.00     0.007 A 
HETATM    6  C   UNK N   1      32.745  17.278   3.657  0.00  0.00     0.001 A 
HETATM    7  C   UNK N   1      33.125  16.034   3.145  0.00  0.00     0.000 A 
HETATM    8  C   UNK N   1      33.873  15.150   3.929  0.00  0.00     0.001 A 
HETATM    9  C   UNK N   1      34.228  15.503   5.231  0.00  0.00     0.007 A 
ENDBRANCH   3   4
ENDBRANCH   2   3
BRANCH   2  10
HETATM   10  N   UNK N   1      33.033  16.375   8.997  0.00  0.00    -0.362 N 
HETATM   11  C   UNK N   1      31.850  15.889   8.886  0.00  0.00     0.147 C 
ATOM     12  HN  UNK N   1      33.213  17.093   9.698  1.00  0.00     0.162 HD
BRANCH  11  13
HETATM   13  C   UNK N   1      30.836  16.882   8.479  0.00  0.00     0.023 A 
HETATM   14  C   UNK N   1      30.442  17.803   9.459  0.00  0.00     0.016 A 
HETATM   15  C   UNK N   1      29.289  18.564   9.298  0.00  0.00     0.004 A 
HETATM   16  C   UNK N   1      28.504  18.407   8.158  0.00  0.00     0.037 A 
HETATM   17  C   UNK N   1      28.887  17.513   7.155  0.00  0.00     0.072 A 
HETATM   18  C   UNK N   1      30.054  16.743   7.301  0.00  0.00    -0.014 A 
HETATM   19  C   UNK N   1      30.420  15.766   6.225  0.00  0.00     0.052 C 
BRANCH  17  20
HETATM   20  O   UNK N   1      28.110  17.373   6.067  0.00  0.00    -0.360 OA
HETATM   21  H   UNK N   1      27.271  17.213   5.682  0.00  0.00     0.217 HD
ENDBRANCH  17  20
ENDBRANCH  11  13
BRANCH  11  22
HETATM   22  O   UNK N   1      31.676  14.605   8.501  0.00  0.00    -0.346 OA
HETATM   23  H   UNK N   1      31.707  13.888   7.899  0.00  0.00     0.219 HD
ENDBRANCH  11  22
ENDBRANCH   2  10
ENDBRANCH   1   2
BRANCH   1  24
HETATM   24  C   UNK N   1      35.035  14.959  10.241  0.00  0.00     0.252 C 
HETATM   25  N   UNK N   1      35.055  13.585  10.400  0.00  0.00    -0.327 N 
HETATM   26  C   UNK N   1      35.251  12.671   9.296  0.00  0.00     0.201 C 
HETATM   27  C   UNK N   1      34.771  12.940  11.670  0.00  0.00     0.180 C 
HETATM   28  S   UNK N   1      34.403  11.124   9.752  0.00  0.00    -0.137 SA
HETATM   29  C   UNK N   1      34.976  11.428  11.444  0.00  0.00     0.030 C 
HETATM   30  C   UNK N   1      34.185  10.599  12.439  0.00  0.00     0.029 C 
HETATM   31  C   UNK N   1      36.442  11.005  11.503  0.00  0.00     0.029 C 
HETATM   32  O   UNK N   1      34.708  15.665  11.194  0.00  0.00    -0.270 OA
BRANCH  27  33
HETATM   33  C   UNK N   1      35.612  13.494  12.819  0.00  0.00     0.136 C 
HETATM   34  N   UNK N   1      35.206  13.329  14.032  0.00  0.00    -0.368 N 
ATOM     35  HN  UNK N   1      34.258  12.982  14.174  1.00  0.00     0.161 HD
BRANCH  34  36
HETATM   36  C   UNK N   1      36.001  13.604  15.198  0.00  0.00     0.160 C 
BRANCH  36  37
HETATM   37  C   UNK N   1      35.764  12.477  16.170  0.00  0.00    -0.035 A 
HETATM   38  C   UNK N   1      35.923  11.147  15.743  0.00  0.00     0.009 A 
HETATM   39  C   UNK N   1      35.762  10.088  16.642  0.00  0.00     0.001 A 
HETATM   40  C   UNK N   1      35.439  10.348  17.975  0.00  0.00     0.001 A 
HETATM   41  C   UNK N   1      35.274  11.666  18.410  0.00  0.00     0.007 A 
HETATM   42  C   UNK N   1      35.436  12.731  17.516  0.00  0.00    -0.054 A 
HETATM   43  C   UNK N   1      35.273  14.125  18.019  0.00  0.00     0.049 C 
ENDBRANCH  36  37
ENDBRANCH  34  36
BRANCH  33  44
HETATM   44  O   UNK N   1      36.805  14.070  12.564  0.00  0.00    -0.348 OA
HETATM   45  H   UNK N   1      37.179  14.285  11.732  0.00  0.00     0.219 HD
ENDBRANCH  33  44
ENDBRANCH  27  33
ENDBRANCH   1  24
BRANCH   1  46
HETATM   46  O   UNK N   1      36.335  14.966   8.200  0.00  0.00    -0.384 OA
HETATM   47  H   UNK N   1      36.140  14.271   7.552  0.00  0.00     0.210 HD
ENDBRANCH   1  46
TORSDOF 13
ENDMDL
MODEL 4
REMARK VINA RESULT:      -8.7      9.007     13.392
REMARK  13 active torsions:
REMARK  status: ('A' for Active; 'I' for Inactive)
REMARK    1  A    between atoms: C_22  and  C_17 
REMARK    2  A    between atoms: C_25  and  C_17 
REMARK    3  A    between atoms: C_23  and  C_18 
REMARK    4  A    between atoms: N_33  and  C_18 
REMARK    5  A    between atoms: C_29  and  C_24 
REMARK    6  A    between atoms: C_27  and  C_25 
REMARK    7  A    between atoms: C_25  and  N_35 
REMARK    8  A    between atoms: O_38  and  C_26 
REMARK    9  A    between atoms: C_31  and  C_27 
REMARK   10  A    between atoms: C_27  and  O_39 
REMARK   11  A    between atoms: C_28  and  C_30 
REMARK   12  A    between atoms: C_29  and  O_40 
REMARK   13  A    between atoms: O_41  and  C_30 
REMARK       I    between atoms: N_37  and  C_31 
ROOT
HETATM    1  C   UNK N   1      22.215  18.005   3.942  0.00  0.00     0.233 C 
ENDROOT
BRANCH   1   2
HETATM    2  C   UNK N   1      23.435  17.274   4.528  0.00  0.00     0.125 C 
BRANCH   2   3
HETATM    3  C   UNK N   1      23.117  16.402   5.749  0.00  0.00     0.066 C 
BRANCH   3   4
HETATM    4  C   UNK N   1      23.982  15.206   5.922  0.00  0.00    -0.056 A 
HETATM    5  C   UNK N   1      24.620  14.945   7.142  0.00  0.00     0.007 A 
HETATM    6  C   UNK N   1      25.458  13.837   7.267  0.00  0.00     0.001 A 
HETATM    7  C   UNK N   1      25.646  12.983   6.177  0.00  0.00     0.000 A 
HETATM    8  C   UNK N   1      24.995  13.234   4.966  0.00  0.00     0.001 A 
HETATM    9  C   UNK N   1      24.168  14.350   4.838  0.00  0.00     0.007 A 
ENDBRANCH   3   4
ENDBRANCH   2   3
BRANCH   2  10
HETATM   10  N   UNK N   1      24.398  18.200   5.076  0.00  0.00    -0.362 N 
HETATM   11  C   UNK N   1      25.478  18.489   4.448  0.00  0.00     0.147 C 
ATOM     12  HN  UNK N   1      24.215  18.634   5.981  1.00  0.00     0.162 HD
BRANCH  11  13
HETATM   13  C   UNK N   1      26.706  18.083   5.160  0.00  0.00     0.023 A 
HETATM   14  C   UNK N   1      27.068  16.734   5.053  0.00  0.00     0.016 A 
HETATM   15  C   UNK N   1      28.003  16.177   5.921  0.00  0.00     0.004 A 
HETATM   16  C   UNK N   1      28.582  16.959   6.917  0.00  0.00     0.037 A 
HETATM   17  C   UNK N   1      28.257  18.314   7.029  0.00  0.00     0.072 A 
HETATM   18  C   UNK N   1      27.320  18.891   6.155  0.00  0.00    -0.014 A 
HETATM   19  C   UNK N   1      26.963  20.337   6.324  0.00  0.00     0.052 C 
BRANCH  17  20
HETATM   20  O   UNK N   1      28.823  19.046   8.003  0.00  0.00    -0.360 OA
HETATM   21  H   UNK N   1      29.052  19.879   8.367  0.00  0.00     0.217 HD
ENDBRANCH  17  20
ENDBRANCH  11  13
BRANCH  11  22
HETATM   22  O   UNK N   1      25.498  18.496   3.097  0.00  0.00    -0.346 OA
HETATM   23  H   UNK N   1      25.115  18.464   2.243  0.00  0.00     0.219 HD
ENDBRANCH  11  22
ENDBRANCH   2  10
ENDBRANCH   1   2
BRANCH   1  24
HETATM   24  C   UNK N   1      21.037  17.050   3.927  0.00  0.00     0.252 C 
HETATM   25  N   UNK N   1      20.975  15.902   3.159  0.00  0.00    -0.327 N 
HETATM   26  C   UNK N   1      21.958  15.582   2.147  0.00  0.00     0.201 C 
HETATM   27  C   UNK N   1      19.859  14.974   3.227  0.00  0.00     0.180 C 
HETATM   28  S   UNK N   1      21.102  14.560   0.904  0.00  0.00    -0.137 SA
HETATM   29  C   UNK N   1      20.212  13.802   2.288  0.00  0.00     0.030 C 
HETATM   30  C   UNK N   1      18.970  13.079   1.800  0.00  0.00     0.029 C 
HETATM   31  C   UNK N   1      21.157  12.786   2.925  0.00  0.00     0.029 C 
HETATM   32  O   UNK N   1      20.087  17.333   4.655  0.00  0.00    -0.270 OA
BRANCH  27  33
HETATM   33  C   UNK N   1      19.545  14.526   4.653  0.00  0.00     0.136 C 
HETATM   34  N   UNK N   1      20.514  14.353   5.486  0.00  0.00    -0.368 N 
ATOM     35  HN  UNK N   1      21.465  14.361   5.118  1.00  0.00     0.161 HD
BRANCH  34  36
HETATM   36  C   UNK N   1      20.342  14.148   6.899  0.00  0.00     0.160 C 
BRANCH  36  37
HETATM   37  C   UNK N   1      21.287  13.045   7.303  0.00  0.00    -0.035 A 
HETATM   38  C   UNK N   1      21.642  12.058   6.367  0.00  0.00     0.009 A 
HETATM   39  C   UNK N   1      22.560  11.058   6.704  0.00  0.00     0.001 A 
HETATM   40  C   UNK N   1      23.130  11.033   7.978  0.00  0.00     0.001 A 
HETATM   41  C   UNK N   1      22.780  12.007   8.918  0.00  0.00     0.007 A 
HETATM   42  C   UNK N   1      21.864  13.013   8.587  0.00  0.00    -0.054 A 
HETATM   43  C   UNK N   1      21.530  14.047   9.607  0.00  0.00     0.049 C 
ENDBRANCH  36  37
ENDBRANCH  34  36
BRANCH  33  44
HETATM   44  O   UNK N   1      18.263  14.398   5.051  0.00  0.00    -0.348 OA
HETATM   45  H   UNK N   1      17.528  14.933   4.824  0.00  0.00     0.219 HD
ENDBRANCH  33  44
ENDBRANCH  27  33
ENDBRANCH   1  24
BRANCH   1  46
HETATM   46  O   UNK N   1      21.939  19.176   4.651  0.00  0.00    -0.384 OA
HETATM   47  H   UNK N   1      21.129  19.704   4.589  0.00  0.00     0.210 HD
ENDBRANCH   1  46
TORSDOF 13
ENDMDL
MODEL 5
REMARK VINA RESULT:      -8.6      2.128      4.716
REMARK  13 active torsions:
REMARK  status: ('A' for Active; 'I' for Inactive)
REMARK    1  A    between atoms: C_22  and  C_17 
REMARK    2  A    between atoms: C_25  and  C_17 
REMARK    3  A    between atoms: C_23  and  C_18 
REMARK    4  A    between atoms: N_33  and  C_18 
REMARK    5  A    between atoms: C_29  and  C_24 
REMARK    6  A    between atoms: C_27  and  C_25 
REMARK    7  A    between atoms: C_25  and  N_35 
REMARK    8  A    between atoms: O_38  and  C_26 
REMARK    9  A    between atoms: C_31  and  C_27 
REMARK   10  A    between atoms: C_27  and  O_39 
REMARK   11  A    between atoms: C_28  and  C_30 
REMARK   12  A    between atoms: C_29  and  O_40 
REMARK   13  A    between atoms: O_41  and  C_30 
REMARK       I    between atoms: N_37  and  C_31 
ROOT
HETATM    1  C   UNK N   1      34.562  16.763   9.614  0.00  0.00     0.233 C 
ENDROOT
BRANCH   1   2
HETATM    2  C   UNK N   1      33.639  16.756   8.385  0.00  0.00     0.125 C 
BRANCH   2   3
HETATM    3  C   UNK N   1      34.164  17.576   7.200  0.00  0.00     0.066 C 
BRANCH   3   4
HETATM    4  C   UNK N   1      33.830  17.041   5.854  0.00  0.00    -0.056 A 
HETATM    5  C   UNK N   1      33.117  17.811   4.926  0.00  0.00     0.007 A 
HETATM    6  C   UNK N   1      32.782  17.271   3.685  0.00  0.00     0.001 A 
HETATM    7  C   UNK N   1      33.172  15.968   3.366  0.00  0.00     0.000 A 
HETATM    8  C   UNK N   1      33.899  15.206   4.286  0.00  0.00     0.001 A 
HETATM    9  C   UNK N   1      34.222  15.743   5.532  0.00  0.00     0.007 A 
ENDBRANCH   3   4
ENDBRANCH   2   3
BRANCH   2  10
HETATM   10  N   UNK N   1      32.383  17.413   8.658  0.00  0.00    -0.362 N 
HETATM   11  C   UNK N   1      31.328  16.743   8.950  0.00  0.00     0.147 C 
ATOM     12  HN  UNK N   1      32.332  18.431   8.618  1.00  0.00     0.162 HD
BRANCH  11  13
HETATM   13  C   UNK N   1      30.238  16.890   7.965  0.00  0.00     0.023 A 
HETATM   14  C   UNK N   1      30.442  16.282   6.720  0.00  0.00     0.016 A 
HETATM   15  C   UNK N   1      29.647  16.615   5.627  0.00  0.00     0.004 A 
HETATM   16  C   UNK N   1      28.642  17.570   5.761  0.00  0.00     0.037 A 
HETATM   17  C   UNK N   1      28.403  18.173   6.999  0.00  0.00     0.072 A 
HETATM   18  C   UNK N   1      29.193  17.841   8.113  0.00  0.00    -0.014 A 
HETATM   19  C   UNK N   1      28.936  18.531   9.418  0.00  0.00     0.052 C 
BRANCH  17  20
HETATM   20  O   UNK N   1      27.433  19.098   7.102  0.00  0.00    -0.360 OA
HETATM   21  H   UNK N   1      26.592  19.364   7.419  0.00  0.00     0.217 HD
ENDBRANCH  17  20
ENDBRANCH  11  13
BRANCH  11  22
HETATM   22  O   UNK N   1      31.430  15.572   9.618  0.00  0.00    -0.346 OA
HETATM   23  H   UNK N   1      31.586  14.652   9.699  0.00  0.00     0.219 HD
ENDBRANCH  11  22
ENDBRANCH   2  10
ENDBRANCH   1   2
BRANCH   1  24
HETATM   24  C   UNK N   1      35.267  15.423   9.701  0.00  0.00     0.252 C 
HETATM   25  N   UNK N   1      35.489  14.736  10.880  0.00  0.00    -0.327 N 
HETATM   26  C   UNK N   1      35.230  15.309  12.183  0.00  0.00     0.201 C 
HETATM   27  C   UNK N   1      36.104  13.420  10.915  0.00  0.00     0.180 C 
HETATM   28  S   UNK N   1      36.376  14.493  13.341  0.00  0.00    -0.137 SA
HETATM   29  C   UNK N   1      36.094  12.975  12.393  0.00  0.00     0.030 C 
HETATM   30  C   UNK N   1      37.177  11.951  12.678  0.00  0.00     0.029 C 
HETATM   31  C   UNK N   1      34.748  12.410  12.841  0.00  0.00     0.029 C 
HETATM   32  O   UNK N   1      35.656  14.933   8.642  0.00  0.00    -0.270 OA
BRANCH  27  33
HETATM   33  C   UNK N   1      35.420  12.420   9.984  0.00  0.00     0.136 C 
HETATM   34  N   UNK N   1      36.139  11.728   9.167  0.00  0.00    -0.368 N 
ATOM     35  HN  UNK N   1      37.118  11.991   9.055  1.00  0.00     0.161 HD
BRANCH  34  36
HETATM   36  C   UNK N   1      35.652  10.611   8.403  0.00  0.00     0.160 C 
BRANCH  36  37
HETATM   37  C   UNK N   1      35.466  11.093   6.987  0.00  0.00    -0.035 A 
HETATM   38  C   UNK N   1      36.526  11.740   6.329  0.00  0.00     0.009 A 
HETATM   39  C   UNK N   1      36.393  12.146   4.997  0.00  0.00     0.001 A 
HETATM   40  C   UNK N   1      35.199  11.911   4.311  0.00  0.00     0.001 A 
HETATM   41  C   UNK N   1      34.137  11.272   4.958  0.00  0.00     0.007 A 
HETATM   42  C   UNK N   1      34.264  10.861   6.290  0.00  0.00    -0.054 A 
HETATM   43  C   UNK N   1      33.118  10.165   6.942  0.00  0.00     0.049 C 
ENDBRANCH  36  37
ENDBRANCH  34  36
BRANCH  33  44
HETATM   44  O   UNK N   1      34.092  12.208  10.082  0.00  0.00    -0.348 OA
HETATM   45  H   UNK N   1      33.499  11.923   9.415  0.00  0.00     0.219 HD
ENDBRANCH  33  44
ENDBRANCH  27  33
ENDBRANCH   1  24
BRANCH   1  46
HETATM   46  O   UNK N   1      35.460  17.832   9.565  0.00  0.00    -0.384 OA
HETATM   47  H   UNK N   1      35.661  18.374   8.786  0.00  0.00     0.210 HD
ENDBRANCH   1  46
TORSDOF 13
ENDMDL
MODEL 6
REMARK VINA RESULT:      -8.5     10.084     13.657
REMARK  13 active torsions:
REMARK  status: ('A' for Active; 'I' for Inactive)
REMARK    1  A    between atoms: C_22  and  C_17 
REMARK    2  A    between atoms: C_25  and  C_17 
REMARK    3  A    between atoms: C_23  and  C_18 
REMARK    4  A    between atoms: N_33  and  C_18 
REMARK    5  A    between atoms: C_29  and  C_24 
REMARK    6  A    between atoms: C_27  and  C_25 
REMARK    7  A    between atoms: C_25  and  N_35 
REMARK    8  A    between atoms: O_38  and  C_26 
REMARK    9  A    between atoms: C_31  and  C_27 
REMARK   10  A    between atoms: C_27  and  O_39 
REMARK   11  A    between atoms: C_28  and  C_30 
REMARK   12  A    between atoms: C_29  and  O_40 
REMARK   13  A    between atoms: O_41  and  C_30 
REMARK       I    between atoms: N_37  and  C_31 
ROOT
HETATM    1  C   UNK N   1      21.329  18.003   4.932  0.00  0.00     0.233 C 
ENDROOT
BRANCH   1   2
HETATM    2  C   UNK N   1      22.743  17.408   5.024  0.00  0.00     0.125 C 
BRANCH   2   3
HETATM    3  C   UNK N   1      22.886  16.284   6.058  0.00  0.00     0.066 C 
BRANCH   3   4
HETATM    4  C   UNK N   1      23.944  15.281   5.770  0.00  0.00    -0.056 A 
HETATM    5  C   UNK N   1      23.856  14.436   4.656  0.00  0.00     0.007 A 
HETATM    6  C   UNK N   1      24.842  13.476   4.431  0.00  0.00     0.001 A 
HETATM    7  C   UNK N   1      25.924  13.372   5.310  0.00  0.00     0.000 A 
HETATM    8  C   UNK N   1      26.019  14.227   6.411  0.00  0.00     0.001 A 
HETATM    9  C   UNK N   1      25.025  15.178   6.643  0.00  0.00     0.007 A 
ENDBRANCH   3   4
ENDBRANCH   2   3
BRANCH   2  10
HETATM   10  N   UNK N   1      23.697  18.374   5.513  0.00  0.00    -0.362 N 
HETATM   11  C   UNK N   1      24.452  19.033   4.710  0.00  0.00     0.147 C 
ATOM     12  HN  UNK N   1      23.774  18.537   6.517  1.00  0.00     0.162 HD
BRANCH  11  13
HETATM   13  C   UNK N   1      25.891  18.759   4.889  0.00  0.00     0.023 A 
HETATM   14  C   UNK N   1      26.591  19.640   5.724  0.00  0.00     0.016 A 
HETATM   15  C   UNK N   1      27.982  19.676   5.715  0.00  0.00     0.004 A 
HETATM   16  C   UNK N   1      28.695  18.837   4.862  0.00  0.00     0.037 A 
HETATM   17  C   UNK N   1      28.022  17.932   4.037  0.00  0.00     0.072 A 
HETATM   18  C   UNK N   1      26.617  17.880   4.041  0.00  0.00    -0.014 A 
HETATM   19  C   UNK N   1      25.922  16.924   3.119  0.00  0.00     0.052 C 
BRANCH  17  20
HETATM   20  O   UNK N   1      28.731  17.138   3.217  0.00  0.00    -0.360 OA
HETATM   21  H   UNK N   1      29.392  16.487   3.084  0.00  0.00     0.217 HD
ENDBRANCH  17  20
ENDBRANCH  11  13
BRANCH  11  22
HETATM   22  O   UNK N   1      24.012  19.353   3.473  0.00  0.00    -0.346 OA
HETATM   23  H   UNK N   1      23.390  19.376   2.773  0.00  0.00     0.219 HD
ENDBRANCH  11  22
ENDBRANCH   2  10
ENDBRANCH   1   2
BRANCH   1  24
HETATM   24  C   UNK N   1      20.347  16.884   4.641  0.00  0.00     0.252 C 
HETATM   25  N   UNK N   1      20.418  16.055   3.536  0.00  0.00    -0.327 N 
HETATM   26  C   UNK N   1      21.336  16.282   2.442  0.00  0.00     0.201 C 
HETATM   27  C   UNK N   1      19.501  14.947   3.330  0.00  0.00     0.180 C 
HETATM   28  S   UNK N   1      20.559  15.560   0.960  0.00  0.00    -0.137 SA
HETATM   29  C   UNK N   1      19.965  14.234   2.043  0.00  0.00     0.030 C 
HETATM   30  C   UNK N   1      18.831  13.468   1.386  0.00  0.00     0.029 C 
HETATM   31  C   UNK N   1      21.137  13.283   2.272  0.00  0.00     0.029 C 
HETATM   32  O   UNK N   1      19.439  16.720   5.454  0.00  0.00    -0.270 OA
BRANCH  27  33
HETATM   33  C   UNK N   1      19.417  14.012   4.535  0.00  0.00     0.136 C 
HETATM   34  N   UNK N   1      20.457  13.852   5.281  0.00  0.00    -0.368 N 
ATOM     35  HN  UNK N   1      21.345  14.225   4.946  1.00  0.00     0.161 HD
BRANCH  34  36
HETATM   36  C   UNK N   1      20.449  13.182   6.553  0.00  0.00     0.160 C 
BRANCH  36  37
HETATM   37  C   UNK N   1      21.624  12.238   6.563  0.00  0.00    -0.035 A 
HETATM   38  C   UNK N   1      21.782  11.315   5.515  0.00  0.00     0.009 A 
HETATM   39  C   UNK N   1      22.895  10.469   5.476  0.00  0.00     0.001 A 
HETATM   40  C   UNK N   1      23.859  10.536   6.483  0.00  0.00     0.001 A 
HETATM   41  C   UNK N   1      23.710  11.447   7.532  0.00  0.00     0.007 A 
HETATM   42  C   UNK N   1      22.600  12.300   7.577  0.00  0.00    -0.054 A 
HETATM   43  C   UNK N   1      22.483  13.273   8.700  0.00  0.00     0.049 C 
ENDBRANCH  36  37
ENDBRANCH  34  36
BRANCH  33  44
HETATM   44  O   UNK N   1      18.243  13.433   4.858  0.00  0.00    -0.348 OA
HETATM   45  H   UNK N   1      18.085  12.747   5.476  0.00  0.00     0.219 HD
ENDBRANCH  33  44
ENDBRANCH  27  33
ENDBRANCH   1  24
BRANCH   1  46
HETATM   46  O   UNK N   1      21.001  18.707   6.093  0.00  0.00    -0.384 OA
HETATM   47  H   UNK N   1      20.144  18.692   6.548  0.00  0.00     0.210 HD
ENDBRANCH   1  46
TORSDOF 13
ENDMDL
MODEL 7
REMARK VINA RESULT:      -8.4      2.330      3.515
REMARK  13 active torsions:
REMARK  status: ('A' for Active; 'I' for Inactive)
REMARK    1  A    between atoms: C_22  and  C_17 
REMARK    2  A    between atoms: C_25  and  C_17 
REMARK    3  A    between atoms: C_23  and  C_18 
REMARK    4  A    between atoms: N_33  and  C_18 
REMARK    5  A    between atoms: C_29  and  C_24 
REMARK    6  A    between atoms: C_27  and  C_25 
REMARK    7  A    between atoms: C_25  and  N_35 
REMARK    8  A    between atoms: O_38  and  C_26 
REMARK    9  A    between atoms: C_31  and  C_27 
REMARK   10  A    between atoms: C_27  and  O_39 
REMARK   11  A    between atoms: C_28  and  C_30 
REMARK   12  A    between atoms: C_29  and  O_40 
REMARK   13  A    between atoms: O_41  and  C_30 
REMARK       I    between atoms: N_37  and  C_31 
ROOT
HETATM    1  C   UNK N   1      36.459  14.781  10.810  0.00  0.00     0.233 C 
ENDROOT
BRANCH   1   2
HETATM    2  C   UNK N   1      35.598  14.632   9.545  0.00  0.00     0.125 C 
BRANCH   2   3
HETATM    3  C   UNK N   1      36.406  14.471   8.251  0.00  0.00     0.066 C 
BRANCH   3   4
HETATM    4  C   UNK N   1      35.636  13.995   7.072  0.00  0.00    -0.056 A 
HETATM    5  C   UNK N   1      34.814  12.863   7.154  0.00  0.00     0.007 A 
HETATM    6  C   UNK N   1      34.133  12.414   6.023  0.00  0.00     0.001 A 
HETATM    7  C   UNK N   1      34.263  13.104   4.814  0.00  0.00     0.000 A 
HETATM    8  C   UNK N   1      35.070  14.243   4.738  0.00  0.00     0.001 A 
HETATM    9  C   UNK N   1      35.761  14.684   5.867  0.00  0.00     0.007 A 
ENDBRANCH   3   4
ENDBRANCH   2   3
BRANCH   2  10
HETATM   10  N   UNK N   1      34.844  15.832   9.268  0.00  0.00    -0.362 N 
HETATM   11  C   UNK N   1      33.564  15.849   9.349  0.00  0.00     0.147 C 
ATOM     12  HN  UNK N   1      35.340  16.683   9.004  1.00  0.00     0.162 HD
BRANCH  11  13
HETATM   13  C   UNK N   1      32.891  16.129   8.065  0.00  0.00     0.023 A 
HETATM   14  C   UNK N   1      31.993  15.154   7.610  0.00  0.00     0.016 A 
HETATM   15  C   UNK N   1      31.551  15.153   6.291  0.00  0.00     0.004 A 
HETATM   16  C   UNK N   1      32.010  16.122   5.402  0.00  0.00     0.037 A 
HETATM   17  C   UNK N   1      32.887  17.119   5.836  0.00  0.00     0.072 A 
HETATM   18  C   UNK N   1      33.336  17.137   7.168  0.00  0.00    -0.014 A 
HETATM   19  C   UNK N   1      34.305  18.197   7.595  0.00  0.00     0.052 C 
BRANCH  17  20
HETATM   20  O   UNK N   1      33.323  18.038   4.958  0.00  0.00    -0.360 OA
HETATM   21  H   UNK N   1      33.309  18.912   4.619  0.00  0.00     0.217 HD
ENDBRANCH  17  20
ENDBRANCH  11  13
BRANCH  11  22
HETATM   22  O   UNK N   1      32.928  15.060  10.243  0.00  0.00    -0.346 OA
HETATM   23  H   UNK N   1      32.727  14.249  10.667  0.00  0.00     0.219 HD
ENDBRANCH  11  22
ENDBRANCH   2  10
ENDBRANCH   1   2
BRANCH   1  24
HETATM   24  C   UNK N   1      35.842  13.951  11.919  0.00  0.00     0.252 C 
HETATM   25  N   UNK N   1      36.249  12.672  12.251  0.00  0.00    -0.327 N 
HETATM   26  C   UNK N   1      37.190  11.916  11.455  0.00  0.00     0.201 C 
HETATM   27  C   UNK N   1      35.681  11.937  13.369  0.00  0.00     0.180 C 
HETATM   28  S   UNK N   1      36.797  10.157  11.725  0.00  0.00    -0.137 SA
HETATM   29  C   UNK N   1      36.454  10.603  13.447  0.00  0.00     0.030 C 
HETATM   30  C   UNK N   1      35.640   9.522  14.134  0.00  0.00     0.029 C 
HETATM   31  C   UNK N   1      37.802  10.731  14.154  0.00  0.00     0.029 C 
HETATM   32  O   UNK N   1      34.925  14.470  12.553  0.00  0.00    -0.270 OA
BRANCH  27  33
HETATM   33  C   UNK N   1      35.713  12.725  14.677  0.00  0.00     0.136 C 
HETATM   34  N   UNK N   1      34.872  12.432  15.609  0.00  0.00    -0.368 N 
ATOM     35  HN  UNK N   1      34.108  11.796  15.378  1.00  0.00     0.161 HD
BRANCH  34  36
HETATM   36  C   UNK N   1      34.937  12.942  16.952  0.00  0.00     0.160 C 
BRANCH  36  37
HETATM   37  C   UNK N   1      35.438  11.820  17.826  0.00  0.00    -0.035 A 
HETATM   38  C   UNK N   1      35.966  10.661  17.233  0.00  0.00     0.009 A 
HETATM   39  C   UNK N   1      36.486   9.632  18.025  0.00  0.00     0.001 A 
HETATM   40  C   UNK N   1      36.482   9.752  19.416  0.00  0.00     0.001 A 
HETATM   41  C   UNK N   1      35.954  10.898  20.016  0.00  0.00     0.007 A 
HETATM   42  C   UNK N   1      35.434  11.934  19.230  0.00  0.00    -0.054 A 
HETATM   43  C   UNK N   1      34.898  13.151  19.903  0.00  0.00     0.049 C 
ENDBRANCH  36  37
ENDBRANCH  34  36
BRANCH  33  44
HETATM   44  O   UNK N   1      36.667  13.657  14.878  0.00  0.00    -0.348 OA
HETATM   45  H   UNK N   1      36.624  14.577  14.710  0.00  0.00     0.219 HD
ENDBRANCH  33  44
ENDBRANCH  27  33
ENDBRANCH   1  24
BRANCH   1  46
HETATM   46  O   UNK N   1      37.788  14.429  10.561  0.00  0.00    -0.384 OA
HETATM   47  H   UNK N   1      38.373  14.836   9.903  0.00  0.00     0.210 HD
ENDBRANCH   1  46
TORSDOF 13
ENDMDL
MODEL 8
REMARK VINA RESULT:      -8.4      2.676      4.527
REMARK  13 active torsions:
REMARK  status: ('A' for Active; 'I' for Inactive)
REMARK    1  A    between atoms: C_22  and  C_17 
REMARK    2  A    between atoms: C_25  and  C_17 
REMARK    3  A    between atoms: C_23  and  C_18 
REMARK    4  A    between atoms: N_33  and  C_18 
REMARK    5  A    between atoms: C_29  and  C_24 
REMARK    6  A    between atoms: C_27  and  C_25 
REMARK    7  A    between atoms: C_25  and  N_35 
REMARK    8  A    between atoms: O_38  and  C_26 
REMARK    9  A    between atoms: C_31  and  C_27 
REMARK   10  A    between atoms: C_27  and  O_39 
REMARK   11  A    between atoms: C_28  and  C_30 
REMARK   12  A    between atoms: C_29  and  O_40 
REMARK   13  A    between atoms: O_41  and  C_30 
REMARK       I    between atoms: N_37  and  C_31 
ROOT
HETATM    1  C   UNK N   1      36.385  14.276  11.618  0.00  0.00     0.233 C 
ENDROOT
BRANCH   1   2
HETATM    2  C   UNK N   1      35.736  14.795  10.324  0.00  0.00     0.125 C 
BRANCH   2   3
HETATM    3  C   UNK N   1      34.428  15.566  10.543  0.00  0.00     0.066 C 
BRANCH   3   4
HETATM    4  C   UNK N   1      33.917  16.306   9.360  0.00  0.00    -0.056 A 
HETATM    5  C   UNK N   1      32.676  15.992   8.790  0.00  0.00     0.007 A 
HETATM    6  C   UNK N   1      32.238  16.676   7.656  0.00  0.00     0.001 A 
HETATM    7  C   UNK N   1      33.033  17.682   7.101  0.00  0.00     0.000 A 
HETATM    8  C   UNK N   1      34.263  18.007   7.681  0.00  0.00     0.001 A 
HETATM    9  C   UNK N   1      34.706  17.313   8.807  0.00  0.00     0.007 A 
ENDBRANCH   3   4
ENDBRANCH   2   3
BRANCH   2  10
HETATM   10  N   UNK N   1      35.295  13.711   9.478  0.00  0.00    -0.362 N 
HETATM   11  C   UNK N   1      35.945  13.383   8.421  0.00  0.00     0.147 C 
ATOM     12  HN  UNK N   1      34.450  13.196   9.725  1.00  0.00     0.162 HD
BRANCH  11  13
HETATM   13  C   UNK N   1      35.178  13.565   7.172  0.00  0.00     0.023 A 
HETATM   14  C   UNK N   1      35.562  14.641   6.360  0.00  0.00     0.016 A 
HETATM   15  C   UNK N   1      34.730  15.098   5.343  0.00  0.00     0.004 A 
HETATM   16  C   UNK N   1      33.494  14.491   5.129  0.00  0.00     0.037 A 
HETATM   17  C   UNK N   1      33.099  13.400   5.908  0.00  0.00     0.072 A 
HETATM   18  C   UNK N   1      33.933  12.924   6.934  0.00  0.00    -0.014 A 
HETATM   19  C   UNK N   1      33.466  11.777   7.778  0.00  0.00     0.052 C 
BRANCH  17  20
HETATM   20  O   UNK N   1      31.899  12.836   5.688  0.00  0.00    -0.360 OA
HETATM   21  H   UNK N   1      31.117  12.760   5.177  0.00  0.00     0.217 HD
ENDBRANCH  17  20
ENDBRANCH  11  13
BRANCH  11  22
HETATM   22  O   UNK N   1      37.287  13.534   8.373  0.00  0.00    -0.346 OA
HETATM   23  H   UNK N   1      38.121  13.813   8.695  0.00  0.00     0.219 HD
ENDBRANCH  11  22
ENDBRANCH   2  10
ENDBRANCH   1   2
BRANCH   1  24
HETATM   24  C   UNK N   1      35.577  13.100  12.131  0.00  0.00     0.252 C 
HETATM   25  N   UNK N   1      36.022  11.791  12.131  0.00  0.00    -0.327 N 
HETATM   26  C   UNK N   1      37.242  11.377  11.473  0.00  0.00     0.201 C 
HETATM   27  C   UNK N   1      35.246  10.701  12.699  0.00  0.00     0.180 C 
HETATM   28  S   UNK N   1      37.007   9.632  11.005  0.00  0.00    -0.137 SA
HETATM   29  C   UNK N   1      36.120   9.436  12.573  0.00  0.00     0.030 C 
HETATM   30  C   UNK N   1      35.280   8.172  12.564  0.00  0.00     0.029 C 
HETATM   31  C   UNK N   1      37.173   9.322  13.672  0.00  0.00     0.029 C 
HETATM   32  O   UNK N   1      34.456  13.350  12.573  0.00  0.00    -0.270 OA
BRANCH  27  33
HETATM   33  C   UNK N   1      34.794  10.977  14.131  0.00  0.00     0.136 C 
HETATM   34  N   UNK N   1      35.605  11.560  14.946  0.00  0.00    -0.368 N 
ATOM     35  HN  UNK N   1      36.577  11.668  14.655  1.00  0.00     0.161 HD
BRANCH  34  36
HETATM   36  C   UNK N   1      35.232  12.068  16.239  0.00  0.00     0.160 C 
BRANCH  36  37
HETATM   37  C   UNK N   1      35.940  13.387  16.416  0.00  0.00    -0.035 A 
HETATM   38  C   UNK N   1      36.665  13.935  15.345  0.00  0.00     0.009 A 
HETATM   39  C   UNK N   1      37.284  15.183  15.470  0.00  0.00     0.001 A 
HETATM   40  C   UNK N   1      37.184  15.894  16.668  0.00  0.00     0.001 A 
HETATM   41  C   UNK N   1      36.469  15.356  17.741  0.00  0.00     0.007 A 
HETATM   42  C   UNK N   1      35.845  14.108  17.622  0.00  0.00    -0.054 A 
HETATM   43  C   UNK N   1      35.074  13.575  18.781  0.00  0.00     0.049 C 
ENDBRANCH  36  37
ENDBRANCH  34  36
BRANCH  33  44
HETATM   44  O   UNK N   1      33.531  10.688  14.506  0.00  0.00    -0.348 OA
HETATM   45  H   UNK N   1      33.236  10.310  15.311  0.00  0.00     0.219 HD
ENDBRANCH  33  44
ENDBRANCH  27  33
ENDBRANCH   1  24
BRANCH   1  46
HETATM   46  O   UNK N   1      37.727  13.948  11.412  0.00  0.00    -0.384 OA
HETATM   47  H   UNK N   1      38.419  13.921  12.091  0.00  0.00     0.210 HD
ENDBRANCH   1  46
TORSDOF 13
ENDMDL
MODEL 9
REMARK VINA RESULT:      -8.4      1.576      2.098
REMARK  13 active torsions:
REMARK  status: ('A' for Active; 'I' for Inactive)
REMARK    1  A    between atoms: C_22  and  C_17 
REMARK    2  A    between atoms: C_25  and  C_17 
REMARK    3  A    between atoms: C_23  and  C_18 
REMARK    4  A    between atoms: N_33  and  C_18 
REMARK    5  A    between atoms: C_29  and  C_24 
REMARK    6  A    between atoms: C_27  and  C_25 
REMARK    7  A    between atoms: C_25  and  N_35 
REMARK    8  A    between atoms: O_38  and  C_26 
REMARK    9  A    between atoms: C_31  and  C_27 
REMARK   10  A    between atoms: C_27  and  O_39 
REMARK   11  A    between atoms: C_28  and  C_30 
REMARK   12  A    between atoms: C_29  and  O_40 
REMARK   13  A    between atoms: O_41  and  C_30 
REMARK       I    between atoms: N_37  and  C_31 
ROOT
HETATM    1  C   UNK N   1      34.708  16.359   7.884  0.00  0.00     0.233 C 
ENDROOT
BRANCH   1   2
HETATM    2  C   UNK N   1      33.333  16.348   7.197  0.00  0.00     0.125 C 
BRANCH   2   3
HETATM    3  C   UNK N   1      33.338  16.916   5.773  0.00  0.00     0.066 C 
BRANCH   3   4
HETATM    4  C   UNK N   1      32.404  16.261   4.820  0.00  0.00    -0.056 A 
HETATM    5  C   UNK N   1      31.696  17.011   3.871  0.00  0.00     0.007 A 
HETATM    6  C   UNK N   1      30.796  16.377   3.015  0.00  0.00     0.001 A 
HETATM    7  C   UNK N   1      30.615  14.993   3.098  0.00  0.00     0.000 A 
HETATM    8  C   UNK N   1      31.335  14.245   4.033  0.00  0.00     0.001 A 
HETATM    9  C   UNK N   1      32.225  14.882   4.898  0.00  0.00     0.007 A 
ENDBRANCH   3   4
ENDBRANCH   2   3
BRANCH   2  10
HETATM   10  N   UNK N   1      32.400  17.229   7.858  0.00  0.00    -0.362 N 
HETATM   11  C   UNK N   1      31.450  16.770   8.588  0.00  0.00     0.147 C 
ATOM     12  HN  UNK N   1      32.498  18.238   7.743  1.00  0.00     0.162 HD
BRANCH  11  13
HETATM   13  C   UNK N   1      30.101  17.085   8.075  0.00  0.00     0.023 A 
HETATM   14  C   UNK N   1      29.762  16.523   6.838  0.00  0.00     0.016 A 
HETATM   15  C   UNK N   1      28.669  16.995   6.117  0.00  0.00     0.004 A 
HETATM   16  C   UNK N   1      27.905  18.046   6.620  0.00  0.00     0.037 A 
HETATM   17  C   UNK N   1      28.207  18.606   7.864  0.00  0.00     0.072 A 
HETATM   18  C   UNK N   1      29.304  18.134   8.605  0.00  0.00    -0.014 A 
HETATM   19  C   UNK N   1      29.626  18.780   9.919  0.00  0.00     0.052 C 
BRANCH  17  20
HETATM   20  O   UNK N   1      27.460  19.624   8.324  0.00  0.00    -0.360 OA
HETATM   21  H   UNK N   1      26.658  19.947   8.687  0.00  0.00     0.217 HD
ENDBRANCH  17  20
ENDBRANCH  11  13
BRANCH  11  22
HETATM   22  O   UNK N   1      31.617  15.619   9.277  0.00  0.00    -0.346 OA
HETATM   23  H   UNK N   1      31.361  14.940   9.870  0.00  0.00     0.219 HD
ENDBRANCH  11  22
ENDBRANCH   2  10
ENDBRANCH   1   2
BRANCH   1  24
HETATM   24  C   UNK N   1      34.611  15.580   9.181  0.00  0.00     0.252 C 
HETATM   25  N   UNK N   1      34.748  14.207   9.276  0.00  0.00    -0.327 N 
HETATM   26  C   UNK N   1      34.819  13.344   8.118  0.00  0.00     0.201 C 
HETATM   27  C   UNK N   1      34.721  13.504  10.548  0.00  0.00     0.180 C 
HETATM   28  S   UNK N   1      34.162  11.726   8.640  0.00  0.00    -0.137 SA
HETATM   29  C   UNK N   1      34.985  12.018  10.227  0.00  0.00     0.030 C 
HETATM   30  C   UNK N   1      34.426  11.104  11.302  0.00  0.00     0.029 C 
HETATM   31  C   UNK N   1      36.466  11.701  10.030  0.00  0.00     0.029 C 
HETATM   32  O   UNK N   1      34.400  16.231  10.203  0.00  0.00    -0.270 OA
BRANCH  27  33
HETATM   33  C   UNK N   1      35.701  14.081  11.567  0.00  0.00     0.136 C 
HETATM   34  N   UNK N   1      35.468  13.921  12.825  0.00  0.00    -0.368 N 
ATOM     35  HN  UNK N   1      34.554  13.559  13.098  1.00  0.00     0.161 HD
BRANCH  34  36
HETATM   36  C   UNK N   1      36.411  14.219  13.870  0.00  0.00     0.160 C 
BRANCH  36  37
HETATM   37  C   UNK N   1      36.247  13.158  14.928  0.00  0.00    -0.035 A 
HETATM   38  C   UNK N   1      35.434  13.413  16.046  0.00  0.00     0.009 A 
HETATM   39  C   UNK N   1      35.224  12.423  17.012  0.00  0.00     0.001 A 
HETATM   40  C   UNK N   1      35.825  11.171  16.870  0.00  0.00     0.001 A 
HETATM   41  C   UNK N   1      36.638  10.908  15.764  0.00  0.00     0.007 A 
HETATM   42  C   UNK N   1      36.851  11.893  14.792  0.00  0.00    -0.054 A 
HETATM   43  C   UNK N   1      37.708  11.572  13.615  0.00  0.00     0.049 C 
ENDBRANCH  36  37
ENDBRANCH  34  36
BRANCH  33  44
HETATM   44  O   UNK N   1      36.837  14.675  11.147  0.00  0.00    -0.348 OA
HETATM   45  H   UNK N   1      37.716  14.511  11.428  0.00  0.00     0.219 HD
ENDBRANCH  33  44
ENDBRANCH  27  33
ENDBRANCH   1  24
BRANCH   1  46
HETATM   46  O   UNK N   1      35.700  15.858   7.038  0.00  0.00    -0.384 OA
HETATM   47  H   UNK N   1      35.689  15.881   6.068  0.00  0.00     0.210 HD
ENDBRANCH   1  46
TORSDOF 13
ENDMDL
