REMARK  20 active torsions:
REMARK  status: ('A' for Active; 'I' for Inactive)
REMARK    1  A    between atoms: C_29  and  C_16 
REMARK    2  A    between atoms: C_37  and  C_16 
REMARK    3  A    between atoms: C_36  and  C_19 
REMARK    4  A    between atoms: O_94  and  C_19 
REMARK    5  A    between atoms: C_39  and  C_24 
REMARK    6  A    between atoms: C_44  and  C_26 
REMARK    7  A    between atoms: C_51  and  C_28 
REMARK    8  A    between atoms: C_30  and  C_56 
REMARK    9  A    between atoms: C_49  and  C_33 
REMARK   10  A    between atoms: C_35  and  C_45 
REMARK   11  A    between atoms: N_59  and  C_37 
REMARK   12  A    between atoms: O_86  and  C_37 
REMARK   13  A    between atoms: C_38  and  O_87 
REMARK   14  A    between atoms: C_43  and  C_44 
REMARK   15  A    between atoms: C_44  and  O_88 
REMARK   16  A    between atoms: N_57  and  C_45 
REMARK   17  A    between atoms: O_89  and  C_45 
REMARK   18  A    between atoms: C_46  and  O_90 
REMARK   19  A    between atoms: O_91  and  C_47 
REMARK   20  A    between atoms: C_48  and  O_92 
REMARK       I    between atoms: N_85  and  C_56 
ROOT
HETATM    1  C   UNK N   1      -7.429   7.240  -1.066  0.00  0.00     0.059 C 
HETATM    2  C   UNK N   1       3.056   1.021  -0.853  0.00  0.00     0.018 A 
HETATM    3  C   UNK N   1       3.483  -0.132  -1.525  0.00  0.00     0.033 A 
HETATM    4  C   UNK N   1      -6.699  -3.335  -1.715  0.00  0.00     0.205 C 
HETATM    5  C   UNK N   1       0.227  -0.416   1.595  0.00  0.00     0.112 C 
HETATM    6  C   UNK N   1       1.280   4.771   0.585  0.00  0.00     0.086 A 
HETATM    7  C   UNK N   1      -0.542  -4.978   0.871  0.00  0.00     0.084 A 
HETATM    8  C   UNK N   1      -6.319   6.376  -0.585  0.00  0.00     0.011 A 
HETATM    9  C   UNK N   1       1.756   1.079  -0.336  0.00  0.00     0.022 A 
HETATM   10  C   UNK N   1       2.571  -1.176  -1.778  0.00  0.00     0.066 A 
HETATM   11  C   UNK N   1      -2.714   4.946   0.231  0.00  0.00     0.148 C 
HETATM   12  C   UNK N   1      -0.231  -0.332   0.257  0.00  0.00     0.143 C 
HETATM   13  C   UNK N   1       0.125   4.219  -0.009  0.00  0.00     0.090 A 
HETATM   14  C   UNK N   1      -1.197  -3.823   0.410  0.00  0.00     0.073 A 
HETATM   15  C   UNK N   1      -6.705  -0.681  -0.101  0.00  0.00     0.039 A 
HETATM   16  C   UNK N   1      -5.959  -4.005  -0.616  0.00  0.00     0.130 C 
HETATM   17  C   UNK N   1      -8.957   2.378   0.021  0.00  0.00     0.144 C 
HETATM   18  C   UNK N   1      -6.423   5.143   0.062  0.00  0.00     0.097 A 
HETATM   19  C   UNK N   1       0.890   0.007  -0.597  0.00  0.00     0.046 A 
HETATM   20  C   UNK N   1      -8.080  -1.103  -0.212  0.00  0.00     0.099 A 
HETATM   21  C   UNK N   1      -4.323  -5.584   0.144  0.00  0.00     0.174 C 
HETATM   22  C   UNK N   1      -0.638   4.980  -1.014  0.00  0.00     0.164 C 
HETATM   23  C   UNK N   1      -8.697  -2.377  -0.732  0.00  0.00     0.164 C 
HETATM   24  C   UNK N   1      -7.709   4.526   0.362  0.00  0.00     0.165 C 
HETATM   25  C   UNK N   1       1.281   2.296   0.318  0.00  0.00     0.086 A 
HETATM   26  C   UNK N   1      -0.722  -2.498   0.664  0.00  0.00     0.093 C 
HETATM   27  C   UNK N   1      -4.156   5.255  -0.089  0.00  0.00     0.075 A 
HETATM   28  C   UNK N   1      -2.875  -5.265   0.023  0.00  0.00     0.077 A 
HETATM   29  C   UNK N   1      -8.382   1.063   0.455  0.00  0.00     0.075 A 
HETATM   30  N   UNK N   1      -8.088  -3.317  -1.375  0.00  0.00    -0.362 N 
ATOM     31  HN  UNK N   1      -8.647  -4.118  -1.667  1.00  0.00     0.162 HD
HETATM   32  N   UNK N   1       1.339  -1.052  -1.298  0.00  0.00    -0.355 N 
ATOM     33  HN  UNK N   1       0.684  -1.814  -1.474  1.00  0.00     0.166 HD
HETATM   34  N   UNK N   1      -1.905   5.206  -0.934  0.00  0.00    -0.358 N 
ATOM     35  HN  UNK N   1      -2.368   5.597  -1.754  1.00  0.00     0.162 HD
HETATM   36  N   UNK N   1      -0.888  -1.465  -0.177  0.00  0.00    -0.372 N 
ATOM     37  HN  UNK N   1      -1.436  -1.512  -1.037  1.00  0.00     0.161 HD
HETATM   38  N   UNK N   1       0.149   2.857  -0.153  0.00  0.00    -0.346 N 
ATOM     39  HN  UNK N   1      -0.612   2.323  -0.573  1.00  0.00     0.167 HD
HETATM   40  N   UNK N   1      -2.472  -3.987  -0.045  0.00  0.00    -0.349 N 
ATOM     41  HN  UNK N   1      -3.053  -3.225  -0.397  1.00  0.00     0.166 HD
HETATM   42  N   UNK N   1      -5.061  -4.886  -0.891  0.00  0.00    -0.360 N 
ATOM     43  HN  UNK N   1      -4.864  -5.100  -1.868  1.00  0.00     0.162 HD
HETATM   44  N   UNK N   1      -7.853   3.314  -0.009  0.00  0.00    -0.358 N 
ATOM     45  HN  UNK N   1      -7.005   2.918  -0.415  1.00  0.00     0.162 HD
HETATM   46  N   UNK N   1      -5.217   4.507   0.315  0.00  0.00    -0.348 N 
ATOM     47  HN  UNK N   1      -5.136   3.589   0.752  1.00  0.00     0.166 HD
HETATM   48  N   UNK N   1      -8.975  -0.100   0.106  0.00  0.00    -0.348 N 
ATOM     49  HN  UNK N   1      -9.987  -0.225   0.079  1.00  0.00     0.166 HD
HETATM   50  S   UNK N   1       2.250   3.480   0.928  0.00  0.00    -0.081 SA
HETATM   51  S   UNK N   1       0.033  -1.996   2.023  0.00  0.00    -0.108 SA
HETATM   52  S   UNK N   1      -1.650  -6.176   0.665  0.00  0.00    -0.084 SA
HETATM   53  S   UNK N   1      -4.716   6.634  -0.825  0.00  0.00    -0.077 SA
HETATM   54  S   UNK N   1      -6.753   0.852   0.427  0.00  0.00    -0.074 SA
ENDROOT
BRANCH  10  55
HETATM   55  C   UNK N   1       3.090  -2.527  -1.676  0.00  0.00     0.093 A 
HETATM   56  N   UNK N   1       3.510  -2.853  -0.443  0.00  0.00    -0.370 N 
HETATM   57  C   UNK N   1       4.645  -3.613  -0.402  0.00  0.00     0.166 A 
ATOM     58  HN  UNK N   1       3.019  -2.556   0.400  1.00  0.00     0.161 HD
HETATM   59  C   UNK N   1       5.062  -4.047  -1.677  0.00  0.00     0.114 A 
HETATM   60  S   UNK N   1       4.047  -3.293  -2.758  0.00  0.00    -0.108 SA
BRANCH  57  61
HETATM   61  C   UNK N   1       5.650  -2.886   0.358  0.00  0.00     0.138 C 
HETATM   62  N   UNK N   1       5.848  -1.687  -0.005  0.00  0.00    -0.357 N 
HETATM   63  C   UNK N   1       6.366  -0.921   1.061  0.00  0.00     0.200 C 
ATOM     64  HN  UNK N   1       5.658  -1.326  -0.939  1.00  0.00     0.162 HD
HETATM   65  C   UNK N   1       6.763  -2.020   2.080  0.00  0.00     0.212 C 
HETATM   66  O   UNK N   1       6.081  -3.138   1.600  0.00  0.00    -0.335 OA
BRANCH  63  67
HETATM   67  C   UNK N   1       7.314   0.145   0.588  0.00  0.00     0.245 C 
HETATM   68  N   UNK N   1       8.501  -0.129  -0.035  0.00  0.00    -0.338 N 
HETATM   69  C   UNK N   1       8.982  -1.485  -0.122  0.00  0.00     0.127 C 
HETATM   70  C   UNK N   1       9.508   0.818  -0.464  0.00  0.00     0.161 C 
HETATM   71  C   UNK N   1      10.502  -1.330  -0.103  0.00  0.00     0.022 C 
HETATM   72  C   UNK N   1      10.771   0.171   0.064  0.00  0.00     0.035 C 
HETATM   73  O   UNK N   1       6.961   1.313   0.743  0.00  0.00    -0.271 OA
BRANCH  70  74
HETATM   74  C   UNK N   1       9.365   2.274  -0.049  0.00  0.00     0.132 C 
BRANCH  74  75
HETATM   75  N   UNK N   1       8.449   3.007  -0.568  0.00  0.00    -0.382 N 
HETATM   76  H   UNK N   1       8.585   3.897  -0.966  0.00  0.00     0.158 HD
ATOM     77  HN  UNK N   1       7.499   2.636  -0.568  1.00  0.00     0.158 HD
ENDBRANCH  74  75
BRANCH  74  78
HETATM   78  O   UNK N   1      10.252   2.829   0.800  0.00  0.00    -0.348 OA
HETATM   79  H   UNK N   1      10.895   2.488   1.390  0.00  0.00     0.219 HD
ENDBRANCH  74  78
ENDBRANCH  70  74
ENDBRANCH  63  67
ENDBRANCH  57  61
ENDBRANCH  10  55
BRANCH  22  80
HETATM   80  O   UNK N   1       0.026   5.403  -2.105  0.00  0.00    -0.345 OA
HETATM   81  H   UNK N   1       0.513   5.150  -2.865  0.00  0.00     0.219 HD
ENDBRANCH  22  80
BRANCH  11  82
HETATM   82  C   UNK N   1      -2.205   5.847   1.385  0.00  0.00     0.115 C 
BRANCH  82  83
HETATM   83  C   UNK N   1      -2.299   7.345   1.136  0.00  0.00     0.113 C 
BRANCH  83  84
HETATM   84  N   UNK N   1      -1.284   8.054   0.775  0.00  0.00    -0.379 N 
HETATM   85  C   UNK N   1       0.034   7.520   0.569  0.00  0.00     0.148 C 
ATOM     86  HN  UNK N   1      -1.426   9.054   0.627  1.00  0.00     0.160 HD
ENDBRANCH  83  84
BRANCH  83  87
HETATM   87  O   UNK N   1      -3.472   7.967   1.347  0.00  0.00    -0.350 OA
HETATM   88  H   UNK N   1      -3.505   8.892   1.494  0.00  0.00     0.219 HD
ENDBRANCH  83  87
ENDBRANCH  82  83
ENDBRANCH  11  82
BRANCH  21  89
HETATM   89  C   UNK N   1      -4.590  -7.088   0.087  0.00  0.00     0.180 C 
BRANCH  89  90
HETATM   90  C   UNK N   1      -6.043  -7.484   0.191  0.00  0.00    -0.027 A 
HETATM   91  C   UNK N   1      -6.365  -8.843   0.133  0.00  0.00     0.010 A 
HETATM   92  C   UNK N   1      -7.698  -9.255   0.171  0.00  0.00     0.001 A 
HETATM   93  C   UNK N   1      -8.722  -8.310   0.268  0.00  0.00     0.000 A 
HETATM   94  C   UNK N   1      -8.414  -6.952   0.344  0.00  0.00     0.001 A 
HETATM   95  C   UNK N   1      -7.082  -6.544   0.311  0.00  0.00     0.010 A 
ENDBRANCH  89  90
BRANCH  89  96
HETATM   96  O   UNK N   1      -4.069  -7.594  -1.107  0.00  0.00    -0.388 OA
HETATM   97  H   UNK N   1      -4.192  -8.083  -1.935  0.00  0.00     0.210 HD
ENDBRANCH  89  96
ENDBRANCH  21  89
BRANCH  16  98
HETATM   98  O   UNK N   1      -6.245  -3.674   0.667  0.00  0.00    -0.348 OA
HETATM   99  H   UNK N   1      -6.146  -3.388   1.553  0.00  0.00     0.219 HD
ENDBRANCH  16  98
BRANCH  24 100
HETATM  100  O   UNK N   1      -8.719   5.242   0.890  0.00  0.00    -0.345 OA
HETATM  101  H   UNK N   1      -8.638   6.100   1.258  0.00  0.00     0.219 HD
ENDBRANCH  24 100
BRANCH  23 102
HETATM  102  O   UNK N   1     -10.025  -2.519  -0.547  0.00  0.00    -0.345 OA
HETATM  103  H   UNK N   1     -10.572  -1.769  -0.418  0.00  0.00     0.219 HD
ENDBRANCH  23 102
BRANCH  17 104
HETATM  104  C   UNK N   1     -10.300   2.851   0.609  0.00  0.00     0.006 C 
HETATM  105  C   UNK N   1     -10.851   3.988  -0.246  0.00  0.00     0.012 C 
HETATM  106  C   UNK N   1     -11.341   1.745   0.534  0.00  0.00     0.012 C 
ENDBRANCH  17 104
BRANCH  15 107
HETATM  107  C   UNK N   1      -5.381  -1.254  -0.487  0.00  0.00     0.215 C 
BRANCH 107 108
HETATM  108  O   UNK N   1      -4.422  -1.061   0.509  0.00  0.00    -0.391 OA
HETATM  109  C   UNK N   1      -3.595  -0.054   0.004  0.00  0.00     0.201 C 
ENDBRANCH 107 108
ENDBRANCH  15 107
TORSDOF 20
