MODEL 1
REMARK VINA RESULT:      -7.4      0.000      0.000
REMARK  27 active torsions:
REMARK  status: ('A' for Active; 'I' for Inactive)
REMARK    1  A    between atoms: C_1  and  N_38 
REMARK    2  A    between atoms: C_3  and  O_6 
REMARK    3  A    between atoms: C_4  and  C_32 
REMARK    4  A    between atoms: C_5  and  O_33 
REMARK    5  A    between atoms: N_9  and  C_7 
REMARK    6  A    between atoms: C_7  and  C_8 
REMARK    7  A    between atoms: C_8  and  S_51 
REMARK       I    between atoms: C_10  and  N_9 
REMARK    8  A    between atoms: C_13  and  C_10 
REMARK    9  A    between atoms: C_12  and  N_14 
REMARK   10  A    between atoms: C_13  and  C_12 
REMARK       I    between atoms: C_16  and  N_14 
REMARK   11  A    between atoms: C_16  and  C_21 
REMARK   12  A    between atoms: C_19  and  C_17 
REMARK   13  A    between atoms: C_17  and  O_23 
REMARK   14  A    between atoms: C_21  and  C_19 
REMARK   15  A    between atoms: C_21  and  O_22 
REMARK   16  A    between atoms: O_23  and  P_30 
REMARK   17  A    between atoms: P_30  and  O_24 
REMARK   18  A    between atoms: O_24  and  P_31 
REMARK   19  A    between atoms: P_31  and  O_25 
REMARK   20  A    between atoms: C_32  and  O_25 
REMARK   21  A    between atoms: P_30  and  O_27 
REMARK   22  A    between atoms: P_31  and  O_29 
REMARK   23  A    between atoms: O_33  and  P_36 
REMARK   24  A    between atoms: P_36  and  O_35 
REMARK   25  A    between atoms: N_50  and  C_46 
REMARK   26  A    between atoms: S_51  and  C_54 
REMARK   27  A    between atoms: C_54  and  C_52 
ROOT
HETATM    1  O   UNK N   1      35.620  10.468   9.851  0.00  0.00    -0.307 OA
HETATM    2  P   UNK N   1      35.062  12.038   9.371  0.00  0.00     0.391 P 
HETATM    3  O   UNK N   1      33.859  11.060   9.422  0.00  0.00    -0.632 OA
HETATM    4  H   UNK N   1      35.823   9.564  10.139  0.00  0.00     0.222 HD
ENDROOT
BRANCH   2   5
HETATM    5  O   UNK N   1      35.900  12.080  10.944  0.00  0.00    -0.286 OA
BRANCH   5   6
HETATM    6  C   UNK N   1      35.225  12.419  12.146  0.00  0.00     0.197 C 
HETATM    7  C   UNK N   1      35.177  11.369  13.217  0.00  0.00     0.199 C 
HETATM    8  C   UNK N   1      34.771  12.312  14.350  0.00  0.00     0.262 C 
HETATM    9  O   UNK N   1      35.513  13.505  14.232  0.00  0.00    -0.353 OA
HETATM   10  C   UNK N   1      36.022  13.449  12.928  0.00  0.00     0.180 C 
BRANCH   7  11
HETATM   11  O   UNK N   1      36.468  10.861  13.437  0.00  0.00    -0.388 OA
HETATM   12  H   UNK N   1      37.433  10.776  13.493  0.00  0.00     0.210 HD
ENDBRANCH   7  11
BRANCH   8  13
HETATM   13  N   UNK N   1      34.844  11.753  15.702  0.00  0.00    -0.297 N 
HETATM   14  C   UNK N   1      35.003  12.362  16.889  0.00  0.00     0.142 A 
HETATM   15  C   UNK N   1      35.082  11.430  17.857  0.00  0.00     0.122 A 
HETATM   16  N   UNK N   1      35.113  13.687  17.148  0.00  0.00    -0.336 N 
HETATM   17  C   UNK N   1      35.280  11.812  19.174  0.00  0.00     0.131 A 
HETATM   18  N   UNK N   1      34.971  10.202  17.324  0.00  0.00    -0.346 N 
HETATM   19  N   UNK N   1      35.384  13.146  19.449  0.00  0.00    -0.337 N 
HETATM   20  C   UNK N   1      35.299  14.080  18.445  0.00  0.00     0.183 A 
ATOM     21  HN  UNK N   1      35.527  13.452  20.410  1.00  0.00     0.168 HD
HETATM   22  C   UNK N   1      34.832  10.427  15.987  0.00  0.00     0.188 A 
ATOM     23  HN  UNK N   1      34.987   9.305  17.809  1.00  0.00     0.167 HD
ATOM     24  HN  UNK N   1      35.061  14.373  16.395  1.00  0.00     0.168 HD
BRANCH  17  25
HETATM   25  N   UNK N   1      35.393  10.855  20.203  0.00  0.00    -0.383 N 
HETATM   26  H   UNK N   1      35.769  11.052  21.091  0.00  0.00     0.157 HD
HETATM   27  H   UNK N   1      35.077   9.940  20.025  0.00  0.00     0.157 HD
ENDBRANCH  17  25
ENDBRANCH   8  13
BRANCH  10  28
HETATM   28  C   UNK N   1      36.154  14.801  12.270  0.00  0.00     0.215 C 
BRANCH  28  29
HETATM   29  O   UNK N   1      34.938  15.078  11.630  0.00  0.00    -0.294 OA
BRANCH  29  30
HETATM   30  P   UNK N   1      35.247  16.485  10.658  0.00  0.00     0.401 P 
HETATM   31  O   UNK N   1      36.445  15.553  10.383  0.00  0.00    -0.631 OA
BRANCH  30  32
HETATM   32  O   UNK N   1      35.044  16.551   8.883  0.00  0.00    -0.195 OA
BRANCH  32  33
HETATM   33  P   UNK N   1      34.485  18.071   8.153  0.00  0.00     0.401 P 
HETATM   34  O   UNK N   1      33.054  18.441   8.635  0.00  0.00    -0.631 OA
BRANCH  33  35
HETATM   35  O   UNK N   1      34.489  17.981   6.416  0.00  0.00    -0.296 OA
BRANCH  35  36
HETATM   36  C   UNK N   1      33.182  17.607   6.094  0.00  0.00     0.192 C 
BRANCH  36  37
HETATM   37  C   UNK N   1      33.052  16.163   5.660  0.00  0.00     0.009 C 
HETATM   38  C   UNK N   1      34.436  15.630   5.320  0.00  0.00     0.020 C 
HETATM   39  C   UNK N   1      32.226  16.167   4.390  0.00  0.00     0.020 C 
BRANCH  37  40
HETATM   40  C   UNK N   1      32.300  15.279   6.680  0.00  0.00     0.219 C 
BRANCH  40  41
HETATM   41  C   UNK N   1      31.083  15.840   7.366  0.00  0.00     0.247 C 
HETATM   42  N   UNK N   1      31.200  16.321   8.632  0.00  0.00    -0.358 N 
HETATM   43  H   UNK N   1      32.058  16.208   9.102  0.00  0.00     0.162 HD
HETATM   44  O   UNK N   1      30.027  15.944   6.758  0.00  0.00    -0.271 OA
BRANCH  42  45
HETATM   45  C   UNK N   1      30.119  16.991   9.316  0.00  0.00     0.132 C 
BRANCH  45  46
HETATM   46  C   UNK N   1      29.643  18.192   8.519  0.00  0.00     0.122 C 
BRANCH  46  47
HETATM   47  C   UNK N   1      28.148  18.306   8.576  0.00  0.00     0.219 C 
HETATM   48  N   UNK N   1      27.440  19.013   7.655  0.00  0.00    -0.360 N 
HETATM   49  H   UNK N   1      26.462  19.067   7.759  0.00  0.00     0.162 HD
HETATM   50  O   UNK N   1      27.555  17.758   9.490  0.00  0.00    -0.274 OA
BRANCH  48  51
HETATM   51  C   UNK N   1      28.048  19.691   6.534  0.00  0.00     0.133 C 
BRANCH  51  52
HETATM   52  C   UNK N   1      27.024  20.540   5.807  0.00  0.00     0.102 C 
BRANCH  52  53
HETATM   53  S   UNK N   1      27.001  20.080   4.056  0.00  0.00    -0.091 SA
BRANCH  53  54
HETATM   54  C   UNK N   1      25.805  18.788   4.354  0.00  0.00     0.185 C 
HETATM   55  O   UNK N   1      24.774  19.046   4.957  0.00  0.00    -0.286 OA
BRANCH  54  56
HETATM   56  C   UNK N   1      26.099  17.397   3.869  0.00  0.00     0.086 C 
HETATM   57  C   UNK N   1      26.948  16.598   4.842  0.00  0.00     0.013 C 
ENDBRANCH  54  56
ENDBRANCH  53  54
ENDBRANCH  52  53
ENDBRANCH  51  52
ENDBRANCH  48  51
ENDBRANCH  46  47
ENDBRANCH  45  46
ENDBRANCH  42  45
ENDBRANCH  40  41
BRANCH  40  58
HETATM   58  O   UNK N   1      33.185  14.684   7.585  0.00  0.00    -0.385 OA
HETATM   59  H   UNK N   1      33.990  15.150   7.860  0.00  0.00     0.210 HD
ENDBRANCH  40  58
ENDBRANCH  37  40
ENDBRANCH  36  37
ENDBRANCH  35  36
ENDBRANCH  33  35
BRANCH  33  60
HETATM   60  O   UNK N   1      35.520  19.367   8.666  0.00  0.00    -0.307 OA
HETATM   61  H   UNK N   1      35.461  20.296   8.942  0.00  0.00     0.222 HD
ENDBRANCH  33  60
ENDBRANCH  32  33
ENDBRANCH  30  32
BRANCH  30  62
HETATM   62  O   UNK N   1      33.708  15.742  10.312  0.00  0.00    -0.307 OA
HETATM   63  H   UNK N   1      33.211  14.950  10.053  0.00  0.00     0.222 HD
ENDBRANCH  30  62
ENDBRANCH  29  30
ENDBRANCH  28  29
ENDBRANCH  10  28
ENDBRANCH   5   6
ENDBRANCH   2   5
BRANCH   2  64
HETATM   64  O   UNK N   1      33.819  12.976  10.149  0.00  0.00    -0.307 OA
HETATM   65  H   UNK N   1      32.906  13.198   9.907  0.00  0.00     0.222 HD
ENDBRANCH   2  64
TORSDOF 27
ENDMDL
MODEL 2
REMARK VINA RESULT:      -7.3      7.355     12.346
REMARK  27 active torsions:
REMARK  status: ('A' for Active; 'I' for Inactive)
REMARK    1  A    between atoms: C_1  and  N_38 
REMARK    2  A    between atoms: C_3  and  O_6 
REMARK    3  A    between atoms: C_4  and  C_32 
REMARK    4  A    between atoms: C_5  and  O_33 
REMARK    5  A    between atoms: N_9  and  C_7 
REMARK    6  A    between atoms: C_7  and  C_8 
REMARK    7  A    between atoms: C_8  and  S_51 
REMARK       I    between atoms: C_10  and  N_9 
REMARK    8  A    between atoms: C_13  and  C_10 
REMARK    9  A    between atoms: C_12  and  N_14 
REMARK   10  A    between atoms: C_13  and  C_12 
REMARK       I    between atoms: C_16  and  N_14 
REMARK   11  A    between atoms: C_16  and  C_21 
REMARK   12  A    between atoms: C_19  and  C_17 
REMARK   13  A    between atoms: C_17  and  O_23 
REMARK   14  A    between atoms: C_21  and  C_19 
REMARK   15  A    between atoms: C_21  and  O_22 
REMARK   16  A    between atoms: O_23  and  P_30 
REMARK   17  A    between atoms: P_30  and  O_24 
REMARK   18  A    between atoms: O_24  and  P_31 
REMARK   19  A    between atoms: P_31  and  O_25 
REMARK   20  A    between atoms: C_32  and  O_25 
REMARK   21  A    between atoms: P_30  and  O_27 
REMARK   22  A    between atoms: P_31  and  O_29 
REMARK   23  A    between atoms: O_33  and  P_36 
REMARK   24  A    between atoms: P_36  and  O_35 
REMARK   25  A    between atoms: N_50  and  C_46 
REMARK   26  A    between atoms: S_51  and  C_54 
REMARK   27  A    between atoms: C_54  and  C_52 
ROOT
HETATM    1  O   UNK N   1      21.740  21.679   2.678  0.00  0.00    -0.307 OA
HETATM    2  P   UNK N   1      20.608  20.488   2.125  0.00  0.00     0.391 P 
HETATM    3  O   UNK N   1      20.770  21.584   1.039  0.00  0.00    -0.632 OA
HETATM    4  H   UNK N   1      22.378  22.382   2.878  0.00  0.00     0.222 HD
ENDROOT
BRANCH   2   5
HETATM    5  O   UNK N   1      22.189  19.770   2.528  0.00  0.00    -0.286 OA
BRANCH   5   6
HETATM    6  C   UNK N   1      22.500  19.329   3.841  0.00  0.00     0.197 C 
HETATM    7  C   UNK N   1      21.718  18.162   4.369  0.00  0.00     0.199 C 
HETATM    8  C   UNK N   1      22.664  17.842   5.526  0.00  0.00     0.262 C 
HETATM    9  O   UNK N   1      23.992  17.956   5.068  0.00  0.00    -0.353 OA
HETATM   10  C   UNK N   1      23.866  18.666   3.866  0.00  0.00     0.180 C 
BRANCH   7  11
HETATM   11  O   UNK N   1      21.727  17.122   3.423  0.00  0.00    -0.388 OA
HETATM   12  H   UNK N   1      21.463  16.368   2.874  0.00  0.00     0.210 HD
ENDBRANCH   7  11
BRANCH   8  13
HETATM   13  N   UNK N   1      22.428  16.568   6.210  0.00  0.00    -0.297 N 
HETATM   14  C   UNK N   1      21.522  16.236   7.145  0.00  0.00     0.142 A 
HETATM   15  C   UNK N   1      21.731  14.963   7.530  0.00  0.00     0.122 A 
HETATM   16  N   UNK N   1      20.554  17.009   7.691  0.00  0.00    -0.336 N 
HETATM   17  C   UNK N   1      20.940  14.397   8.516  0.00  0.00     0.131 A 
HETATM   18  N   UNK N   1      22.767  14.441   6.852  0.00  0.00    -0.346 N 
HETATM   19  N   UNK N   1      19.954  15.163   9.068  0.00  0.00    -0.337 N 
HETATM   20  C   UNK N   1      19.757  16.460   8.660  0.00  0.00     0.183 A 
ATOM     21  HN  UNK N   1      19.357  14.769   9.793  1.00  0.00     0.168 HD
HETATM   22  C   UNK N   1      23.187  15.456   6.046  0.00  0.00     0.188 A 
ATOM     23  HN  UNK N   1      23.152  13.499   6.924  1.00  0.00     0.167 HD
ATOM     24  HN  UNK N   1      20.423  17.975   7.391  1.00  0.00     0.168 HD
BRANCH  17  25
HETATM   25  N   UNK N   1      21.153  13.074   8.955  0.00  0.00    -0.383 N 
HETATM   26  H   UNK N   1      21.657  12.845   9.769  0.00  0.00     0.157 HD
HETATM   27  H   UNK N   1      20.779  12.340   8.418  0.00  0.00     0.157 HD
ENDBRANCH  17  25
ENDBRANCH   8  13
BRANCH  10  28
HETATM   28  C   UNK N   1      25.034  19.577   3.575  0.00  0.00     0.215 C 
BRANCH  28  29
HETATM   29  O   UNK N   1      26.200  18.903   3.963  0.00  0.00    -0.294 OA
BRANCH  29  30
HETATM   30  P   UNK N   1      27.207  20.119   4.689  0.00  0.00     0.401 P 
HETATM   31  O   UNK N   1      26.024  19.960   5.667  0.00  0.00    -0.631 OA
BRANCH  30  32
HETATM   32  O   UNK N   1      28.261  19.843   6.107  0.00  0.00    -0.195 OA
BRANCH  32  33
HETATM   33  P   UNK N   1      28.188  18.265   6.920  0.00  0.00     0.401 P 
HETATM   34  O   UNK N   1      28.074  18.423   8.462  0.00  0.00    -0.631 OA
BRANCH  33  35
HETATM   35  O   UNK N   1      29.586  17.297   6.555  0.00  0.00    -0.296 OA
BRANCH  35  36
HETATM   36  C   UNK N   1      30.511  17.654   7.539  0.00  0.00     0.192 C 
BRANCH  36  37
HETATM   37  C   UNK N   1      31.897  17.095   7.304  0.00  0.00     0.009 C 
HETATM   38  C   UNK N   1      31.968  15.700   7.907  0.00  0.00     0.020 C 
HETATM   39  C   UNK N   1      32.857  17.985   8.067  0.00  0.00     0.020 C 
BRANCH  37  40
HETATM   40  C   UNK N   1      32.333  17.133   5.822  0.00  0.00     0.219 C 
BRANCH  40  41
HETATM   41  C   UNK N   1      32.275  15.863   5.016  0.00  0.00     0.247 C 
HETATM   42  N   UNK N   1      31.067  15.394   4.605  0.00  0.00    -0.358 N 
HETATM   43  H   UNK N   1      30.253  15.849   4.922  0.00  0.00     0.162 HD
HETATM   44  O   UNK N   1      33.308  15.313   4.660  0.00  0.00    -0.271 OA
BRANCH  42  45
HETATM   45  C   UNK N   1      30.928  14.259   3.724  0.00  0.00     0.132 C 
BRANCH  45  46
HETATM   46  C   UNK N   1      29.678  14.391   2.873  0.00  0.00     0.122 C 
BRANCH  46  47
HETATM   47  C   UNK N   1      28.878  15.591   3.289  0.00  0.00     0.219 C 
HETATM   48  N   UNK N   1      27.801  15.495   4.113  0.00  0.00    -0.360 N 
HETATM   49  H   UNK N   1      27.306  16.317   4.333  0.00  0.00     0.162 HD
HETATM   50  O   UNK N   1      29.200  16.685   2.856  0.00  0.00    -0.274 OA
BRANCH  48  51
HETATM   51  C   UNK N   1      27.344  14.248   4.681  0.00  0.00     0.133 C 
BRANCH  51  52
HETATM   52  C   UNK N   1      25.946  13.922   4.195  0.00  0.00     0.102 C 
BRANCH  52  53
HETATM   53  S   UNK N   1      26.055  12.928   2.685  0.00  0.00    -0.091 SA
BRANCH  53  54
HETATM   54  C   UNK N   1      25.148  14.149   1.750  0.00  0.00     0.185 C 
HETATM   55  O   UNK N   1      25.392  15.335   1.909  0.00  0.00    -0.286 OA
BRANCH  54  56
HETATM   56  C   UNK N   1      24.086  13.691   0.792  0.00  0.00     0.086 C 
HETATM   57  C   UNK N   1      22.756  14.392   1.005  0.00  0.00     0.013 C 
ENDBRANCH  54  56
ENDBRANCH  53  54
ENDBRANCH  52  53
ENDBRANCH  51  52
ENDBRANCH  48  51
ENDBRANCH  46  47
ENDBRANCH  45  46
ENDBRANCH  42  45
ENDBRANCH  40  41
BRANCH  40  58
HETATM   58  O   UNK N   1      33.557  17.794   5.671  0.00  0.00    -0.385 OA
HETATM   59  H   UNK N   1      33.891  18.372   6.375  0.00  0.00     0.210 HD
ENDBRANCH  40  58
ENDBRANCH  37  40
ENDBRANCH  36  37
ENDBRANCH  35  36
ENDBRANCH  33  35
BRANCH  33  60
HETATM   60  O   UNK N   1      26.756  17.424   6.411  0.00  0.00    -0.307 OA
HETATM   61  H   UNK N   1      26.403  16.971   5.629  0.00  0.00     0.222 HD
ENDBRANCH  33  60
ENDBRANCH  32  33
ENDBRANCH  30  32
BRANCH  30  62
HETATM   62  O   UNK N   1      28.053  18.624   4.390  0.00  0.00    -0.307 OA
HETATM   63  H   UNK N   1      28.840  18.174   4.045  0.00  0.00     0.222 HD
ENDBRANCH  30  62
ENDBRANCH  29  30
ENDBRANCH  28  29
ENDBRANCH  10  28
ENDBRANCH   5   6
ENDBRANCH   2   5
BRANCH   2  64
HETATM   64  O   UNK N   1      20.708  19.573   0.648  0.00  0.00    -0.307 OA
HETATM   65  H   UNK N   1      21.370  18.961   0.290  0.00  0.00     0.222 HD
ENDBRANCH   2  64
TORSDOF 27
ENDMDL
MODEL 3
REMARK VINA RESULT:      -7.1      9.918     14.130
REMARK  27 active torsions:
REMARK  status: ('A' for Active; 'I' for Inactive)
REMARK    1  A    between atoms: C_1  and  N_38 
REMARK    2  A    between atoms: C_3  and  O_6 
REMARK    3  A    between atoms: C_4  and  C_32 
REMARK    4  A    between atoms: C_5  and  O_33 
REMARK    5  A    between atoms: N_9  and  C_7 
REMARK    6  A    between atoms: C_7  and  C_8 
REMARK    7  A    between atoms: C_8  and  S_51 
REMARK       I    between atoms: C_10  and  N_9 
REMARK    8  A    between atoms: C_13  and  C_10 
REMARK    9  A    between atoms: C_12  and  N_14 
REMARK   10  A    between atoms: C_13  and  C_12 
REMARK       I    between atoms: C_16  and  N_14 
REMARK   11  A    between atoms: C_16  and  C_21 
REMARK   12  A    between atoms: C_19  and  C_17 
REMARK   13  A    between atoms: C_17  and  O_23 
REMARK   14  A    between atoms: C_21  and  C_19 
REMARK   15  A    between atoms: C_21  and  O_22 
REMARK   16  A    between atoms: O_23  and  P_30 
REMARK   17  A    between atoms: P_30  and  O_24 
REMARK   18  A    between atoms: O_24  and  P_31 
REMARK   19  A    between atoms: P_31  and  O_25 
REMARK   20  A    between atoms: C_32  and  O_25 
REMARK   21  A    between atoms: P_30  and  O_27 
REMARK   22  A    between atoms: P_31  and  O_29 
REMARK   23  A    between atoms: O_33  and  P_36 
REMARK   24  A    between atoms: P_36  and  O_35 
REMARK   25  A    between atoms: N_50  and  C_46 
REMARK   26  A    between atoms: S_51  and  C_54 
REMARK   27  A    between atoms: C_54  and  C_52 
ROOT
HETATM    1  O   UNK N   1      22.145  21.673   2.682  0.00  0.00    -0.307 OA
HETATM    2  P   UNK N   1      21.120  20.296   2.925  0.00  0.00     0.391 P 
HETATM    3  O   UNK N   1      21.388  20.474   1.408  0.00  0.00    -0.632 OA
HETATM    4  H   UNK N   1      22.736  22.404   2.440  0.00  0.00     0.222 HD
ENDROOT
BRANCH   2   5
HETATM    5  O   UNK N   1      22.657  20.151   3.817  0.00  0.00    -0.286 OA
BRANCH   5   6
HETATM    6  C   UNK N   1      23.432  18.962   3.789  0.00  0.00     0.197 C 
HETATM    7  C   UNK N   1      24.901  19.115   3.524  0.00  0.00     0.199 C 
HETATM    8  C   UNK N   1      25.299  17.718   4.002  0.00  0.00     0.262 C 
HETATM    9  O   UNK N   1      24.579  17.422   5.177  0.00  0.00    -0.353 OA
HETATM   10  C   UNK N   1      23.553  18.376   5.185  0.00  0.00     0.180 C 
BRANCH   7  11
HETATM   11  O   UNK N   1      25.433  20.097   4.375  0.00  0.00    -0.388 OA
HETATM   12  H   UNK N   1      25.582  20.685   5.133  0.00  0.00     0.210 HD
ENDBRANCH   7  11
BRANCH   8  13
HETATM   13  N   UNK N   1      26.735  17.485   4.166  0.00  0.00    -0.297 N 
HETATM   14  C   UNK N   1      27.506  17.531   5.266  0.00  0.00     0.142 A 
HETATM   15  C   UNK N   1      28.788  17.313   4.917  0.00  0.00     0.122 A 
HETATM   16  N   UNK N   1      27.135  17.787   6.543  0.00  0.00    -0.336 N 
HETATM   17  C   UNK N   1      29.784  17.344   5.879  0.00  0.00     0.131 A 
HETATM   18  N   UNK N   1      28.877  17.117   3.591  0.00  0.00    -0.346 N 
HETATM   19  N   UNK N   1      29.421  17.592   7.172  0.00  0.00    -0.337 N 
HETATM   20  C   UNK N   1      28.107  17.810   7.506  0.00  0.00     0.183 A 
ATOM     21  HN  UNK N   1      30.135  17.617   7.899  1.00  0.00     0.168 HD
HETATM   22  C   UNK N   1      27.595  17.235   3.146  0.00  0.00     0.188 A 
ATOM     23  HN  UNK N   1      29.715  16.923   3.042  1.00  0.00     0.167 HD
ATOM     24  HN  UNK N   1      26.158  17.959   6.780  1.00  0.00     0.168 HD
BRANCH  17  25
HETATM   25  N   UNK N   1      31.137  17.145   5.537  0.00  0.00    -0.383 N 
HETATM   26  H   UNK N   1      31.736  17.868   5.244  0.00  0.00     0.157 HD
HETATM   27  H   UNK N   1      31.502  16.233   5.596  0.00  0.00     0.157 HD
ENDBRANCH  17  25
ENDBRANCH   8  13
BRANCH  10  28
HETATM   28  C   UNK N   1      22.265  17.876   5.792  0.00  0.00     0.215 C 
BRANCH  28  29
HETATM   29  O   UNK N   1      21.772  16.863   4.957  0.00  0.00    -0.294 OA
BRANCH  29  30
HETATM   30  P   UNK N   1      20.274  16.365   5.683  0.00  0.00     0.401 P 
HETATM   31  O   UNK N   1      19.881  17.513   4.731  0.00  0.00    -0.631 OA
BRANCH  30  32
HETATM   32  O   UNK N   1      19.018  15.403   4.850  0.00  0.00    -0.195 OA
BRANCH  32  33
HETATM   33  P   UNK N   1      19.232  13.643   4.747  0.00  0.00     0.401 P 
HETATM   34  O   UNK N   1      19.864  13.070   6.047  0.00  0.00    -0.631 OA
BRANCH  33  35
HETATM   35  O   UNK N   1      20.231  13.202   3.393  0.00  0.00    -0.296 OA
BRANCH  35  36
HETATM   36  C   UNK N   1      19.351  13.210   2.308  0.00  0.00     0.192 C 
BRANCH  36  37
HETATM   37  C   UNK N   1      19.964  13.744   1.032  0.00  0.00     0.009 C 
HETATM   38  C   UNK N   1      18.849  14.022   0.035  0.00  0.00     0.020 C 
HETATM   39  C   UNK N   1      20.829  12.633   0.471  0.00  0.00     0.020 C 
BRANCH  37  40
HETATM   40  C   UNK N   1      20.889  14.961   1.256  0.00  0.00     0.219 C 
BRANCH  40  41
HETATM   41  C   UNK N   1      22.362  14.724   1.459  0.00  0.00     0.247 C 
HETATM   42  N   UNK N   1      22.863  14.719   2.723  0.00  0.00    -0.358 N 
HETATM   43  H   UNK N   1      22.267  14.960   3.467  0.00  0.00     0.162 HD
HETATM   44  O   UNK N   1      23.078  14.448   0.507  0.00  0.00    -0.271 OA
BRANCH  42  45
HETATM   45  C   UNK N   1      24.234  14.374   3.018  0.00  0.00     0.132 C 
BRANCH  45  46
HETATM   46  C   UNK N   1      24.349  13.779   4.410  0.00  0.00     0.122 C 
BRANCH  46  47
HETATM   47  C   UNK N   1      23.500  12.547   4.531  0.00  0.00     0.219 C 
HETATM   48  N   UNK N   1      22.963  12.151   5.715  0.00  0.00    -0.360 N 
HETATM   49  H   UNK N   1      22.431  11.322   5.733  0.00  0.00     0.162 HD
HETATM   50  O   UNK N   1      23.305  11.873   3.533  0.00  0.00    -0.274 OA
BRANCH  48  51
HETATM   51  C   UNK N   1      23.131  12.883   6.949  0.00  0.00     0.133 C 
BRANCH  51  52
HETATM   52  C   UNK N   1      23.756  11.999   8.010  0.00  0.00     0.102 C 
BRANCH  52  53
HETATM   53  S   UNK N   1      24.488  13.040   9.298  0.00  0.00    -0.091 SA
BRANCH  53  54
HETATM   54  C   UNK N   1      23.297  12.482  10.505  0.00  0.00     0.185 C 
HETATM   55  O   UNK N   1      23.658  11.758  11.421  0.00  0.00    -0.286 OA
BRANCH  54  56
HETATM   56  C   UNK N   1      21.862  12.902  10.361  0.00  0.00     0.086 C 
HETATM   57  C   UNK N   1      20.946  12.235  11.373  0.00  0.00     0.013 C 
ENDBRANCH  54  56
ENDBRANCH  53  54
ENDBRANCH  52  53
ENDBRANCH  51  52
ENDBRANCH  48  51
ENDBRANCH  46  47
ENDBRANCH  45  46
ENDBRANCH  42  45
ENDBRANCH  40  41
BRANCH  40  58
HETATM   58  O   UNK N   1      20.361  15.830   2.216  0.00  0.00    -0.385 OA
HETATM   59  H   UNK N   1      20.506  16.786   2.143  0.00  0.00     0.210 HD
ENDBRANCH  40  58
ENDBRANCH  37  40
ENDBRANCH  36  37
ENDBRANCH  35  36
ENDBRANCH  33  35
BRANCH  33  60
HETATM   60  O   UNK N   1      17.678  12.885   4.588  0.00  0.00    -0.307 OA
HETATM   61  H   UNK N   1      17.252  12.168   4.092  0.00  0.00     0.222 HD
ENDBRANCH  33  60
ENDBRANCH  32  33
ENDBRANCH  30  32
BRANCH  30  62
HETATM   62  O   UNK N   1      21.106  15.062   4.878  0.00  0.00    -0.307 OA
HETATM   63  H   UNK N   1      21.628  14.247   4.946  0.00  0.00     0.222 HD
ENDBRANCH  30  62
ENDBRANCH  29  30
ENDBRANCH  28  29
ENDBRANCH  10  28
ENDBRANCH   5   6
ENDBRANCH   2   5
BRANCH   2  64
HETATM   64  O   UNK N   1      21.425  18.671   2.381  0.00  0.00    -0.307 OA
HETATM   65  H   UNK N   1      22.232  18.138   2.301  0.00  0.00     0.222 HD
ENDBRANCH   2  64
TORSDOF 27
ENDMDL
MODEL 4
REMARK VINA RESULT:      -7.1      2.022      2.630
REMARK  27 active torsions:
REMARK  status: ('A' for Active; 'I' for Inactive)
REMARK    1  A    between atoms: C_1  and  N_38 
REMARK    2  A    between atoms: C_3  and  O_6 
REMARK    3  A    between atoms: C_4  and  C_32 
REMARK    4  A    between atoms: C_5  and  O_33 
REMARK    5  A    between atoms: N_9  and  C_7 
REMARK    6  A    between atoms: C_7  and  C_8 
REMARK    7  A    between atoms: C_8  and  S_51 
REMARK       I    between atoms: C_10  and  N_9 
REMARK    8  A    between atoms: C_13  and  C_10 
REMARK    9  A    between atoms: C_12  and  N_14 
REMARK   10  A    between atoms: C_13  and  C_12 
REMARK       I    between atoms: C_16  and  N_14 
REMARK   11  A    between atoms: C_16  and  C_21 
REMARK   12  A    between atoms: C_19  and  C_17 
REMARK   13  A    between atoms: C_17  and  O_23 
REMARK   14  A    between atoms: C_21  and  C_19 
REMARK   15  A    between atoms: C_21  and  O_22 
REMARK   16  A    between atoms: O_23  and  P_30 
REMARK   17  A    between atoms: P_30  and  O_24 
REMARK   18  A    between atoms: O_24  and  P_31 
REMARK   19  A    between atoms: P_31  and  O_25 
REMARK   20  A    between atoms: C_32  and  O_25 
REMARK   21  A    between atoms: P_30  and  O_27 
REMARK   22  A    between atoms: P_31  and  O_29 
REMARK   23  A    between atoms: O_33  and  P_36 
REMARK   24  A    between atoms: P_36  and  O_35 
REMARK   25  A    between atoms: N_50  and  C_46 
REMARK   26  A    between atoms: S_51  and  C_54 
REMARK   27  A    between atoms: C_54  and  C_52 
ROOT
HETATM    1  O   UNK N   1      36.237  12.713  10.204  0.00  0.00    -0.307 OA
HETATM    2  P   UNK N   1      37.783  11.934  10.105  0.00  0.00     0.391 P 
HETATM    3  O   UNK N   1      37.560  12.796   8.834  0.00  0.00    -0.632 OA
HETATM    4  H   UNK N   1      35.408  13.217  10.175  0.00  0.00     0.222 HD
ENDROOT
BRANCH   2   5
HETATM    5  O   UNK N   1      37.634  12.937  11.572  0.00  0.00    -0.286 OA
BRANCH   5   6
HETATM    6  C   UNK N   1      36.529  12.814  12.455  0.00  0.00     0.197 C 
HETATM    7  C   UNK N   1      36.660  11.821  13.572  0.00  0.00     0.199 C 
HETATM    8  C   UNK N   1      35.496  12.359  14.405  0.00  0.00     0.262 C 
HETATM    9  O   UNK N   1      35.541  13.768  14.386  0.00  0.00    -0.353 OA
HETATM   10  C   UNK N   1      36.404  14.056  13.321  0.00  0.00     0.180 C 
BRANCH   7  11
HETATM   11  O   UNK N   1      37.879  12.023  14.241  0.00  0.00    -0.388 OA
HETATM   12  H   UNK N   1      38.763  12.343  14.479  0.00  0.00     0.210 HD
ENDBRANCH   7  11
BRANCH   8  13
HETATM   13  N   UNK N   1      35.390  11.832  15.767  0.00  0.00    -0.297 N 
HETATM   14  C   UNK N   1      35.329  12.473  16.947  0.00  0.00     0.142 A 
HETATM   15  C   UNK N   1      35.309  11.567  17.942  0.00  0.00     0.122 A 
HETATM   16  N   UNK N   1      35.326  13.807  17.181  0.00  0.00    -0.336 N 
HETATM   17  C   UNK N   1      35.280  11.985  19.262  0.00  0.00     0.131 A 
HETATM   18  N   UNK N   1      35.349  10.324  17.433  0.00  0.00    -0.346 N 
HETATM   19  N   UNK N   1      35.267  13.328  19.511  0.00  0.00    -0.337 N 
HETATM   20  C   UNK N   1      35.288  14.236  18.480  0.00  0.00     0.183 A 
ATOM     21  HN  UNK N   1      35.244  13.661  20.473  1.00  0.00     0.168 HD
HETATM   22  C   UNK N   1      35.406  10.513  16.085  0.00  0.00     0.188 A 
ATOM     23  HN  UNK N   1      35.338   9.439  17.941  1.00  0.00     0.167 HD
ATOM     24  HN  UNK N   1      35.354  14.474  16.410  1.00  0.00     0.168 HD
BRANCH  17  25
HETATM   25  N   UNK N   1      35.284  11.058  20.323  0.00  0.00    -0.383 N 
HETATM   26  H   UNK N   1      35.951  11.060  21.046  0.00  0.00     0.157 HD
HETATM   27  H   UNK N   1      34.580  10.370  20.343  0.00  0.00     0.157 HD
ENDBRANCH  17  25
ENDBRANCH   8  13
BRANCH  10  28
HETATM   28  C   UNK N   1      36.056  15.327  12.585  0.00  0.00     0.215 C 
BRANCH  28  29
HETATM   29  O   UNK N   1      35.138  14.992  11.579  0.00  0.00    -0.294 OA
BRANCH  29  30
HETATM   30  P   UNK N   1      35.085  16.379  10.534  0.00  0.00     0.401 P 
HETATM   31  O   UNK N   1      36.423  15.691  10.197  0.00  0.00    -0.631 OA
BRANCH  30  32
HETATM   32  O   UNK N   1      34.745  16.309   8.780  0.00  0.00    -0.195 OA
BRANCH  32  33
HETATM   33  P   UNK N   1      34.265  17.806   7.953  0.00  0.00     0.401 P 
HETATM   34  O   UNK N   1      32.794  18.189   8.277  0.00  0.00    -0.631 OA
BRANCH  33  35
HETATM   35  O   UNK N   1      34.443  17.665   6.228  0.00  0.00    -0.296 OA
BRANCH  35  36
HETATM   36  C   UNK N   1      33.130  17.681   5.751  0.00  0.00     0.192 C 
BRANCH  36  37
HETATM   37  C   UNK N   1      32.784  16.489   4.886  0.00  0.00     0.009 C 
HETATM   38  C   UNK N   1      33.930  15.490   4.950  0.00  0.00     0.020 C 
HETATM   39  C   UNK N   1      32.688  17.001   3.463  0.00  0.00     0.020 C 
BRANCH  37  40
HETATM   40  C   UNK N   1      31.415  15.857   5.227  0.00  0.00     0.219 C 
BRANCH  40  41
HETATM   41  C   UNK N   1      30.406  16.679   5.984  0.00  0.00     0.247 C 
HETATM   42  N   UNK N   1      29.606  17.540   5.299  0.00  0.00    -0.358 N 
HETATM   43  H   UNK N   1      29.769  17.670   4.338  0.00  0.00     0.162 HD
HETATM   44  O   UNK N   1      30.247  16.505   7.184  0.00  0.00    -0.271 OA
BRANCH  42  45
HETATM   45  C   UNK N   1      28.529  18.269   5.925  0.00  0.00     0.132 C 
BRANCH  45  46
HETATM   46  C   UNK N   1      27.935  19.281   4.960  0.00  0.00     0.122 C 
BRANCH  46  47
HETATM   47  C   UNK N   1      26.576  19.719   5.423  0.00  0.00     0.219 C 
HETATM   48  N   UNK N   1      25.433  19.278   4.833  0.00  0.00    -0.360 N 
HETATM   49  H   UNK N   1      24.573  19.618   5.170  0.00  0.00     0.162 HD
HETATM   50  O   UNK N   1      26.502  20.510   6.348  0.00  0.00    -0.274 OA
BRANCH  48  51
HETATM   51  C   UNK N   1      25.415  18.338   3.738  0.00  0.00     0.133 C 
BRANCH  51  52
HETATM   52  C   UNK N   1      24.159  17.491   3.784  0.00  0.00     0.102 C 
BRANCH  52  53
HETATM   53  S   UNK N   1      23.067  18.113   5.087  0.00  0.00    -0.091 SA
BRANCH  53  54
HETATM   54  C   UNK N   1      21.956  18.834   3.889  0.00  0.00     0.185 C 
HETATM   55  O   UNK N   1      22.112  19.996   3.544  0.00  0.00    -0.286 OA
BRANCH  54  56
HETATM   56  C   UNK N   1      20.837  17.999   3.338  0.00  0.00     0.086 C 
HETATM   57  C   UNK N   1      19.726  18.832   2.722  0.00  0.00     0.013 C 
ENDBRANCH  54  56
ENDBRANCH  53  54
ENDBRANCH  52  53
ENDBRANCH  51  52
ENDBRANCH  48  51
ENDBRANCH  46  47
ENDBRANCH  45  46
ENDBRANCH  42  45
ENDBRANCH  40  41
BRANCH  40  58
HETATM   58  O   UNK N   1      31.569  14.580   5.776  0.00  0.00    -0.385 OA
HETATM   59  H   UNK N   1      32.312  14.018   5.508  0.00  0.00     0.210 HD
ENDBRANCH  40  58
ENDBRANCH  37  40
ENDBRANCH  36  37
ENDBRANCH  35  36
ENDBRANCH  33  35
BRANCH  33  60
HETATM   60  O   UNK N   1      35.246  19.119   8.528  0.00  0.00    -0.307 OA
HETATM   61  H   UNK N   1      35.905  19.303   9.216  0.00  0.00     0.222 HD
ENDBRANCH  33  60
ENDBRANCH  32  33
ENDBRANCH  30  32
BRANCH  30  62
HETATM   62  O   UNK N   1      33.707  15.328  10.342  0.00  0.00    -0.307 OA
HETATM   63  H   UNK N   1      33.207  14.714   9.782  0.00  0.00     0.222 HD
ENDBRANCH  30  62
ENDBRANCH  29  30
ENDBRANCH  28  29
ENDBRANCH  10  28
ENDBRANCH   5   6
ENDBRANCH   2   5
BRANCH   2  64
HETATM   64  O   UNK N   1      39.321  12.716   9.878  0.00  0.00    -0.307 OA
HETATM   65  H   UNK N   1      40.237  12.393   9.874  0.00  0.00     0.222 HD
ENDBRANCH   2  64
TORSDOF 27
ENDMDL
MODEL 5
REMARK VINA RESULT:      -7.0      1.678      2.543
REMARK  27 active torsions:
REMARK  status: ('A' for Active; 'I' for Inactive)
REMARK    1  A    between atoms: C_1  and  N_38 
REMARK    2  A    between atoms: C_3  and  O_6 
REMARK    3  A    between atoms: C_4  and  C_32 
REMARK    4  A    between atoms: C_5  and  O_33 
REMARK    5  A    between atoms: N_9  and  C_7 
REMARK    6  A    between atoms: C_7  and  C_8 
REMARK    7  A    between atoms: C_8  and  S_51 
REMARK       I    between atoms: C_10  and  N_9 
REMARK    8  A    between atoms: C_13  and  C_10 
REMARK    9  A    between atoms: C_12  and  N_14 
REMARK   10  A    between atoms: C_13  and  C_12 
REMARK       I    between atoms: C_16  and  N_14 
REMARK   11  A    between atoms: C_16  and  C_21 
REMARK   12  A    between atoms: C_19  and  C_17 
REMARK   13  A    between atoms: C_17  and  O_23 
REMARK   14  A    between atoms: C_21  and  C_19 
REMARK   15  A    between atoms: C_21  and  O_22 
REMARK   16  A    between atoms: O_23  and  P_30 
REMARK   17  A    between atoms: P_30  and  O_24 
REMARK   18  A    between atoms: O_24  and  P_31 
REMARK   19  A    between atoms: P_31  and  O_25 
REMARK   20  A    between atoms: C_32  and  O_25 
REMARK   21  A    between atoms: P_30  and  O_27 
REMARK   22  A    between atoms: P_31  and  O_29 
REMARK   23  A    between atoms: O_33  and  P_36 
REMARK   24  A    between atoms: P_36  and  O_35 
REMARK   25  A    between atoms: N_50  and  C_46 
REMARK   26  A    between atoms: S_51  and  C_54 
REMARK   27  A    between atoms: C_54  and  C_52 
ROOT
HETATM    1  O   UNK N   1      36.277  12.595  10.216  0.00  0.00    -0.307 OA
HETATM    2  P   UNK N   1      37.855  11.878  10.143  0.00  0.00     0.391 P 
HETATM    3  O   UNK N   1      37.597  12.683   8.842  0.00  0.00    -0.632 OA
HETATM    4  H   UNK N   1      35.428  13.062  10.169  0.00  0.00     0.222 HD
ENDROOT
BRANCH   2   5
HETATM    5  O   UNK N   1      37.662  12.926  11.573  0.00  0.00    -0.286 OA
BRANCH   5   6
HETATM    6  C   UNK N   1      36.552  12.804  12.449  0.00  0.00     0.197 C 
HETATM    7  C   UNK N   1      36.682  11.825  13.578  0.00  0.00     0.199 C 
HETATM    8  C   UNK N   1      35.507  12.362  14.395  0.00  0.00     0.262 C 
HETATM    9  O   UNK N   1      35.540  13.771  14.360  0.00  0.00    -0.353 OA
HETATM   10  C   UNK N   1      36.409  14.054  13.299  0.00  0.00     0.180 C 
BRANCH   7  11
HETATM   11  O   UNK N   1      37.894  12.045  14.255  0.00  0.00    -0.388 OA
HETATM   12  H   UNK N   1      38.557  12.155  14.954  0.00  0.00     0.210 HD
ENDBRANCH   7  11
BRANCH   8  13
HETATM   13  N   UNK N   1      35.394  11.851  15.763  0.00  0.00    -0.297 N 
HETATM   14  C   UNK N   1      35.336  12.504  16.936  0.00  0.00     0.142 A 
HETATM   15  C   UNK N   1      35.306  11.608  17.940  0.00  0.00     0.122 A 
HETATM   16  N   UNK N   1      35.344  13.840  17.156  0.00  0.00    -0.336 N 
HETATM   17  C   UNK N   1      35.279  12.041  19.256  0.00  0.00     0.131 A 
HETATM   18  N   UNK N   1      35.337  10.360  17.445  0.00  0.00    -0.346 N 
HETATM   19  N   UNK N   1      35.277  13.386  19.491  0.00  0.00    -0.337 N 
HETATM   20  C   UNK N   1      35.306  14.283  18.451  0.00  0.00     0.183 A 
ATOM     21  HN  UNK N   1      35.254  13.729  20.450  1.00  0.00     0.168 HD
HETATM   22  C   UNK N   1      35.398  10.535  16.095  0.00  0.00     0.188 A 
ATOM     23  HN  UNK N   1      35.319   9.481  17.961  1.00  0.00     0.167 HD
ATOM     24  HN  UNK N   1      35.378  14.499  16.378  1.00  0.00     0.168 HD
BRANCH  17  25
HETATM   25  N   UNK N   1      35.273  11.124  20.327  0.00  0.00    -0.383 N 
HETATM   26  H   UNK N   1      36.002  10.486  20.502  0.00  0.00     0.157 HD
HETATM   27  H   UNK N   1      34.498  11.122  20.933  0.00  0.00     0.157 HD
ENDBRANCH  17  25
ENDBRANCH   8  13
BRANCH  10  28
HETATM   28  C   UNK N   1      36.056  15.314  12.545  0.00  0.00     0.215 C 
BRANCH  28  29
HETATM   29  O   UNK N   1      35.211  14.948  11.488  0.00  0.00    -0.294 OA
BRANCH  29  30
HETATM   30  P   UNK N   1      35.115  16.357  10.476  0.00  0.00     0.401 P 
HETATM   31  O   UNK N   1      36.300  15.551   9.906  0.00  0.00    -0.631 OA
BRANCH  30  32
HETATM   32  O   UNK N   1      34.470  16.361   8.808  0.00  0.00    -0.195 OA
BRANCH  32  33
HETATM   33  P   UNK N   1      34.202  17.925   8.010  0.00  0.00     0.401 P 
HETATM   34  O   UNK N   1      32.783  18.482   8.314  0.00  0.00    -0.631 OA
BRANCH  33  35
HETATM   35  O   UNK N   1      34.402  17.802   6.287  0.00  0.00    -0.296 OA
BRANCH  35  36
HETATM   36  C   UNK N   1      34.228  16.441   6.023  0.00  0.00     0.192 C 
BRANCH  36  37
HETATM   37  C   UNK N   1      32.983  16.132   5.220  0.00  0.00     0.009 C 
HETATM   38  C   UNK N   1      33.386  15.352   3.977  0.00  0.00     0.020 C 
HETATM   39  C   UNK N   1      32.415  17.464   4.774  0.00  0.00     0.020 C 
BRANCH  37  40
HETATM   40  C   UNK N   1      31.880  15.428   6.041  0.00  0.00     0.219 C 
BRANCH  40  41
HETATM   41  C   UNK N   1      30.621  16.188   6.366  0.00  0.00     0.247 C 
HETATM   42  N   UNK N   1      29.715  16.419   5.380  0.00  0.00    -0.358 N 
HETATM   43  H   UNK N   1      29.946  16.163   4.459  0.00  0.00     0.162 HD
HETATM   44  O   UNK N   1      30.379  16.511   7.521  0.00  0.00    -0.271 OA
BRANCH  42  45
HETATM   45  C   UNK N   1      28.428  17.025   5.629  0.00  0.00     0.132 C 
BRANCH  45  46
HETATM   46  C   UNK N   1      27.310  16.141   5.106  0.00  0.00     0.122 C 
BRANCH  46  47
HETATM   47  C   UNK N   1      27.027  16.443   3.663  0.00  0.00     0.219 C 
HETATM   48  N   UNK N   1      25.786  16.785   3.225  0.00  0.00    -0.360 N 
HETATM   49  H   UNK N   1      25.661  16.952   2.263  0.00  0.00     0.162 HD
HETATM   50  O   UNK N   1      27.941  16.360   2.860  0.00  0.00    -0.274 OA
BRANCH  48  51
HETATM   51  C   UNK N   1      24.642  16.915   4.097  0.00  0.00     0.133 C 
BRANCH  51  52
HETATM   52  C   UNK N   1      24.660  18.258   4.800  0.00  0.00     0.102 C 
BRANCH  52  53
HETATM   53  S   UNK N   1      24.957  19.566   3.585  0.00  0.00    -0.091 SA
BRANCH  53  54
HETATM   54  C   UNK N   1      26.511  20.000   4.349  0.00  0.00     0.185 C 
HETATM   55  O   UNK N   1      27.515  20.104   3.660  0.00  0.00    -0.286 OA
BRANCH  54  56
HETATM   56  C   UNK N   1      26.557  20.216   5.835  0.00  0.00     0.086 C 
HETATM   57  C   UNK N   1      26.793  21.668   6.214  0.00  0.00     0.013 C 
ENDBRANCH  54  56
ENDBRANCH  53  54
ENDBRANCH  52  53
ENDBRANCH  51  52
ENDBRANCH  48  51
ENDBRANCH  46  47
ENDBRANCH  45  46
ENDBRANCH  42  45
ENDBRANCH  40  41
BRANCH  40  58
HETATM   58  O   UNK N   1      32.414  14.792   7.167  0.00  0.00    -0.385 OA
HETATM   59  H   UNK N   1      32.596  15.298   7.974  0.00  0.00     0.210 HD
ENDBRANCH  40  58
ENDBRANCH  37  40
ENDBRANCH  36  37
ENDBRANCH  35  36
ENDBRANCH  33  35
BRANCH  33  60
HETATM   60  O   UNK N   1      35.326  19.089   8.640  0.00  0.00    -0.307 OA
HETATM   61  H   UNK N   1      35.372  20.037   8.843  0.00  0.00     0.222 HD
ENDBRANCH  33  60
ENDBRANCH  32  33
ENDBRANCH  30  32
BRANCH  30  62
HETATM   62  O   UNK N   1      33.628  15.448  10.521  0.00  0.00    -0.307 OA
HETATM   63  H   UNK N   1      32.875  15.068  10.041  0.00  0.00     0.222 HD
ENDBRANCH  30  62
ENDBRANCH  29  30
ENDBRANCH  28  29
ENDBRANCH  10  28
ENDBRANCH   5   6
ENDBRANCH   2   5
BRANCH   2  64
HETATM   64  O   UNK N   1      39.359  12.714   9.887  0.00  0.00    -0.307 OA
HETATM   65  H   UNK N   1      39.954  13.207  10.475  0.00  0.00     0.222 HD
ENDBRANCH   2  64
TORSDOF 27
ENDMDL
MODEL 6
REMARK VINA RESULT:      -6.9      1.935      3.918
REMARK  27 active torsions:
REMARK  status: ('A' for Active; 'I' for Inactive)
REMARK    1  A    between atoms: C_1  and  N_38 
REMARK    2  A    between atoms: C_3  and  O_6 
REMARK    3  A    between atoms: C_4  and  C_32 
REMARK    4  A    between atoms: C_5  and  O_33 
REMARK    5  A    between atoms: N_9  and  C_7 
REMARK    6  A    between atoms: C_7  and  C_8 
REMARK    7  A    between atoms: C_8  and  S_51 
REMARK       I    between atoms: C_10  and  N_9 
REMARK    8  A    between atoms: C_13  and  C_10 
REMARK    9  A    between atoms: C_12  and  N_14 
REMARK   10  A    between atoms: C_13  and  C_12 
REMARK       I    between atoms: C_16  and  N_14 
REMARK   11  A    between atoms: C_16  and  C_21 
REMARK   12  A    between atoms: C_19  and  C_17 
REMARK   13  A    between atoms: C_17  and  O_23 
REMARK   14  A    between atoms: C_21  and  C_19 
REMARK   15  A    between atoms: C_21  and  O_22 
REMARK   16  A    between atoms: O_23  and  P_30 
REMARK   17  A    between atoms: P_30  and  O_24 
REMARK   18  A    between atoms: O_24  and  P_31 
REMARK   19  A    between atoms: P_31  and  O_25 
REMARK   20  A    between atoms: C_32  and  O_25 
REMARK   21  A    between atoms: P_30  and  O_27 
REMARK   22  A    between atoms: P_31  and  O_29 
REMARK   23  A    between atoms: O_33  and  P_36 
REMARK   24  A    between atoms: P_36  and  O_35 
REMARK   25  A    between atoms: N_50  and  C_46 
REMARK   26  A    between atoms: S_51  and  C_54 
REMARK   27  A    between atoms: C_54  and  C_52 
ROOT
HETATM    1  O   UNK N   1      38.264  10.869  10.950  0.00  0.00    -0.307 OA
HETATM    2  P   UNK N   1      37.324  11.858   9.879  0.00  0.00     0.391 P 
HETATM    3  O   UNK N   1      36.721  10.429   9.920  0.00  0.00    -0.632 OA
HETATM    4  H   UNK N   1      38.703  10.242  11.547  0.00  0.00     0.222 HD
ENDROOT
BRANCH   2   5
HETATM    5  O   UNK N   1      37.409  12.546  11.522  0.00  0.00    -0.286 OA
BRANCH   5   6
HETATM    6  C   UNK N   1      36.321  12.458  12.430  0.00  0.00     0.197 C 
HETATM    7  C   UNK N   1      36.508  11.577  13.630  0.00  0.00     0.199 C 
HETATM    8  C   UNK N   1      35.332  12.139  14.429  0.00  0.00     0.262 C 
HETATM    9  O   UNK N   1      35.316  13.541  14.282  0.00  0.00    -0.353 OA
HETATM   10  C   UNK N   1      36.153  13.767  13.182  0.00  0.00     0.180 C 
BRANCH   7  11
HETATM   11  O   UNK N   1      37.725  11.890  14.259  0.00  0.00    -0.388 OA
HETATM   12  H   UNK N   1      38.456  12.375  14.672  0.00  0.00     0.210 HD
ENDBRANCH   7  11
BRANCH   8  13
HETATM   13  N   UNK N   1      35.264  11.735  15.835  0.00  0.00    -0.297 N 
HETATM   14  C   UNK N   1      35.264  12.476  16.956  0.00  0.00     0.142 A 
HETATM   15  C   UNK N   1      35.259  11.659  18.026  0.00  0.00     0.122 A 
HETATM   16  N   UNK N   1      35.303  13.824  17.073  0.00  0.00    -0.336 N 
HETATM   17  C   UNK N   1      35.291  12.190  19.305  0.00  0.00     0.131 A 
HETATM   18  N   UNK N   1      35.249  10.376  17.626  0.00  0.00    -0.346 N 
HETATM   19  N   UNK N   1      35.321  13.549  19.436  0.00  0.00    -0.337 N 
HETATM   20  C   UNK N   1      35.324  14.364  18.331  0.00  0.00     0.183 A 
ATOM     21  HN  UNK N   1      35.341  13.964  20.367  1.00  0.00     0.168 HD
HETATM   22  C   UNK N   1      35.260  10.448  16.265  0.00  0.00     0.188 A 
ATOM     23  HN  UNK N   1      35.236   9.539  18.208  1.00  0.00     0.167 HD
ATOM     24  HN  UNK N   1      35.318  14.422  16.247  1.00  0.00     0.168 HD
BRANCH  17  25
HETATM   25  N   UNK N   1      35.312  11.357  20.442  0.00  0.00    -0.383 N 
HETATM   26  H   UNK N   1      35.650  11.643  21.320  0.00  0.00     0.157 HD
HETATM   27  H   UNK N   1      34.969  10.438  20.352  0.00  0.00     0.157 HD
ENDBRANCH  17  25
ENDBRANCH   8  13
BRANCH  10  28
HETATM   28  C   UNK N   1      35.742  14.950  12.340  0.00  0.00     0.215 C 
BRANCH  28  29
HETATM   29  O   UNK N   1      34.831  14.487  11.380  0.00  0.00    -0.294 OA
BRANCH  29  30
HETATM   30  P   UNK N   1      34.479  15.867  10.385  0.00  0.00     0.401 P 
HETATM   31  O   UNK N   1      35.419  14.998   9.525  0.00  0.00    -0.631 OA
BRANCH  30  32
HETATM   32  O   UNK N   1      33.370  15.845   8.983  0.00  0.00    -0.195 OA
BRANCH  32  33
HETATM   33  P   UNK N   1      33.292  17.284   7.945  0.00  0.00     0.401 P 
HETATM   34  O   UNK N   1      33.881  18.533   8.659  0.00  0.00    -0.631 OA
BRANCH  33  35
HETATM   35  O   UNK N   1      31.658  17.631   7.461  0.00  0.00    -0.296 OA
BRANCH  35  36
HETATM   36  C   UNK N   1      30.879  16.845   8.313  0.00  0.00     0.192 C 
BRANCH  36  37
HETATM   37  C   UNK N   1      29.824  17.625   9.067  0.00  0.00     0.009 C 
HETATM   38  C   UNK N   1      30.356  19.025   9.341  0.00  0.00     0.020 C 
HETATM   39  C   UNK N   1      29.638  16.926  10.398  0.00  0.00     0.020 C 
BRANCH  37  40
HETATM   40  C   UNK N   1      28.446  17.631   8.368  0.00  0.00     0.219 C 
BRANCH  40  41
HETATM   41  C   UNK N   1      28.291  18.391   7.077  0.00  0.00     0.247 C 
HETATM   42  N   UNK N   1      28.684  17.807   5.915  0.00  0.00    -0.358 N 
HETATM   43  H   UNK N   1      29.144  16.938   5.956  0.00  0.00     0.162 HD
HETATM   44  O   UNK N   1      27.733  19.479   7.068  0.00  0.00    -0.271 OA
BRANCH  42  45
HETATM   45  C   UNK N   1      28.454  18.408   4.622  0.00  0.00     0.132 C 
BRANCH  45  46
HETATM   46  C   UNK N   1      27.969  17.370   3.627  0.00  0.00     0.122 C 
BRANCH  46  47
HETATM   47  C   UNK N   1      27.234  16.266   4.330  0.00  0.00     0.219 C 
HETATM   48  N   UNK N   1      27.587  14.960   4.193  0.00  0.00    -0.360 N 
HETATM   49  H   UNK N   1      27.054  14.280   4.664  0.00  0.00     0.162 HD
HETATM   50  O   UNK N   1      26.279  16.554   5.031  0.00  0.00    -0.274 OA
BRANCH  48  51
HETATM   51  C   UNK N   1      28.705  14.518   3.392  0.00  0.00     0.133 C 
BRANCH  51  52
HETATM   52  C   UNK N   1      29.984  14.538   4.205  0.00  0.00     0.102 C 
BRANCH  52  53
HETATM   53  S   UNK N   1      31.373  14.064   3.146  0.00  0.00    -0.091 SA
BRANCH  53  54
HETATM   54  C   UNK N   1      32.490  15.133   4.037  0.00  0.00     0.185 C 
HETATM   55  O   UNK N   1      32.856  14.823   5.161  0.00  0.00    -0.286 OA
BRANCH  54  56
HETATM   56  C   UNK N   1      32.949  16.409   3.391  0.00  0.00     0.086 C 
HETATM   57  C   UNK N   1      32.118  17.612   3.801  0.00  0.00     0.013 C 
ENDBRANCH  54  56
ENDBRANCH  53  54
ENDBRANCH  52  53
ENDBRANCH  51  52
ENDBRANCH  48  51
ENDBRANCH  46  47
ENDBRANCH  45  46
ENDBRANCH  42  45
ENDBRANCH  40  41
BRANCH  40  58
HETATM   58  O   UNK N   1      27.420  17.921   9.274  0.00  0.00    -0.385 OA
HETATM   59  H   UNK N   1      26.558  18.230   8.954  0.00  0.00     0.210 HD
ENDBRANCH  40  58
ENDBRANCH  37  40
ENDBRANCH  36  37
ENDBRANCH  35  36
ENDBRANCH  33  35
BRANCH  33  60
HETATM   60  O   UNK N   1      34.269  17.027   6.533  0.00  0.00    -0.307 OA
HETATM   61  H   UNK N   1      35.083  16.569   6.270  0.00  0.00     0.222 HD
ENDBRANCH  33  60
ENDBRANCH  32  33
ENDBRANCH  30  32
BRANCH  30  62
HETATM   62  O   UNK N   1      33.047  15.019  10.904  0.00  0.00    -0.307 OA
HETATM   63  H   UNK N   1      32.547  14.603  11.624  0.00  0.00     0.222 HD
ENDBRANCH  30  62
ENDBRANCH  29  30
ENDBRANCH  28  29
ENDBRANCH  10  28
ENDBRANCH   5   6
ENDBRANCH   2   5
BRANCH   2  64
HETATM   64  O   UNK N   1      35.611  12.150   9.980  0.00  0.00    -0.307 OA
HETATM   65  H   UNK N   1      34.863  11.617  10.293  0.00  0.00     0.222 HD
ENDBRANCH   2  64
TORSDOF 27
ENDMDL
MODEL 7
REMARK VINA RESULT:      -6.9      1.840      2.323
REMARK  27 active torsions:
REMARK  status: ('A' for Active; 'I' for Inactive)
REMARK    1  A    between atoms: C_1  and  N_38 
REMARK    2  A    between atoms: C_3  and  O_6 
REMARK    3  A    between atoms: C_4  and  C_32 
REMARK    4  A    between atoms: C_5  and  O_33 
REMARK    5  A    between atoms: N_9  and  C_7 
REMARK    6  A    between atoms: C_7  and  C_8 
REMARK    7  A    between atoms: C_8  and  S_51 
REMARK       I    between atoms: C_10  and  N_9 
REMARK    8  A    between atoms: C_13  and  C_10 
REMARK    9  A    between atoms: C_12  and  N_14 
REMARK   10  A    between atoms: C_13  and  C_12 
REMARK       I    between atoms: C_16  and  N_14 
REMARK   11  A    between atoms: C_16  and  C_21 
REMARK   12  A    between atoms: C_19  and  C_17 
REMARK   13  A    between atoms: C_17  and  O_23 
REMARK   14  A    between atoms: C_21  and  C_19 
REMARK   15  A    between atoms: C_21  and  O_22 
REMARK   16  A    between atoms: O_23  and  P_30 
REMARK   17  A    between atoms: P_30  and  O_24 
REMARK   18  A    between atoms: O_24  and  P_31 
REMARK   19  A    between atoms: P_31  and  O_25 
REMARK   20  A    between atoms: C_32  and  O_25 
REMARK   21  A    between atoms: P_30  and  O_27 
REMARK   22  A    between atoms: P_31  and  O_29 
REMARK   23  A    between atoms: O_33  and  P_36 
REMARK   24  A    between atoms: P_36  and  O_35 
REMARK   25  A    between atoms: N_50  and  C_46 
REMARK   26  A    between atoms: S_51  and  C_54 
REMARK   27  A    between atoms: C_54  and  C_52 
ROOT
HETATM    1  O   UNK N   1      38.946  13.741  10.296  0.00  0.00    -0.307 OA
HETATM    2  P   UNK N   1      37.855  12.459   9.881  0.00  0.00     0.391 P 
HETATM    3  O   UNK N   1      39.306  12.028   9.540  0.00  0.00    -0.632 OA
HETATM    4  H   UNK N   1      39.641  14.381  10.519  0.00  0.00     0.222 HD
ENDROOT
BRANCH   2   5
HETATM    5  O   UNK N   1      37.727  12.914  11.601  0.00  0.00    -0.286 OA
BRANCH   5   6
HETATM    6  C   UNK N   1      36.596  12.570  12.386  0.00  0.00     0.197 C 
HETATM    7  C   UNK N   1      36.852  11.780  13.635  0.00  0.00     0.199 C 
HETATM    8  C   UNK N   1      35.489  12.041  14.276  0.00  0.00     0.262 C 
HETATM    9  O   UNK N   1      35.145  13.393  14.069  0.00  0.00    -0.353 OA
HETATM   10  C   UNK N   1      36.024  13.806  13.059  0.00  0.00     0.180 C 
BRANCH   7  11
HETATM   11  O   UNK N   1      37.873  12.394  14.381  0.00  0.00    -0.388 OA
HETATM   12  H   UNK N   1      38.640  12.540  14.957  0.00  0.00     0.210 HD
ENDBRANCH   7  11
BRANCH   8  13
HETATM   13  N   UNK N   1      35.359  11.651  15.681  0.00  0.00    -0.297 N 
HETATM   14  C   UNK N   1      35.337  12.403  16.795  0.00  0.00     0.142 A 
HETATM   15  C   UNK N   1      35.271  11.596  17.871  0.00  0.00     0.122 A 
HETATM   16  N   UNK N   1      35.408  13.750  16.903  0.00  0.00    -0.336 N 
HETATM   17  C   UNK N   1      35.270  12.137  19.146  0.00  0.00     0.131 A 
HETATM   18  N   UNK N   1      35.241  10.310  17.481  0.00  0.00    -0.346 N 
HETATM   19  N   UNK N   1      35.331  13.496  19.268  0.00  0.00    -0.337 N 
HETATM   20  C   UNK N   1      35.397  14.301  18.156  0.00  0.00     0.183 A 
ATOM     21  HN  UNK N   1      35.329  13.919  20.195  1.00  0.00     0.168 HD
HETATM   22  C   UNK N   1      35.304  10.369  16.122  0.00  0.00     0.188 A 
ATOM     23  HN  UNK N   1      35.185   9.479  18.070  1.00  0.00     0.167 HD
ATOM     24  HN  UNK N   1      35.469  14.340  16.073  1.00  0.00     0.168 HD
BRANCH  17  25
HETATM   25  N   UNK N   1      35.227  11.314  20.290  0.00  0.00    -0.383 N 
HETATM   26  H   UNK N   1      35.435  11.632  21.197  0.00  0.00     0.157 HD
HETATM   27  H   UNK N   1      34.975  10.370  20.174  0.00  0.00     0.157 HD
ENDBRANCH  17  25
ENDBRANCH   8  13
BRANCH  10  28
HETATM   28  C   UNK N   1      35.436  14.838  12.128  0.00  0.00     0.215 C 
BRANCH  28  29
HETATM   29  O   UNK N   1      34.507  14.183  11.308  0.00  0.00    -0.294 OA
BRANCH  29  30
HETATM   30  P   UNK N   1      34.711  14.891   9.735  0.00  0.00     0.401 P 
HETATM   31  O   UNK N   1      33.662  13.779   9.526  0.00  0.00    -0.631 OA
BRANCH  30  32
HETATM   32  O   UNK N   1      33.529  15.986   8.959  0.00  0.00    -0.195 OA
BRANCH  32  33
HETATM   33  P   UNK N   1      34.115  17.522   8.288  0.00  0.00     0.401 P 
HETATM   34  O   UNK N   1      33.004  18.610   8.300  0.00  0.00    -0.631 OA
BRANCH  33  35
HETATM   35  O   UNK N   1      34.693  17.326   6.659  0.00  0.00    -0.296 OA
BRANCH  35  36
HETATM   36  C   UNK N   1      33.561  17.545   5.871  0.00  0.00     0.192 C 
BRANCH  36  37
HETATM   37  C   UNK N   1      32.994  16.283   5.258  0.00  0.00     0.009 C 
HETATM   38  C   UNK N   1      34.023  15.171   5.391  0.00  0.00     0.020 C 
HETATM   39  C   UNK N   1      32.802  16.569   3.782  0.00  0.00     0.020 C 
BRANCH  37  40
HETATM   40  C   UNK N   1      31.609  15.894   5.821  0.00  0.00     0.219 C 
BRANCH  40  41
HETATM   41  C   UNK N   1      30.642  16.988   6.188  0.00  0.00     0.247 C 
HETATM   42  N   UNK N   1      30.401  17.245   7.501  0.00  0.00    -0.358 N 
HETATM   43  H   UNK N   1      30.796  16.649   8.177  0.00  0.00     0.162 HD
HETATM   44  O   UNK N   1      30.153  17.693   5.317  0.00  0.00    -0.271 OA
BRANCH  42  45
HETATM   45  C   UNK N   1      29.591  18.355   7.943  0.00  0.00     0.132 C 
BRANCH  45  46
HETATM   46  C   UNK N   1      28.158  18.196   7.467  0.00  0.00     0.122 C 
BRANCH  46  47
HETATM   47  C   UNK N   1      27.488  17.055   8.176  0.00  0.00     0.219 C 
HETATM   48  N   UNK N   1      26.743  16.128   7.516  0.00  0.00    -0.360 N 
HETATM   49  H   UNK N   1      26.313  15.415   8.040  0.00  0.00     0.162 HD
HETATM   50  O   UNK N   1      27.604  16.971   9.387  0.00  0.00    -0.274 OA
BRANCH  48  51
HETATM   51  C   UNK N   1      26.551  16.137   6.084  0.00  0.00     0.133 C 
BRANCH  51  52
HETATM   52  C   UNK N   1      25.073  16.172   5.747  0.00  0.00     0.102 C 
BRANCH  52  53
HETATM   53  S   UNK N   1      24.834  17.097   4.209  0.00  0.00    -0.091 SA
BRANCH  53  54
HETATM   54  C   UNK N   1      23.068  17.173   4.464  0.00  0.00     0.185 C 
HETATM   55  O   UNK N   1      22.345  17.572   3.564  0.00  0.00    -0.286 OA
BRANCH  54  56
HETATM   56  C   UNK N   1      22.505  16.756   5.793  0.00  0.00     0.086 C 
HETATM   57  C   UNK N   1      21.549  17.781   6.377  0.00  0.00     0.013 C 
ENDBRANCH  54  56
ENDBRANCH  53  54
ENDBRANCH  52  53
ENDBRANCH  51  52
ENDBRANCH  48  51
ENDBRANCH  46  47
ENDBRANCH  45  46
ENDBRANCH  42  45
ENDBRANCH  40  41
BRANCH  40  58
HETATM   58  O   UNK N   1      31.725  14.935   6.833  0.00  0.00    -0.385 OA
HETATM   59  H   UNK N   1      31.944  14.016   6.613  0.00  0.00     0.210 HD
ENDBRANCH  40  58
ENDBRANCH  37  40
ENDBRANCH  36  37
ENDBRANCH  35  36
ENDBRANCH  33  35
BRANCH  33  60
HETATM   60  O   UNK N   1      35.400  18.130   9.286  0.00  0.00    -0.307 OA
HETATM   61  H   UNK N   1      36.369  18.132   9.324  0.00  0.00     0.222 HD
ENDBRANCH  33  60
ENDBRANCH  32  33
ENDBRANCH  30  32
BRANCH  30  62
HETATM   62  O   UNK N   1      34.245  16.052  10.949  0.00  0.00    -0.307 OA
HETATM   63  H   UNK N   1      33.549  16.428  11.511  0.00  0.00     0.222 HD
ENDBRANCH  30  62
ENDBRANCH  29  30
ENDBRANCH  28  29
ENDBRANCH  10  28
ENDBRANCH   5   6
ENDBRANCH   2   5
BRANCH   2  64
HETATM   64  O   UNK N   1      37.927  10.816  10.450  0.00  0.00    -0.307 OA
HETATM   65  H   UNK N   1      37.821   9.956  10.013  0.00  0.00     0.222 HD
ENDBRANCH   2  64
TORSDOF 27
ENDMDL
MODEL 8
REMARK VINA RESULT:      -6.8      2.893      3.486
REMARK  27 active torsions:
REMARK  status: ('A' for Active; 'I' for Inactive)
REMARK    1  A    between atoms: C_1  and  N_38 
REMARK    2  A    between atoms: C_3  and  O_6 
REMARK    3  A    between atoms: C_4  and  C_32 
REMARK    4  A    between atoms: C_5  and  O_33 
REMARK    5  A    between atoms: N_9  and  C_7 
REMARK    6  A    between atoms: C_7  and  C_8 
REMARK    7  A    between atoms: C_8  and  S_51 
REMARK       I    between atoms: C_10  and  N_9 
REMARK    8  A    between atoms: C_13  and  C_10 
REMARK    9  A    between atoms: C_12  and  N_14 
REMARK   10  A    between atoms: C_13  and  C_12 
REMARK       I    between atoms: C_16  and  N_14 
REMARK   11  A    between atoms: C_16  and  C_21 
REMARK   12  A    between atoms: C_19  and  C_17 
REMARK   13  A    between atoms: C_17  and  O_23 
REMARK   14  A    between atoms: C_21  and  C_19 
REMARK   15  A    between atoms: C_21  and  O_22 
REMARK   16  A    between atoms: O_23  and  P_30 
REMARK   17  A    between atoms: P_30  and  O_24 
REMARK   18  A    between atoms: O_24  and  P_31 
REMARK   19  A    between atoms: P_31  and  O_25 
REMARK   20  A    between atoms: C_32  and  O_25 
REMARK   21  A    between atoms: P_30  and  O_27 
REMARK   22  A    between atoms: P_31  and  O_29 
REMARK   23  A    between atoms: O_33  and  P_36 
REMARK   24  A    between atoms: P_36  and  O_35 
REMARK   25  A    between atoms: N_50  and  C_46 
REMARK   26  A    between atoms: S_51  and  C_54 
REMARK   27  A    between atoms: C_54  and  C_52 
ROOT
HETATM    1  O   UNK N   1      36.298  10.540  10.095  0.00  0.00    -0.307 OA
HETATM    2  P   UNK N   1      35.510  11.992   9.568  0.00  0.00     0.391 P 
HETATM    3  O   UNK N   1      34.484  10.828   9.582  0.00  0.00    -0.632 OA
HETATM    4  H   UNK N   1      36.634   9.683  10.405  0.00  0.00     0.222 HD
ENDROOT
BRANCH   2   5
HETATM    5  O   UNK N   1      36.259  12.184  11.174  0.00  0.00    -0.286 OA
BRANCH   5   6
HETATM    6  C   UNK N   1      35.489  12.467  12.333  0.00  0.00     0.197 C 
HETATM    7  C   UNK N   1      35.491  11.431  13.419  0.00  0.00     0.199 C 
HETATM    8  C   UNK N   1      34.930  12.342  14.512  0.00  0.00     0.262 C 
HETATM    9  O   UNK N   1      35.551  13.603  14.411  0.00  0.00    -0.353 OA
HETATM   10  C   UNK N   1      36.132  13.584  13.136  0.00  0.00     0.180 C 
BRANCH   7  11
HETATM   11  O   UNK N   1      36.814  11.063  13.716  0.00  0.00    -0.388 OA
HETATM   12  H   UNK N   1      37.736  10.775  13.631  0.00  0.00     0.210 HD
ENDBRANCH   7  11
BRANCH   8  13
HETATM   13  N   UNK N   1      34.987  11.811  15.876  0.00  0.00    -0.297 N 
HETATM   14  C   UNK N   1      35.118  12.445  17.053  0.00  0.00     0.142 A 
HETATM   15  C   UNK N   1      35.192  11.534  18.040  0.00  0.00     0.122 A 
HETATM   16  N   UNK N   1      35.208  13.776  17.286  0.00  0.00    -0.336 N 
HETATM   17  C   UNK N   1      35.363  11.943  19.352  0.00  0.00     0.131 A 
HETATM   18  N   UNK N   1      35.104  10.294  17.530  0.00  0.00    -0.346 N 
HETATM   19  N   UNK N   1      35.447  13.284  19.602  0.00  0.00    -0.337 N 
HETATM   20  C   UNK N   1      35.368  14.197  18.579  0.00  0.00     0.183 A 
ATOM     21  HN  UNK N   1      35.570  13.610  20.559  1.00  0.00     0.168 HD
HETATM   22  C   UNK N   1      34.985  10.490  16.187  0.00  0.00     0.188 A 
ATOM     23  HN  UNK N   1      35.123   9.407  18.034  1.00  0.00     0.167 HD
ATOM     24  HN  UNK N   1      35.161  14.447  16.519  1.00  0.00     0.168 HD
BRANCH  17  25
HETATM   25  N   UNK N   1      35.470  11.009  20.402  0.00  0.00    -0.383 N 
HETATM   26  H   UNK N   1      36.305  10.832  20.891  0.00  0.00     0.157 HD
HETATM   27  H   UNK N   1      34.664  10.506  20.661  0.00  0.00     0.157 HD
ENDBRANCH  17  25
ENDBRANCH   8  13
BRANCH  10  28
HETATM   28  C   UNK N   1      36.160  14.934  12.462  0.00  0.00     0.215 C 
BRANCH  28  29
HETATM   29  O   UNK N   1      34.976  15.058  11.721  0.00  0.00    -0.294 OA
BRANCH  29  30
HETATM   30  P   UNK N   1      35.254  16.392  10.643  0.00  0.00     0.401 P 
HETATM   31  O   UNK N   1      36.482  15.478  10.453  0.00  0.00    -0.631 OA
BRANCH  30  32
HETATM   32  O   UNK N   1      35.068  16.311   8.866  0.00  0.00    -0.195 OA
BRANCH  32  33
HETATM   33  P   UNK N   1      34.360  17.706   8.026  0.00  0.00     0.401 P 
HETATM   34  O   UNK N   1      32.893  17.957   8.477  0.00  0.00    -0.631 OA
BRANCH  33  35
HETATM   35  O   UNK N   1      34.390  17.493   6.301  0.00  0.00    -0.296 OA
BRANCH  35  36
HETATM   36  C   UNK N   1      33.048  17.585   5.925  0.00  0.00     0.192 C 
BRANCH  36  37
HETATM   37  C   UNK N   1      32.511  16.329   5.273  0.00  0.00     0.009 C 
HETATM   38  C   UNK N   1      33.684  15.438   4.892  0.00  0.00     0.020 C 
HETATM   39  C   UNK N   1      31.821  16.767   3.997  0.00  0.00     0.020 C 
BRANCH  37  40
HETATM   40  C   UNK N   1      31.451  15.597   6.126  0.00  0.00     0.219 C 
BRANCH  40  41
HETATM   41  C   UNK N   1      30.088  16.219   6.279  0.00  0.00     0.247 C 
HETATM   42  N   UNK N   1      29.018  15.619   5.694  0.00  0.00    -0.358 N 
HETATM   43  H   UNK N   1      29.174  14.843   5.110  0.00  0.00     0.162 HD
HETATM   44  O   UNK N   1      29.936  17.197   6.997  0.00  0.00    -0.271 OA
BRANCH  42  45
HETATM   45  C   UNK N   1      27.662  16.072   5.896  0.00  0.00     0.132 C 
BRANCH  45  46
HETATM   46  C   UNK N   1      26.671  14.994   5.497  0.00  0.00     0.122 C 
BRANCH  46  47
HETATM   47  C   UNK N   1      25.269  15.414   5.833  0.00  0.00     0.219 C 
HETATM   48  N   UNK N   1      24.620  14.953   6.935  0.00  0.00    -0.360 N 
HETATM   49  H   UNK N   1      23.694  15.250   7.089  0.00  0.00     0.162 HD
HETATM   50  O   UNK N   1      24.692  16.179   5.078  0.00  0.00    -0.274 OA
BRANCH  48  51
HETATM   51  C   UNK N   1      25.217  14.050   7.891  0.00  0.00     0.133 C 
BRANCH  51  52
HETATM   52  C   UNK N   1      24.635  12.659   7.744  0.00  0.00     0.102 C 
BRANCH  52  53
HETATM   53  S   UNK N   1      22.847  12.783   7.485  0.00  0.00    -0.091 SA
BRANCH  53  54
HETATM   54  C   UNK N   1      22.540  12.846   9.243  0.00  0.00     0.185 C 
HETATM   55  O   UNK N   1      22.092  13.868   9.741  0.00  0.00    -0.286 OA
BRANCH  54  56
HETATM   56  C   UNK N   1      22.855  11.641  10.081  0.00  0.00     0.086 C 
HETATM   57  C   UNK N   1      23.612  11.986  11.351  0.00  0.00     0.013 C 
ENDBRANCH  54  56
ENDBRANCH  53  54
ENDBRANCH  52  53
ENDBRANCH  51  52
ENDBRANCH  48  51
ENDBRANCH  46  47
ENDBRANCH  45  46
ENDBRANCH  42  45
ENDBRANCH  40  41
BRANCH  40  58
HETATM   58  O   UNK N   1      31.982  15.189   7.354  0.00  0.00    -0.385 OA
HETATM   59  H   UNK N   1      31.666  15.586   8.180  0.00  0.00     0.210 HD
ENDBRANCH  40  58
ENDBRANCH  37  40
ENDBRANCH  36  37
ENDBRANCH  35  36
ENDBRANCH  33  35
BRANCH  33  60
HETATM   60  O   UNK N   1      35.247  19.139   8.446  0.00  0.00    -0.307 OA
HETATM   61  H   UNK N   1      35.089  20.032   8.791  0.00  0.00     0.222 HD
ENDBRANCH  33  60
ENDBRANCH  32  33
ENDBRANCH  30  32
BRANCH  30  62
HETATM   62  O   UNK N   1      33.742  15.578  10.343  0.00  0.00    -0.307 OA
HETATM   63  H   UNK N   1      32.980  15.436   9.759  0.00  0.00     0.222 HD
ENDBRANCH  30  62
ENDBRANCH  29  30
ENDBRANCH  28  29
ENDBRANCH  10  28
ENDBRANCH   5   6
ENDBRANCH   2   5
BRANCH   2  64
HETATM   64  O   UNK N   1      34.096  12.716  10.277  0.00  0.00    -0.307 OA
HETATM   65  H   UNK N   1      33.952  13.250  11.075  0.00  0.00     0.222 HD
ENDBRANCH   2  64
TORSDOF 27
ENDMDL
MODEL 9
REMARK VINA RESULT:      -6.8      9.393     13.510
REMARK  27 active torsions:
REMARK  status: ('A' for Active; 'I' for Inactive)
REMARK    1  A    between atoms: C_1  and  N_38 
REMARK    2  A    between atoms: C_3  and  O_6 
REMARK    3  A    between atoms: C_4  and  C_32 
REMARK    4  A    between atoms: C_5  and  O_33 
REMARK    5  A    between atoms: N_9  and  C_7 
REMARK    6  A    between atoms: C_7  and  C_8 
REMARK    7  A    between atoms: C_8  and  S_51 
REMARK       I    between atoms: C_10  and  N_9 
REMARK    8  A    between atoms: C_13  and  C_10 
REMARK    9  A    between atoms: C_12  and  N_14 
REMARK   10  A    between atoms: C_13  and  C_12 
REMARK       I    between atoms: C_16  and  N_14 
REMARK   11  A    between atoms: C_16  and  C_21 
REMARK   12  A    between atoms: C_19  and  C_17 
REMARK   13  A    between atoms: C_17  and  O_23 
REMARK   14  A    between atoms: C_21  and  C_19 
REMARK   15  A    between atoms: C_21  and  O_22 
REMARK   16  A    between atoms: O_23  and  P_30 
REMARK   17  A    between atoms: P_30  and  O_24 
REMARK   18  A    between atoms: O_24  and  P_31 
REMARK   19  A    between atoms: P_31  and  O_25 
REMARK   20  A    between atoms: C_32  and  O_25 
REMARK   21  A    between atoms: P_30  and  O_27 
REMARK   22  A    between atoms: P_31  and  O_29 
REMARK   23  A    between atoms: O_33  and  P_36 
REMARK   24  A    between atoms: P_36  and  O_35 
REMARK   25  A    between atoms: N_50  and  C_46 
REMARK   26  A    between atoms: S_51  and  C_54 
REMARK   27  A    between atoms: C_54  and  C_52 
ROOT
HETATM    1  O   UNK N   1      21.307  19.157   4.349  0.00  0.00    -0.307 OA
HETATM    2  P   UNK N   1      22.150  19.791   2.973  0.00  0.00     0.391 P 
HETATM    3  O   UNK N   1      21.082  20.816   3.437  0.00  0.00    -0.632 OA
HETATM    4  H   UNK N   1      20.796  18.908   5.136  0.00  0.00     0.222 HD
ENDROOT
BRANCH   2   5
HETATM    5  O   UNK N   1      23.259  19.396   4.311  0.00  0.00    -0.286 OA
BRANCH   5   6
HETATM    6  C   UNK N   1      24.289  18.430   4.172  0.00  0.00     0.197 C 
HETATM    7  C   UNK N   1      25.693  18.892   4.427  0.00  0.00     0.199 C 
HETATM    8  C   UNK N   1      26.301  17.497   4.570  0.00  0.00     0.262 C 
HETATM    9  O   UNK N   1      25.421  16.696   5.326  0.00  0.00    -0.353 OA
HETATM   10  C   UNK N   1      24.218  17.415   5.300  0.00  0.00     0.180 C 
BRANCH   7  11
HETATM   11  O   UNK N   1      25.748  19.581   5.651  0.00  0.00    -0.388 OA
HETATM   12  H   UNK N   1      25.792  19.783   6.599  0.00  0.00     0.210 HD
ENDBRANCH   7  11
BRANCH   8  13
HETATM   13  N   UNK N   1      27.670  17.447   5.089  0.00  0.00    -0.297 N 
HETATM   14  C   UNK N   1      28.122  17.460   6.354  0.00  0.00     0.142 A 
HETATM   15  C   UNK N   1      29.468  17.469   6.342  0.00  0.00     0.122 A 
HETATM   16  N   UNK N   1      27.408  17.500   7.504  0.00  0.00    -0.336 N 
HETATM   17  C   UNK N   1      30.174  17.516   7.533  0.00  0.00     0.131 A 
HETATM   18  N   UNK N   1      29.917  17.454   5.076  0.00  0.00    -0.346 N 
HETATM   19  N   UNK N   1      29.464  17.547   8.700  0.00  0.00    -0.337 N 
HETATM   20  C   UNK N   1      28.090  17.537   8.689  0.00  0.00     0.183 A 
ATOM     21  HN  UNK N   1      29.960  17.580   9.589  1.00  0.00     0.168 HD
HETATM   22  C   UNK N   1      28.785  17.448   4.317  0.00  0.00     0.188 A 
ATOM     23  HN  UNK N   1      30.886  17.449   4.755  1.00  0.00     0.167 HD
ATOM     24  HN  UNK N   1      26.388  17.504   7.486  1.00  0.00     0.168 HD
BRANCH  17  25
HETATM   25  N   UNK N   1      31.583  17.552   7.548  0.00  0.00    -0.383 N 
HETATM   26  H   UNK N   1      32.120  18.114   6.945  0.00  0.00     0.157 HD
HETATM   27  H   UNK N   1      32.056  16.983   8.197  0.00  0.00     0.157 HD
ENDBRANCH  17  25
ENDBRANCH   8  13
BRANCH  10  28
HETATM   28  C   UNK N   1      22.989  16.539   5.307  0.00  0.00     0.215 C 
BRANCH  28  29
HETATM   29  O   UNK N   1      22.058  17.127   6.175  0.00  0.00    -0.294 OA
BRANCH  29  30
HETATM   30  P   UNK N   1      21.432  15.815   7.126  0.00  0.00     0.401 P 
HETATM   31  O   UNK N   1      20.318  16.881   7.156  0.00  0.00    -0.631 OA
BRANCH  30  32
HETATM   32  O   UNK N   1      20.166  14.680   6.572  0.00  0.00    -0.195 OA
BRANCH  32  33
HETATM   33  P   UNK N   1      19.460  14.924   4.960  0.00  0.00     0.401 P 
HETATM   34  O   UNK N   1      17.946  14.570   4.942  0.00  0.00    -0.631 OA
BRANCH  33  35
HETATM   35  O   UNK N   1      20.276  13.969   3.757  0.00  0.00    -0.296 OA
BRANCH  35  36
HETATM   36  C   UNK N   1      19.317  13.793   2.758  0.00  0.00     0.192 C 
BRANCH  36  37
HETATM   37  C   UNK N   1      19.904  13.482   1.399  0.00  0.00     0.009 C 
HETATM   38  C   UNK N   1      20.944  14.540   1.063  0.00  0.00     0.020 C 
HETATM   39  C   UNK N   1      18.771  13.605   0.400  0.00  0.00     0.020 C 
BRANCH  37  40
HETATM   40  C   UNK N   1      20.451  12.042   1.279  0.00  0.00     0.219 C 
BRANCH  40  41
HETATM   41  C   UNK N   1      21.939  11.823   1.351  0.00  0.00     0.247 C 
HETATM   42  N   UNK N   1      22.548  11.809   2.566  0.00  0.00    -0.358 N 
HETATM   43  H   UNK N   1      22.016  12.033   3.362  0.00  0.00     0.162 HD
HETATM   44  O   UNK N   1      22.572  11.569   0.336  0.00  0.00    -0.271 OA
BRANCH  42  45
HETATM   45  C   UNK N   1      23.944  11.480   2.736  0.00  0.00     0.132 C 
BRANCH  45  46
HETATM   46  C   UNK N   1      24.377  11.707   4.173  0.00  0.00     0.122 C 
BRANCH  46  47
HETATM   47  C   UNK N   1      24.361  13.171   4.506  0.00  0.00     0.219 C 
HETATM   48  N   UNK N   1      24.430  13.623   5.786  0.00  0.00    -0.360 N 
HETATM   49  H   UNK N   1      24.395  14.595   5.940  0.00  0.00     0.162 HD
HETATM   50  O   UNK N   1      24.263  13.975   3.594  0.00  0.00    -0.274 OA
BRANCH  48  51
HETATM   51  C   UNK N   1      24.553  12.752   6.932  0.00  0.00     0.133 C 
BRANCH  51  52
HETATM   52  C   UNK N   1      23.211  12.578   7.614  0.00  0.00     0.102 C 
BRANCH  52  53
HETATM   53  S   UNK N   1      23.423  11.568   9.101  0.00  0.00    -0.091 SA
BRANCH  53  54
HETATM   54  C   UNK N   1      21.957  12.260   9.848  0.00  0.00     0.185 C 
HETATM   55  O   UNK N   1      21.063  12.691   9.136  0.00  0.00    -0.286 OA
BRANCH  54  56
HETATM   56  C   UNK N   1      21.857  12.312  11.346  0.00  0.00     0.086 C 
HETATM   57  C   UNK N   1      23.155  11.937  12.039  0.00  0.00     0.013 C 
ENDBRANCH  54  56
ENDBRANCH  53  54
ENDBRANCH  52  53
ENDBRANCH  51  52
ENDBRANCH  48  51
ENDBRANCH  46  47
ENDBRANCH  45  46
ENDBRANCH  42  45
ENDBRANCH  40  41
BRANCH  40  58
HETATM   58  O   UNK N   1      19.874  11.368   0.198  0.00  0.00    -0.385 OA
HETATM   59  H   UNK N   1      18.953  11.543  -0.052  0.00  0.00     0.210 HD
ENDBRANCH  40  58
ENDBRANCH  37  40
ENDBRANCH  36  37
ENDBRANCH  35  36
ENDBRANCH  33  35
BRANCH  33  60
HETATM   60  O   UNK N   1      19.570  16.604   4.535  0.00  0.00    -0.307 OA
HETATM   61  H   UNK N   1      20.243  17.285   4.379  0.00  0.00     0.222 HD
ENDBRANCH  33  60
ENDBRANCH  32  33
ENDBRANCH  30  32
BRANCH  30  62
HETATM   62  O   UNK N   1      21.876  15.334   5.510  0.00  0.00    -0.307 OA
HETATM   63  H   UNK N   1      21.929  14.634   4.840  0.00  0.00     0.222 HD
ENDBRANCH  30  62
ENDBRANCH  29  30
ENDBRANCH  28  29
ENDBRANCH  10  28
ENDBRANCH   5   6
ENDBRANCH   2   5
BRANCH   2  64
HETATM   64  O   UNK N   1      22.992  21.312   2.888  0.00  0.00    -0.307 OA
HETATM   65  H   UNK N   1      22.890  22.098   2.328  0.00  0.00     0.222 HD
ENDBRANCH   2  64
TORSDOF 27
ENDMDL
