MODEL 1
REMARK VINA RESULT:      -6.8      0.000      0.000
REMARK  5 active torsions:
REMARK  status: ('A' for Active; 'I' for Inactive)
REMARK    1  A    between atoms: C_10  and  C_6 
REMARK    2  A    between atoms: C_6  and  O_20 
REMARK    3  A    between atoms: C_8  and  O_21 
REMARK    4  A    between atoms: C_9  and  O_22 
REMARK    5  A    between atoms: C_12  and  N_19 
ROOT
HETATM    1  C   UNK N   1      34.898  16.306  10.743  0.00  0.00     0.182 C 
HETATM    2  C   UNK N   1      36.099  15.781  11.486  0.00  0.00     0.198 C 
HETATM    3  C   UNK N   1      34.367  15.051  10.075  0.00  0.00     0.183 C 
HETATM    4  C   UNK N   1      35.758  14.285  11.642  0.00  0.00     0.262 C 
HETATM    5  O   UNK N   1      34.478  14.059  11.072  0.00  0.00    -0.353 OA
ENDROOT
BRANCH   4   6
HETATM    6  N   UNK N   1      35.837  13.801  13.025  0.00  0.00    -0.297 N 
HETATM    7  C   UNK N   1      36.472  14.404  14.064  0.00  0.00     0.188 A 
HETATM    8  N   UNK N   1      36.259  13.735  15.233  0.00  0.00    -0.347 N 
HETATM    9  C   UNK N   1      35.477  12.695  14.886  0.00  0.00     0.100 A 
ATOM     10  HN  UNK N   1      36.613  13.969  16.161  1.00  0.00     0.167 HD
HETATM   11  C   UNK N   1      34.943  11.680  15.666  0.00  0.00     0.037 A 
HETATM   12  C   UNK N   1      35.223  12.738  13.564  0.00  0.00     0.140 A 
HETATM   13  C   UNK N   1      35.175  11.617  17.135  0.00  0.00     0.070 C 
HETATM   14  N   UNK N   1      34.183  10.730  15.042  0.00  0.00    -0.354 N 
HETATM   15  C   UNK N   1      33.947  10.787  13.690  0.00  0.00     0.182 A 
ATOM     16  HN  UNK N   1      33.785   9.967  15.589  1.00  0.00     0.166 HD
HETATM   17  N   UNK N   1      34.462  11.808  12.938  0.00  0.00    -0.336 N 
ATOM     18  HN  UNK N   1      34.278  11.867  11.936  1.00  0.00     0.168 HD
ENDBRANCH   4   6
BRANCH   2  19
HETATM   19  O   UNK N   1      37.260  15.904  10.713  0.00  0.00    -0.388 OA
HETATM   20  H   UNK N   1      38.117  16.359  10.718  0.00  0.00     0.210 HD
ENDBRANCH   2  19
BRANCH   1  21
HETATM   21  O   UNK N   1      35.205  17.338   9.850  0.00  0.00    -0.390 OA
HETATM   22  H   UNK N   1      34.765  17.380   8.987  0.00  0.00     0.210 HD
ENDBRANCH   1  21
BRANCH   3  23
HETATM   23  C   UNK N   1      32.910  15.209   9.602  0.00  0.00     0.145 C 
HETATM   24  C   UNK N   1      32.536  14.122   8.606  0.00  0.00     0.042 C 
BRANCH  23  25
HETATM   25  O   UNK N   1      32.048  15.124  10.696  0.00  0.00    -0.393 OA
HETATM   26  H   UNK N   1      31.733  15.829  11.282  0.00  0.00     0.210 HD
ENDBRANCH  23  25
ENDBRANCH   3  23
TORSDOF 5
ENDMDL
MODEL 2
REMARK VINA RESULT:      -6.6      7.457     10.209
REMARK  5 active torsions:
REMARK  status: ('A' for Active; 'I' for Inactive)
REMARK    1  A    between atoms: C_10  and  C_6 
REMARK    2  A    between atoms: C_6  and  O_20 
REMARK    3  A    between atoms: C_8  and  O_21 
REMARK    4  A    between atoms: C_9  and  O_22 
REMARK    5  A    between atoms: C_12  and  N_19 
ROOT
HETATM    1  C   UNK N   1      32.438  17.663   8.284  0.00  0.00     0.182 C 
HETATM    2  C   UNK N   1      31.016  17.515   8.760  0.00  0.00     0.198 C 
HETATM    3  C   UNK N   1      32.454  16.774   7.055  0.00  0.00     0.183 C 
HETATM    4  C   UNK N   1      30.284  17.085   7.472  0.00  0.00     0.262 C 
HETATM    5  O   UNK N   1      31.230  17.055   6.413  0.00  0.00    -0.353 OA
ENDROOT
BRANCH   4   6
HETATM    6  N   UNK N   1      29.121  17.918   7.145  0.00  0.00    -0.297 N 
HETATM    7  C   UNK N   1      28.518  18.829   7.955  0.00  0.00     0.188 A 
HETATM    8  N   UNK N   1      27.528  19.499   7.299  0.00  0.00    -0.347 N 
HETATM    9  C   UNK N   1      27.532  18.973   6.060  0.00  0.00     0.100 A 
ATOM     10  HN  UNK N   1      26.922  20.233   7.665  1.00  0.00     0.167 HD
HETATM   11  C   UNK N   1      26.740  19.271   4.961  0.00  0.00     0.037 A 
HETATM   12  C   UNK N   1      28.488  18.028   5.969  0.00  0.00     0.140 A 
HETATM   13  C   UNK N   1      25.695  20.330   5.014  0.00  0.00     0.070 C 
HETATM   14  N   UNK N   1      26.951  18.561   3.812  0.00  0.00    -0.354 N 
HETATM   15  C   UNK N   1      27.925  17.594   3.745  0.00  0.00     0.182 A 
ATOM     16  HN  UNK N   1      26.378  18.753   2.991  1.00  0.00     0.166 HD
HETATM   17  N   UNK N   1      28.714  17.327   4.832  0.00  0.00    -0.336 N 
ATOM     18  HN  UNK N   1      29.450  16.622   4.786  1.00  0.00     0.168 HD
ENDBRANCH   4   6
BRANCH   2  19
HETATM   19  O   UNK N   1      30.907  16.489   9.707  0.00  0.00    -0.388 OA
HETATM   20  H   UNK N   1      30.513  16.312  10.576  0.00  0.00     0.210 HD
ENDBRANCH   2  19
BRANCH   1  21
HETATM   21  O   UNK N   1      33.386  17.311   9.252  0.00  0.00    -0.390 OA
HETATM   22  H   UNK N   1      34.087  16.678   9.036  0.00  0.00     0.210 HD
ENDBRANCH   1  21
BRANCH   3  23
HETATM   23  C   UNK N   1      33.650  17.069   6.132  0.00  0.00     0.145 C 
HETATM   24  C   UNK N   1      33.185  17.544   4.765  0.00  0.00     0.042 C 
BRANCH  23  25
HETATM   25  O   UNK N   1      34.449  18.063   6.699  0.00  0.00    -0.393 OA
HETATM   26  H   UNK N   1      34.183  18.842   7.212  0.00  0.00     0.210 HD
ENDBRANCH  23  25
ENDBRANCH   3  23
TORSDOF 5
ENDMDL
MODEL 3
REMARK VINA RESULT:      -6.4      3.148      6.536
REMARK  5 active torsions:
REMARK  status: ('A' for Active; 'I' for Inactive)
REMARK    1  A    between atoms: C_10  and  C_6 
REMARK    2  A    between atoms: C_6  and  O_20 
REMARK    3  A    between atoms: C_8  and  O_21 
REMARK    4  A    between atoms: C_9  and  O_22 
REMARK    5  A    between atoms: C_12  and  N_19 
ROOT
HETATM    1  C   UNK N   1      36.801  13.484  11.543  0.00  0.00     0.182 C 
HETATM    2  C   UNK N   1      36.551  14.604  10.566  0.00  0.00     0.198 C 
HETATM    3  C   UNK N   1      36.191  14.035  12.818  0.00  0.00     0.183 C 
HETATM    4  C   UNK N   1      35.356  15.336  11.209  0.00  0.00     0.262 C 
HETATM    5  O   UNK N   1      34.989  14.637  12.389  0.00  0.00    -0.353 OA
ENDROOT
BRANCH   4   6
HETATM    6  N   UNK N   1      34.216  15.519  10.304  0.00  0.00    -0.297 N 
HETATM    7  C   UNK N   1      33.085  14.766  10.256  0.00  0.00     0.188 A 
HETATM    8  N   UNK N   1      32.186  15.276   9.366  0.00  0.00    -0.347 N 
HETATM    9  C   UNK N   1      32.796  16.365   8.860  0.00  0.00     0.100 A 
ATOM     10  HN  UNK N   1      31.260  14.914   9.136  1.00  0.00     0.167 HD
HETATM   11  C   UNK N   1      32.353  17.277   7.914  0.00  0.00     0.037 A 
HETATM   12  C   UNK N   1      34.010  16.510   9.424  0.00  0.00     0.140 A 
HETATM   13  C   UNK N   1      31.006  17.167   7.291  0.00  0.00     0.070 C 
HETATM   14  N   UNK N   1      33.196  18.296   7.568  0.00  0.00    -0.354 N 
HETATM   15  C   UNK N   1      34.436  18.419   8.149  0.00  0.00     0.182 A 
ATOM     16  HN  UNK N   1      32.901  18.977   6.869  1.00  0.00     0.166 HD
HETATM   17  N   UNK N   1      34.849  17.523   9.098  0.00  0.00    -0.336 N 
ATOM     18  HN  UNK N   1      35.761  17.616   9.546  1.00  0.00     0.168 HD
ENDBRANCH   4   6
BRANCH   2  19
HETATM   19  O   UNK N   1      37.643  15.478  10.513  0.00  0.00    -0.388 OA
HETATM   20  H   UNK N   1      38.595  15.496  10.699  0.00  0.00     0.210 HD
ENDBRANCH   2  19
BRANCH   1  21
HETATM   21  O   UNK N   1      38.154  13.144  11.662  0.00  0.00    -0.390 OA
HETATM   22  H   UNK N   1      38.431  12.219  11.565  0.00  0.00     0.210 HD
ENDBRANCH   1  21
BRANCH   3  23
HETATM   23  C   UNK N   1      35.924  12.937  13.864  0.00  0.00     0.145 C 
HETATM   24  C   UNK N   1      36.856  13.078  15.058  0.00  0.00     0.042 C 
BRANCH  23  25
HETATM   25  O   UNK N   1      34.607  13.026  14.316  0.00  0.00    -0.393 OA
HETATM   26  H   UNK N   1      34.208  12.648  15.114  0.00  0.00     0.210 HD
ENDBRANCH  23  25
ENDBRANCH   3  23
TORSDOF 5
ENDMDL
MODEL 4
REMARK VINA RESULT:      -6.4      2.805      5.667
REMARK  5 active torsions:
REMARK  status: ('A' for Active; 'I' for Inactive)
REMARK    1  A    between atoms: C_10  and  C_6 
REMARK    2  A    between atoms: C_6  and  O_20 
REMARK    3  A    between atoms: C_8  and  O_21 
REMARK    4  A    between atoms: C_9  and  O_22 
REMARK    5  A    between atoms: C_12  and  N_19 
ROOT
HETATM    1  C   UNK N   1      36.208  11.664  11.388  0.00  0.00     0.182 C 
HETATM    2  C   UNK N   1      36.746  13.059  11.196  0.00  0.00     0.198 C 
HETATM    3  C   UNK N   1      35.407  11.807  12.667  0.00  0.00     0.183 C 
HETATM    4  C   UNK N   1      35.737  13.909  11.995  0.00  0.00     0.262 C 
HETATM    5  O   UNK N   1      34.741  13.042  12.518  0.00  0.00    -0.353 OA
ENDROOT
BRANCH   4   6
HETATM    6  N   UNK N   1      35.153  15.014  11.227  0.00  0.00    -0.297 N 
HETATM    7  C   UNK N   1      35.532  16.319  11.262  0.00  0.00     0.188 A 
HETATM    8  N   UNK N   1      34.846  17.061  10.345  0.00  0.00    -0.347 N 
HETATM    9  C   UNK N   1      34.027  16.176   9.744  0.00  0.00     0.100 A 
ATOM     10  HN  UNK N   1      34.934  18.059  10.157  1.00  0.00     0.167 HD
HETATM   11  C   UNK N   1      33.101  16.364   8.730  0.00  0.00     0.037 A 
HETATM   12  C   UNK N   1      34.214  14.951  10.272  0.00  0.00     0.140 A 
HETATM   13  C   UNK N   1      32.888  17.696   8.101  0.00  0.00     0.070 C 
HETATM   14  N   UNK N   1      32.382  15.278   8.313  0.00  0.00    -0.354 N 
HETATM   15  C   UNK N   1      32.582  14.039   8.874  0.00  0.00     0.182 A 
ATOM     16  HN  UNK N   1      31.688  15.388   7.574  1.00  0.00     0.166 HD
HETATM   17  N   UNK N   1      33.516  13.866   9.859  0.00  0.00    -0.336 N 
ATOM     18  HN  UNK N   1      33.682  12.946  10.269  1.00  0.00     0.168 HD
ENDBRANCH   4   6
BRANCH   2  19
HETATM   19  O   UNK N   1      38.012  13.193  11.777  0.00  0.00    -0.388 OA
HETATM   20  H   UNK N   1      38.643  13.880  12.043  0.00  0.00     0.210 HD
ENDBRANCH   2  19
BRANCH   1  21
HETATM   21  O   UNK N   1      37.209  10.688  11.451  0.00  0.00    -0.390 OA
HETATM   22  H   UNK N   1      37.160   9.985  12.117  0.00  0.00     0.210 HD
ENDBRANCH   1  21
BRANCH   3  23
HETATM   23  C   UNK N   1      34.407  10.653  12.867  0.00  0.00     0.145 C 
HETATM   24  C   UNK N   1      33.671  10.787  14.191  0.00  0.00     0.042 C 
BRANCH  23  25
HETATM   25  O   UNK N   1      33.467  10.661  11.835  0.00  0.00    -0.393 OA
HETATM   26  H   UNK N   1      32.791  10.000  11.619  0.00  0.00     0.210 HD
ENDBRANCH  23  25
ENDBRANCH   3  23
TORSDOF 5
ENDMDL
MODEL 5
REMARK VINA RESULT:      -6.4      1.081      2.190
REMARK  5 active torsions:
REMARK  status: ('A' for Active; 'I' for Inactive)
REMARK    1  A    between atoms: C_10  and  C_6 
REMARK    2  A    between atoms: C_6  and  O_20 
REMARK    3  A    between atoms: C_8  and  O_21 
REMARK    4  A    between atoms: C_9  and  O_22 
REMARK    5  A    between atoms: C_12  and  N_19 
ROOT
HETATM    1  C   UNK N   1      34.873  16.481  10.302  0.00  0.00     0.182 C 
HETATM    2  C   UNK N   1      35.881  15.877  11.246  0.00  0.00     0.198 C 
HETATM    3  C   UNK N   1      34.619  15.338   9.338  0.00  0.00     0.183 C 
HETATM    4  C   UNK N   1      35.618  14.366  11.080  0.00  0.00     0.262 C 
HETATM    5  O   UNK N   1      34.543  14.200  10.168  0.00  0.00    -0.353 OA
ENDROOT
BRANCH   4   6
HETATM    6  N   UNK N   1      35.378  13.664  12.345  0.00  0.00    -0.297 N 
HETATM    7  C   UNK N   1      34.659  12.523  12.520  0.00  0.00     0.188 A 
HETATM    8  N   UNK N   1      34.723  12.087  13.811  0.00  0.00    -0.347 N 
HETATM    9  C   UNK N   1      35.499  12.995  14.432  0.00  0.00     0.100 A 
ATOM     10  HN  UNK N   1      34.283  11.260  14.213  1.00  0.00     0.167 HD
HETATM   11  C   UNK N   1      35.911  13.062  15.755  0.00  0.00     0.037 A 
HETATM   12  C   UNK N   1      35.892  13.938  13.553  0.00  0.00     0.140 A 
HETATM   13  C   UNK N   1      35.523  12.023  16.748  0.00  0.00     0.070 C 
HETATM   14  N   UNK N   1      36.697  14.118  16.126  0.00  0.00    -0.354 N 
HETATM   15  C   UNK N   1      37.076  15.073  15.214  0.00  0.00     0.182 A 
ATOM     16  HN  UNK N   1      37.007  14.197  17.094  1.00  0.00     0.166 HD
HETATM   17  N   UNK N   1      36.680  14.981  13.907  0.00  0.00    -0.336 N 
ATOM     18  HN  UNK N   1      36.970  15.678  13.220  1.00  0.00     0.168 HD
ENDBRANCH   4   6
BRANCH   2  19
HETATM   19  O   UNK N   1      37.188  16.158  10.831  0.00  0.00    -0.388 OA
HETATM   20  H   UNK N   1      37.962  16.678  11.100  0.00  0.00     0.210 HD
ENDBRANCH   2  19
BRANCH   1  21
HETATM   21  O   UNK N   1      35.322  17.654   9.687  0.00  0.00    -0.390 OA
HETATM   22  H   UNK N   1      35.764  18.339  10.213  0.00  0.00     0.210 HD
ENDBRANCH   1  21
BRANCH   3  23
HETATM   23  C   UNK N   1      33.322  15.528   8.529  0.00  0.00     0.145 C 
HETATM   24  C   UNK N   1      32.590  14.207   8.347  0.00  0.00     0.042 C 
BRANCH  23  25
HETATM   25  O   UNK N   1      32.477  16.415   9.197  0.00  0.00    -0.393 OA
HETATM   26  H   UNK N   1      31.508  16.446   9.206  0.00  0.00     0.210 HD
ENDBRANCH  23  25
ENDBRANCH   3  23
TORSDOF 5
ENDMDL
MODEL 6
REMARK VINA RESULT:      -6.3      8.682     11.854
REMARK  5 active torsions:
REMARK  status: ('A' for Active; 'I' for Inactive)
REMARK    1  A    between atoms: C_10  and  C_6 
REMARK    2  A    between atoms: C_6  and  O_20 
REMARK    3  A    between atoms: C_8  and  O_21 
REMARK    4  A    between atoms: C_9  and  O_22 
REMARK    5  A    between atoms: C_12  and  N_19 
ROOT
HETATM    1  C   UNK N   1      29.696  18.499   8.824  0.00  0.00     0.182 C 
HETATM    2  C   UNK N   1      28.232  18.671   8.508  0.00  0.00     0.198 C 
HETATM    3  C   UNK N   1      30.063  17.296   7.975  0.00  0.00     0.183 C 
HETATM    4  C   UNK N   1      28.112  17.978   7.135  0.00  0.00     0.262 C 
HETATM    5  O   UNK N   1      29.402  17.526   6.751  0.00  0.00    -0.353 OA
ENDROOT
BRANCH   4   6
HETATM    6  N   UNK N   1      27.494  18.816   6.101  0.00  0.00    -0.297 N 
HETATM    7  C   UNK N   1      28.001  19.959   5.568  0.00  0.00     0.188 A 
HETATM    8  N   UNK N   1      27.215  20.427   4.556  0.00  0.00    -0.347 N 
HETATM    9  C   UNK N   1      26.203  19.543   4.482  0.00  0.00     0.100 A 
ATOM     10  HN  UNK N   1      27.363  21.260   3.985  1.00  0.00     0.167 HD
HETATM   11  C   UNK N   1      25.106  19.511   3.634  0.00  0.00     0.037 A 
HETATM   12  C   UNK N   1      26.372  18.578   5.407  0.00  0.00     0.140 A 
HETATM   13  C   UNK N   1      24.901  20.542   2.580  0.00  0.00     0.070 C 
HETATM   14  N   UNK N   1      24.209  18.490   3.789  0.00  0.00    -0.354 N 
HETATM   15  C   UNK N   1      24.397  17.522   4.747  0.00  0.00     0.182 A 
ATOM     16  HN  UNK N   1      23.389  18.446   3.185  1.00  0.00     0.166 HD
HETATM   17  N   UNK N   1      25.496  17.556   5.561  0.00  0.00    -0.336 N 
ATOM     18  HN  UNK N   1      25.651  16.832   6.264  1.00  0.00     0.168 HD
ENDBRANCH   4   6
BRANCH   2  19
HETATM   19  O   UNK N   1      27.435  17.986   9.433  0.00  0.00    -0.388 OA
HETATM   20  H   UNK N   1      26.582  17.528   9.489  0.00  0.00     0.210 HD
ENDBRANCH   2  19
BRANCH   1  21
HETATM   21  O   UNK N   1      29.952  18.331  10.189  0.00  0.00    -0.390 OA
HETATM   22  H   UNK N   1      30.097  19.106  10.754  0.00  0.00     0.210 HD
ENDBRANCH   1  21
BRANCH   3  23
HETATM   23  C   UNK N   1      31.583  17.162   7.774  0.00  0.00     0.145 C 
HETATM   24  C   UNK N   1      31.940  17.125   6.296  0.00  0.00     0.042 C 
BRANCH  23  25
HETATM   25  O   UNK N   1      32.234  18.248   8.361  0.00  0.00    -0.393 OA
HETATM   26  H   UNK N   1      31.856  19.001   8.840  0.00  0.00     0.210 HD
ENDBRANCH  23  25
ENDBRANCH   3  23
TORSDOF 5
ENDMDL
MODEL 7
REMARK VINA RESULT:      -6.2      5.444      7.459
REMARK  5 active torsions:
REMARK  status: ('A' for Active; 'I' for Inactive)
REMARK    1  A    between atoms: C_10  and  C_6 
REMARK    2  A    between atoms: C_6  and  O_20 
REMARK    3  A    between atoms: C_8  and  O_21 
REMARK    4  A    between atoms: C_9  and  O_22 
REMARK    5  A    between atoms: C_12  and  N_19 
ROOT
HETATM    1  C   UNK N   1      28.378  17.547   8.627  0.00  0.00     0.182 C 
HETATM    2  C   UNK N   1      29.724  17.386   9.286  0.00  0.00     0.198 C 
HETATM    3  C   UNK N   1      28.733  18.311   7.366  0.00  0.00     0.183 C 
HETATM    4  C   UNK N   1      30.689  17.522   8.091  0.00  0.00     0.262 C 
HETATM    5  O   UNK N   1      29.917  17.693   6.912  0.00  0.00    -0.353 OA
ENDROOT
BRANCH   4   6
HETATM    6  N   UNK N   1      31.639  16.411   7.967  0.00  0.00    -0.297 N 
HETATM    7  C   UNK N   1      31.510  15.313   7.175  0.00  0.00     0.188 A 
HETATM    8  N   UNK N   1      32.625  14.529   7.226  0.00  0.00    -0.347 N 
HETATM    9  C   UNK N   1      33.447  15.170   8.079  0.00  0.00     0.100 A 
ATOM     10  HN  UNK N   1      32.797  13.654   6.730  1.00  0.00     0.167 HD
HETATM   11  C   UNK N   1      34.721  14.837   8.511  0.00  0.00     0.037 A 
HETATM   12  C   UNK N   1      32.855  16.298   8.520  0.00  0.00     0.140 A 
HETATM   13  C   UNK N   1      35.419  13.616   8.023  0.00  0.00     0.070 C 
HETATM   14  N   UNK N   1      35.330  15.673   9.405  0.00  0.00    -0.354 N 
HETATM   15  C   UNK N   1      34.704  16.812   9.850  0.00  0.00     0.182 A 
ATOM     16  HN  UNK N   1      36.265  15.448   9.747  1.00  0.00     0.166 HD
HETATM   17  N   UNK N   1      33.455  17.139   9.396  0.00  0.00    -0.336 N 
ATOM     18  HN  UNK N   1      32.989  17.992   9.709  1.00  0.00     0.168 HD
ENDBRANCH   4   6
BRANCH   2  19
HETATM   19  O   UNK N   1      29.969  18.429  10.187  0.00  0.00    -0.388 OA
HETATM   20  H   UNK N   1      29.989  18.602  11.142  0.00  0.00     0.210 HD
ENDBRANCH   2  19
BRANCH   1  21
HETATM   21  O   UNK N   1      27.438  18.192   9.437  0.00  0.00    -0.390 OA
HETATM   22  H   UNK N   1      27.427  19.161   9.491  0.00  0.00     0.210 HD
ENDBRANCH   1  21
BRANCH   3  23
HETATM   23  C   UNK N   1      27.621  18.239   6.303  0.00  0.00     0.145 C 
HETATM   24  C   UNK N   1      28.201  18.004   4.917  0.00  0.00     0.042 C 
BRANCH  23  25
HETATM   25  O   UNK N   1      26.750  17.191   6.602  0.00  0.00    -0.393 OA
HETATM   26  H   UNK N   1      26.274  16.600   5.998  0.00  0.00     0.210 HD
ENDBRANCH  23  25
ENDBRANCH   3  23
TORSDOF 5
ENDMDL
MODEL 8
REMARK VINA RESULT:      -6.2      2.096      3.343
REMARK  5 active torsions:
REMARK  status: ('A' for Active; 'I' for Inactive)
REMARK    1  A    between atoms: C_10  and  C_6 
REMARK    2  A    between atoms: C_6  and  O_20 
REMARK    3  A    between atoms: C_8  and  O_21 
REMARK    4  A    between atoms: C_9  and  O_22 
REMARK    5  A    between atoms: C_12  and  N_19 
ROOT
HETATM    1  C   UNK N   1      34.165  17.216   8.740  0.00  0.00     0.182 C 
HETATM    2  C   UNK N   1      34.858  16.738   9.990  0.00  0.00     0.198 C 
HETATM    3  C   UNK N   1      34.896  16.445   7.658  0.00  0.00     0.183 C 
HETATM    4  C   UNK N   1      35.433  15.378   9.542  0.00  0.00     0.262 C 
HETATM    5  O   UNK N   1      35.039  15.150   8.198  0.00  0.00    -0.353 OA
ENDROOT
BRANCH   4   6
HETATM    6  N   UNK N   1      35.065  14.261  10.420  0.00  0.00    -0.297 N 
HETATM    7  C   UNK N   1      34.365  13.149  10.071  0.00  0.00     0.188 A 
HETATM    8  N   UNK N   1      34.288  12.265  11.107  0.00  0.00    -0.347 N 
HETATM    9  C   UNK N   1      34.957  12.866  12.110  0.00  0.00     0.100 A 
ATOM     10  HN  UNK N   1      33.829  11.354  11.119  1.00  0.00     0.167 HD
HETATM   11  C   UNK N   1      35.204  12.431  13.403  0.00  0.00     0.037 A 
HETATM   12  C   UNK N   1      35.422  14.060  11.695  0.00  0.00     0.140 A 
HETATM   13  C   UNK N   1      34.733  11.105  13.888  0.00  0.00     0.070 C 
HETATM   14  N   UNK N   1      35.908  13.262  14.231  0.00  0.00    -0.354 N 
HETATM   15  C   UNK N   1      36.364  14.482  13.790  0.00  0.00     0.182 A 
ATOM     16  HN  UNK N   1      36.097  12.973  15.190  1.00  0.00     0.166 HD
HETATM   17  N   UNK N   1      36.130  14.886  12.504  0.00  0.00    -0.336 N 
ATOM     18  HN  UNK N   1      36.479  15.783  12.163  1.00  0.00     0.168 HD
ENDBRANCH   4   6
BRANCH   2  19
HETATM   19  O   UNK N   1      35.917  17.587  10.333  0.00  0.00    -0.388 OA
HETATM   20  H   UNK N   1      36.211  18.502  10.207  0.00  0.00     0.210 HD
ENDBRANCH   2  19
BRANCH   1  21
HETATM   21  O   UNK N   1      34.212  18.606   8.578  0.00  0.00    -0.390 OA
HETATM   22  H   UNK N   1      34.600  19.162   9.271  0.00  0.00     0.210 HD
ENDBRANCH   1  21
BRANCH   3  23
HETATM   23  C   UNK N   1      34.118  16.415   6.330  0.00  0.00     0.145 C 
HETATM   24  C   UNK N   1      32.687  15.946   6.542  0.00  0.00     0.042 C 
BRANCH  23  25
HETATM   25  O   UNK N   1      34.087  17.694   5.773  0.00  0.00    -0.393 OA
HETATM   26  H   UNK N   1      33.814  17.967   4.883  0.00  0.00     0.210 HD
ENDBRANCH  23  25
ENDBRANCH   3  23
TORSDOF 5
ENDMDL
MODEL 9
REMARK VINA RESULT:      -6.2     14.418     15.285
REMARK  5 active torsions:
REMARK  status: ('A' for Active; 'I' for Inactive)
REMARK    1  A    between atoms: C_10  and  C_6 
REMARK    2  A    between atoms: C_6  and  O_20 
REMARK    3  A    between atoms: C_8  and  O_21 
REMARK    4  A    between atoms: C_9  and  O_22 
REMARK    5  A    between atoms: C_12  and  N_19 
ROOT
HETATM    1  C   UNK N   1      43.403  22.578   3.709  0.00  0.00     0.182 C 
HETATM    2  C   UNK N   1      44.677  21.811   3.957  0.00  0.00     0.198 C 
HETATM    3  C   UNK N   1      43.276  22.500   2.199  0.00  0.00     0.183 C 
HETATM    4  C   UNK N   1      44.770  20.920   2.701  0.00  0.00     0.262 C 
HETATM    5  O   UNK N   1      43.628  21.168   1.894  0.00  0.00    -0.353 OA
ENDROOT
BRANCH   4   6
HETATM    6  N   UNK N   1      44.932  19.493   2.997  0.00  0.00    -0.297 N 
HETATM    7  C   UNK N   1      43.989  18.522   2.868  0.00  0.00     0.188 A 
HETATM    8  N   UNK N   1      44.506  17.288   3.133  0.00  0.00    -0.347 N 
HETATM    9  C   UNK N   1      45.797  17.524   3.435  0.00  0.00     0.100 A 
ATOM     10  HN  UNK N   1      44.024  16.389   3.107  1.00  0.00     0.167 HD
HETATM   11  C   UNK N   1      46.808  16.641   3.784  0.00  0.00     0.037 A 
HETATM   12  C   UNK N   1      46.050  18.844   3.351  0.00  0.00     0.140 A 
HETATM   13  C   UNK N   1      46.574  15.172   3.856  0.00  0.00     0.070 C 
HETATM   14  N   UNK N   1      48.043  17.161   4.057  0.00  0.00    -0.354 N 
HETATM   15  C   UNK N   1      48.275  18.513   3.976  0.00  0.00     0.182 A 
ATOM     16  HN  UNK N   1      48.803  16.536   4.325  1.00  0.00     0.166 HD
HETATM   17  N   UNK N   1      47.273  19.369   3.609  0.00  0.00    -0.336 N 
ATOM     18  HN  UNK N   1      47.441  20.373   3.530  1.00  0.00     0.168 HD
ENDBRANCH   4   6
BRANCH   2  19
HETATM   19  O   UNK N   1      45.782  22.669   3.986  0.00  0.00    -0.388 OA
HETATM   20  H   UNK N   1      45.993  23.614   4.045  0.00  0.00     0.210 HD
ENDBRANCH   2  19
BRANCH   1  21
HETATM   21  O   UNK N   1      43.437  23.884   4.209  0.00  0.00    -0.390 OA
HETATM   22  H   UNK N   1      43.136  24.065   5.114  0.00  0.00     0.210 HD
ENDBRANCH   1  21
BRANCH   3  23
HETATM   23  C   UNK N   1      41.853  22.828   1.712  0.00  0.00     0.145 C 
HETATM   24  C   UNK N   1      40.860  21.768   2.163  0.00  0.00     0.042 C 
BRANCH  23  25
HETATM   25  O   UNK N   1      41.451  24.061   2.228  0.00  0.00    -0.393 OA
HETATM   26  H   UNK N   1      40.706  24.264   2.814  0.00  0.00     0.210 HD
ENDBRANCH  23  25
ENDBRANCH   3  23
TORSDOF 5
ENDMDL
