MODEL 1
REMARK VINA RESULT:      -6.5      0.000      0.000
REMARK  22 active torsions:
REMARK  status: ('A' for Active; 'I' for Inactive)
REMARK    1  A    between atoms: C_3  and  C_2 
REMARK    2  A    between atoms: C_4  and  C_3 
REMARK    3  A    between atoms: C_5  and  C_4 
REMARK    4  A    between atoms: C_6  and  C_5 
REMARK    5  A    between atoms: C_7  and  C_6 
REMARK    6  A    between atoms: C_8  and  C_7 
REMARK    7  A    between atoms: C_9  and  C_8 
REMARK    8  A    between atoms: C_10  and  C_9 
REMARK    9  A    between atoms: C_11  and  C_10 
REMARK   10  A    between atoms: O_31  and  C_11 
REMARK   11  A    between atoms: C_14  and  C_12 
REMARK   12  A    between atoms: O_24  and  C_12 
REMARK   13  A    between atoms: C_15  and  C_13 
REMARK   14  A    between atoms: O_25  and  C_13 
REMARK   15  A    between atoms: C_16  and  O_26 
REMARK   16  A    between atoms: C_17  and  O_27 
REMARK   17  A    between atoms: C_18  and  O_28 
REMARK   18  A    between atoms: C_19  and  O_29 
REMARK   19  A    between atoms: C_20  and  O_30 
REMARK   20  A    between atoms: C_21  and  O_34 
REMARK   21  A    between atoms: C_22  and  O_31 
REMARK   22  A    between atoms: C_23  and  O_34 
ROOT
HETATM    1  C   UNK N   1      35.330  12.257  10.042  0.00  0.00     0.180 C 
HETATM    2  C   UNK N   1      36.962  14.033  10.659  0.00  0.00     0.183 C 
HETATM    3  C   UNK N   1      36.423  13.950  12.091  0.00  0.00     0.204 C 
HETATM    4  C   UNK N   1      35.867  13.648   9.638  0.00  0.00     0.187 C 
HETATM    5  C   UNK N   1      35.829  12.550  12.324  0.00  0.00     0.291 C 
HETATM    6  O   UNK N   1      34.806  12.285  11.365  0.00  0.00    -0.348 OA
ENDROOT
BRANCH   4   7
HETATM    7  O   UNK N   1      34.771  14.555   9.652  0.00  0.00    -0.348 OA
BRANCH   7   8
HETATM    8  C   UNK N   1      34.822  15.638   8.726  0.00  0.00     0.292 C 
HETATM    9  C   UNK N   1      34.647  17.097   9.295  0.00  0.00     0.204 C 
HETATM   10  C   UNK N   1      34.739  18.031   8.086  0.00  0.00     0.183 C 
HETATM   11  C   UNK N   1      33.610  17.706   7.079  0.00  0.00     0.180 C 
HETATM   12  C   UNK N   1      33.057  16.267   7.286  0.00  0.00     0.179 C 
HETATM   13  O   UNK N   1      34.090  15.336   7.537  0.00  0.00    -0.348 OA
BRANCH   9  14
HETATM   14  O   UNK N   1      35.656  17.380  10.220  0.00  0.00    -0.388 OA
HETATM   15  H   UNK N   1      35.703  16.909  11.067  0.00  0.00     0.210 HD
ENDBRANCH   9  14
BRANCH  10  16
HETATM   16  O   UNK N   1      34.683  19.376   8.464  0.00  0.00    -0.390 OA
HETATM   17  H   UNK N   1      34.721  20.161   7.896  0.00  0.00     0.210 HD
ENDBRANCH  10  16
BRANCH  11  18
HETATM   18  O   UNK N   1      34.099  17.889   5.782  0.00  0.00    -0.390 OA
HETATM   19  H   UNK N   1      33.974  17.504   4.901  0.00  0.00     0.210 HD
ENDBRANCH  11  18
BRANCH  12  20
HETATM   20  C   UNK N   1      32.229  15.786   6.098  0.00  0.00     0.198 C 
BRANCH  20  21
HETATM   21  O   UNK N   1      31.344  16.780   5.676  0.00  0.00    -0.398 OA
HETATM   22  H   UNK N   1      31.283  17.568   5.115  0.00  0.00     0.209 HD
ENDBRANCH  20  21
ENDBRANCH  12  20
ENDBRANCH   7   8
ENDBRANCH   4   7
BRANCH   1  23
HETATM   23  C   UNK N   1      34.220  11.823   9.090  0.00  0.00     0.198 C 
BRANCH  23  24
HETATM   24  O   UNK N   1      32.993  12.345   9.505  0.00  0.00    -0.398 OA
HETATM   25  H   UNK N   1      32.784  13.279   9.348  0.00  0.00     0.209 HD
ENDBRANCH  23  24
ENDBRANCH   1  23
BRANCH   2  26
HETATM   26  O   UNK N   1      37.475  15.306  10.411  0.00  0.00    -0.390 OA
HETATM   27  H   UNK N   1      36.930  15.975   9.967  0.00  0.00     0.210 HD
ENDBRANCH   2  26
BRANCH   3  28
HETATM   28  O   UNK N   1      35.433  14.918  12.292  0.00  0.00    -0.388 OA
HETATM   29  H   UNK N   1      34.635  15.378  12.595  0.00  0.00     0.210 HD
ENDBRANCH   3  28
BRANCH   5  30
HETATM   30  O   UNK N   1      36.854  11.571  12.297  0.00  0.00    -0.359 OA
BRANCH  30  31
HETATM   31  C   UNK N   1      36.747  10.796  13.462  0.00  0.00     0.171 C 
BRANCH  31  32
HETATM   32  C   UNK N   1      37.415  11.496  14.626  0.00  0.00     0.026 C 
BRANCH  32  33
HETATM   33  C   UNK N   1      36.444  11.572  15.788  0.00  0.00     0.002 C 
BRANCH  33  34
HETATM   34  C   UNK N   1      35.881  12.978  15.902  0.00  0.00     0.000 C 
BRANCH  34  35
HETATM   35  C   UNK N   1      34.821  13.042  16.993  0.00  0.00     0.000 C 
BRANCH  35  36
HETATM   36  C   UNK N   1      35.356  13.696  18.263  0.00  0.00     0.000 C 
BRANCH  36  37
HETATM   37  C   UNK N   1      35.055  12.872  19.511  0.00  0.00     0.000 C 
BRANCH  37  38
HETATM   38  C   UNK N   1      35.540  11.439  19.367  0.00  0.00     0.000 C 
BRANCH  38  39
HETATM   39  C   UNK N   1      34.780  10.508  20.300  0.00  0.00    -0.000 C 
BRANCH  39  40
HETATM   40  C   UNK N   1      34.154   9.370  19.514  0.00  0.00    -0.005 C 
HETATM   41  C   UNK N   1      34.535   9.458  18.048  0.00  0.00     0.005 C 
ENDBRANCH  39  40
ENDBRANCH  38  39
ENDBRANCH  37  38
ENDBRANCH  36  37
ENDBRANCH  35  36
ENDBRANCH  34  35
ENDBRANCH  33  34
ENDBRANCH  32  33
ENDBRANCH  31  32
ENDBRANCH  30  31
ENDBRANCH   5  30
TORSDOF 22
ENDMDL
MODEL 2
REMARK VINA RESULT:      -6.5      1.060      2.317
REMARK  22 active torsions:
REMARK  status: ('A' for Active; 'I' for Inactive)
REMARK    1  A    between atoms: C_3  and  C_2 
REMARK    2  A    between atoms: C_4  and  C_3 
REMARK    3  A    between atoms: C_5  and  C_4 
REMARK    4  A    between atoms: C_6  and  C_5 
REMARK    5  A    between atoms: C_7  and  C_6 
REMARK    6  A    between atoms: C_8  and  C_7 
REMARK    7  A    between atoms: C_9  and  C_8 
REMARK    8  A    between atoms: C_10  and  C_9 
REMARK    9  A    between atoms: C_11  and  C_10 
REMARK   10  A    between atoms: O_31  and  C_11 
REMARK   11  A    between atoms: C_14  and  C_12 
REMARK   12  A    between atoms: O_24  and  C_12 
REMARK   13  A    between atoms: C_15  and  C_13 
REMARK   14  A    between atoms: O_25  and  C_13 
REMARK   15  A    between atoms: C_16  and  O_26 
REMARK   16  A    between atoms: C_17  and  O_27 
REMARK   17  A    between atoms: C_18  and  O_28 
REMARK   18  A    between atoms: C_19  and  O_29 
REMARK   19  A    between atoms: C_20  and  O_30 
REMARK   20  A    between atoms: C_21  and  O_34 
REMARK   21  A    between atoms: C_22  and  O_31 
REMARK   22  A    between atoms: C_23  and  O_34 
ROOT
HETATM    1  C   UNK N   1      35.086  12.205  10.015  0.00  0.00     0.180 C 
HETATM    2  C   UNK N   1      36.713  13.950  10.732  0.00  0.00     0.183 C 
HETATM    3  C   UNK N   1      36.104  13.858  12.135  0.00  0.00     0.204 C 
HETATM    4  C   UNK N   1      35.662  13.593   9.655  0.00  0.00     0.187 C 
HETATM    5  C   UNK N   1      35.478  12.464  12.322  0.00  0.00     0.291 C 
HETATM    6  O   UNK N   1      34.500  12.226  11.311  0.00  0.00    -0.348 OA
ENDROOT
BRANCH   4   7
HETATM    7  O   UNK N   1      34.581  14.516   9.628  0.00  0.00    -0.348 OA
BRANCH   7   8
HETATM    8  C   UNK N   1      34.685  15.600   8.707  0.00  0.00     0.292 C 
HETATM    9  C   UNK N   1      34.556  17.063   9.280  0.00  0.00     0.204 C 
HETATM   10  C   UNK N   1      34.700  17.997   8.077  0.00  0.00     0.183 C 
HETATM   11  C   UNK N   1      33.574  17.718   7.053  0.00  0.00     0.180 C 
HETATM   12  C   UNK N   1      32.965  16.299   7.245  0.00  0.00     0.179 C 
HETATM   13  O   UNK N   1      33.959  15.330   7.506  0.00  0.00    -0.348 OA
BRANCH   9  14
HETATM   14  O   UNK N   1      35.561  17.304  10.221  0.00  0.00    -0.388 OA
HETATM   15  H   UNK N   1      36.496  17.293   9.966  0.00  0.00     0.210 HD
ENDBRANCH   9  14
BRANCH  10  16
HETATM   16  O   UNK N   1      34.688  19.342   8.460  0.00  0.00    -0.390 OA
HETATM   17  H   UNK N   1      33.958  19.977   8.399  0.00  0.00     0.210 HD
ENDBRANCH  10  16
BRANCH  11  18
HETATM   18  O   UNK N   1      34.088  17.888   5.763  0.00  0.00    -0.390 OA
HETATM   19  H   UNK N   1      34.906  18.198   5.346  0.00  0.00     0.210 HD
ENDBRANCH  11  18
BRANCH  12  20
HETATM   20  C   UNK N   1      32.137  15.855   6.043  0.00  0.00     0.198 C 
BRANCH  20  21
HETATM   21  O   UNK N   1      31.347  16.904   5.569  0.00  0.00    -0.398 OA
HETATM   22  H   UNK N   1      31.359  17.858   5.396  0.00  0.00     0.209 HD
ENDBRANCH  20  21
ENDBRANCH  12  20
ENDBRANCH   7   8
ENDBRANCH   4   7
BRANCH   1  23
HETATM   23  C   UNK N   1      34.017  11.800   9.005  0.00  0.00     0.198 C 
BRANCH  23  24
HETATM   24  O   UNK N   1      32.778  12.327   9.372  0.00  0.00    -0.398 OA
HETATM   25  H   UNK N   1      32.298  12.910   8.764  0.00  0.00     0.209 HD
ENDBRANCH  23  24
ENDBRANCH   1  23
BRANCH   2  26
HETATM   26  O   UNK N   1      37.255  15.217  10.525  0.00  0.00    -0.390 OA
HETATM   27  H   UNK N   1      38.214  15.353  10.572  0.00  0.00     0.210 HD
ENDBRANCH   2  26
BRANCH   3  28
HETATM   28  O   UNK N   1      35.120  14.838  12.301  0.00  0.00    -0.388 OA
HETATM   29  H   UNK N   1      34.281  15.287  12.493  0.00  0.00     0.210 HD
ENDBRANCH   3  28
BRANCH   5  30
HETATM   30  O   UNK N   1      36.489  11.470  12.332  0.00  0.00    -0.359 OA
BRANCH  30  31
HETATM   31  C   UNK N   1      36.218  10.584  13.386  0.00  0.00     0.171 C 
BRANCH  31  32
HETATM   32  C   UNK N   1      37.495  10.230  14.119  0.00  0.00     0.026 C 
BRANCH  32  33
HETATM   33  C   UNK N   1      37.161   9.853  15.550  0.00  0.00     0.002 C 
BRANCH  33  34
HETATM   34  C   UNK N   1      35.719   9.386  15.641  0.00  0.00     0.000 C 
BRANCH  34  35
HETATM   35  C   UNK N   1      34.965  10.186  16.694  0.00  0.00     0.000 C 
BRANCH  35  36
HETATM   36  C   UNK N   1      35.840  11.270  17.315  0.00  0.00     0.000 C 
BRANCH  36  37
HETATM   37  C   UNK N   1      35.031  12.485  17.759  0.00  0.00     0.000 C 
BRANCH  37  38
HETATM   38  C   UNK N   1      35.576  13.771  17.157  0.00  0.00     0.000 C 
BRANCH  38  39
HETATM   39  C   UNK N   1      36.345  13.491  15.875  0.00  0.00    -0.000 C 
BRANCH  39  40
HETATM   40  C   UNK N   1      37.055  14.746  15.401  0.00  0.00    -0.005 C 
HETATM   41  C   UNK N   1      37.345  15.671  16.569  0.00  0.00     0.005 C 
ENDBRANCH  39  40
ENDBRANCH  38  39
ENDBRANCH  37  38
ENDBRANCH  36  37
ENDBRANCH  35  36
ENDBRANCH  34  35
ENDBRANCH  33  34
ENDBRANCH  32  33
ENDBRANCH  31  32
ENDBRANCH  30  31
ENDBRANCH   5  30
TORSDOF 22
ENDMDL
MODEL 3
REMARK VINA RESULT:      -6.3      1.822      3.042
REMARK  22 active torsions:
REMARK  status: ('A' for Active; 'I' for Inactive)
REMARK    1  A    between atoms: C_3  and  C_2 
REMARK    2  A    between atoms: C_4  and  C_3 
REMARK    3  A    between atoms: C_5  and  C_4 
REMARK    4  A    between atoms: C_6  and  C_5 
REMARK    5  A    between atoms: C_7  and  C_6 
REMARK    6  A    between atoms: C_8  and  C_7 
REMARK    7  A    between atoms: C_9  and  C_8 
REMARK    8  A    between atoms: C_10  and  C_9 
REMARK    9  A    between atoms: C_11  and  C_10 
REMARK   10  A    between atoms: O_31  and  C_11 
REMARK   11  A    between atoms: C_14  and  C_12 
REMARK   12  A    between atoms: O_24  and  C_12 
REMARK   13  A    between atoms: C_15  and  C_13 
REMARK   14  A    between atoms: O_25  and  C_13 
REMARK   15  A    between atoms: C_16  and  O_26 
REMARK   16  A    between atoms: C_17  and  O_27 
REMARK   17  A    between atoms: C_18  and  O_28 
REMARK   18  A    between atoms: C_19  and  O_29 
REMARK   19  A    between atoms: C_20  and  O_30 
REMARK   20  A    between atoms: C_21  and  O_34 
REMARK   21  A    between atoms: C_22  and  O_31 
REMARK   22  A    between atoms: C_23  and  O_34 
ROOT
HETATM    1  C   UNK N   1      36.291  13.734   9.700  0.00  0.00     0.180 C 
HETATM    2  C   UNK N   1      35.390  15.882  10.582  0.00  0.00     0.183 C 
HETATM    3  C   UNK N   1      34.610  15.062  11.616  0.00  0.00     0.204 C 
HETATM    4  C   UNK N   1      35.615  15.062   9.291  0.00  0.00     0.187 C 
HETATM    5  C   UNK N   1      35.337  13.727  11.852  0.00  0.00     0.291 C 
HETATM    6  O   UNK N   1      35.476  13.019  10.621  0.00  0.00    -0.348 OA
ENDROOT
BRANCH   4   7
HETATM    7  O   UNK N   1      34.395  14.742   8.634  0.00  0.00    -0.348 OA
BRANCH   7   8
HETATM    8  C   UNK N   1      33.855  15.734   7.763  0.00  0.00     0.292 C 
HETATM    9  C   UNK N   1      32.318  16.061   7.890  0.00  0.00     0.204 C 
HETATM   10  C   UNK N   1      32.033  17.139   6.842  0.00  0.00     0.183 C 
HETATM   11  C   UNK N   1      32.355  16.600   5.427  0.00  0.00     0.180 C 
HETATM   12  C   UNK N   1      33.329  15.388   5.486  0.00  0.00     0.179 C 
HETATM   13  O   UNK N   1      34.357  15.583   6.434  0.00  0.00    -0.348 OA
BRANCH   9  14
HETATM   14  O   UNK N   1      32.028  16.528   9.175  0.00  0.00    -0.388 OA
HETATM   15  H   UNK N   1      32.105  15.946   9.946  0.00  0.00     0.210 HD
ENDBRANCH   9  14
BRANCH  10  16
HETATM   16  O   UNK N   1      30.710  17.587   6.904  0.00  0.00    -0.390 OA
HETATM   17  H   UNK N   1      29.945  17.270   6.399  0.00  0.00     0.210 HD
ENDBRANCH  10  16
BRANCH  11  18
HETATM   18  O   UNK N   1      32.876  17.644   4.656  0.00  0.00    -0.390 OA
HETATM   19  H   UNK N   1      33.703  18.145   4.581  0.00  0.00     0.210 HD
ENDBRANCH  11  18
BRANCH  12  20
HETATM   20  C   UNK N   1      33.953  15.079   4.128  0.00  0.00     0.198 C 
BRANCH  20  21
HETATM   21  O   UNK N   1      33.042  15.318   3.097  0.00  0.00    -0.398 OA
HETATM   22  H   UNK N   1      32.401  14.876   2.519  0.00  0.00     0.209 HD
ENDBRANCH  20  21
ENDBRANCH  12  20
ENDBRANCH   7   8
ENDBRANCH   4   7
BRANCH   1  23
HETATM   23  C   UNK N   1      36.519  12.858   8.472  0.00  0.00     0.198 C 
BRANCH  23  24
HETATM   24  O   UNK N   1      35.366  12.128   8.176  0.00  0.00    -0.398 OA
HETATM   25  H   UNK N   1      35.289  11.662   7.329  0.00  0.00     0.209 HD
ENDBRANCH  23  24
ENDBRANCH   1  23
BRANCH   2  26
HETATM   26  O   UNK N   1      34.731  17.083  10.324  0.00  0.00    -0.390 OA
HETATM   27  H   UNK N   1      33.833  17.079   9.955  0.00  0.00     0.210 HD
ENDBRANCH   2  26
BRANCH   3  28
HETATM   28  O   UNK N   1      33.312  14.813  11.156  0.00  0.00    -0.388 OA
HETATM   29  H   UNK N   1      32.551  14.631  10.583  0.00  0.00     0.210 HD
ENDBRANCH   3  28
BRANCH   5  30
HETATM   30  O   UNK N   1      36.586  13.954  12.482  0.00  0.00    -0.359 OA
BRANCH  30  31
HETATM   31  C   UNK N   1      36.653  13.140  13.624  0.00  0.00     0.171 C 
BRANCH  31  32
HETATM   32  C   UNK N   1      35.617  13.570  14.640  0.00  0.00     0.026 C 
BRANCH  32  33
HETATM   33  C   UNK N   1      36.155  13.324  16.037  0.00  0.00     0.002 C 
BRANCH  33  34
HETATM   34  C   UNK N   1      35.011  13.283  17.034  0.00  0.00     0.000 C 
BRANCH  34  35
HETATM   35  C   UNK N   1      35.233  12.176  18.055  0.00  0.00     0.000 C 
BRANCH  35  36
HETATM   36  C   UNK N   1      35.816  10.922  17.412  0.00  0.00     0.000 C 
BRANCH  36  37
HETATM   37  C   UNK N   1      34.739  10.018  16.821  0.00  0.00     0.000 C 
BRANCH  37  38
HETATM   38  C   UNK N   1      34.867   9.910  15.310  0.00  0.00     0.000 C 
BRANCH  38  39
HETATM   39  C   UNK N   1      33.722  10.629  14.612  0.00  0.00    -0.000 C 
BRANCH  39  40
HETATM   40  C   UNK N   1      33.846  10.480  13.106  0.00  0.00    -0.005 C 
HETATM   41  C   UNK N   1      35.152   9.797  12.741  0.00  0.00     0.005 C 
ENDBRANCH  39  40
ENDBRANCH  38  39
ENDBRANCH  37  38
ENDBRANCH  36  37
ENDBRANCH  35  36
ENDBRANCH  34  35
ENDBRANCH  33  34
ENDBRANCH  32  33
ENDBRANCH  31  32
ENDBRANCH  30  31
ENDBRANCH   5  30
TORSDOF 22
ENDMDL
MODEL 4
REMARK VINA RESULT:      -6.2      2.727      4.933
REMARK  22 active torsions:
REMARK  status: ('A' for Active; 'I' for Inactive)
REMARK    1  A    between atoms: C_3  and  C_2 
REMARK    2  A    between atoms: C_4  and  C_3 
REMARK    3  A    between atoms: C_5  and  C_4 
REMARK    4  A    between atoms: C_6  and  C_5 
REMARK    5  A    between atoms: C_7  and  C_6 
REMARK    6  A    between atoms: C_8  and  C_7 
REMARK    7  A    between atoms: C_9  and  C_8 
REMARK    8  A    between atoms: C_10  and  C_9 
REMARK    9  A    between atoms: C_11  and  C_10 
REMARK   10  A    between atoms: O_31  and  C_11 
REMARK   11  A    between atoms: C_14  and  C_12 
REMARK   12  A    between atoms: O_24  and  C_12 
REMARK   13  A    between atoms: C_15  and  C_13 
REMARK   14  A    between atoms: O_25  and  C_13 
REMARK   15  A    between atoms: C_16  and  O_26 
REMARK   16  A    between atoms: C_17  and  O_27 
REMARK   17  A    between atoms: C_18  and  O_28 
REMARK   18  A    between atoms: C_19  and  O_29 
REMARK   19  A    between atoms: C_20  and  O_30 
REMARK   20  A    between atoms: C_21  and  O_34 
REMARK   21  A    between atoms: C_22  and  O_31 
REMARK   22  A    between atoms: C_23  and  O_34 
ROOT
HETATM    1  C   UNK N   1      34.069  16.742   8.044  0.00  0.00     0.180 C 
HETATM    2  C   UNK N   1      32.966  15.334   9.776  0.00  0.00     0.183 C 
HETATM    3  C   UNK N   1      33.449  14.103   9.001  0.00  0.00     0.204 C 
HETATM    4  C   UNK N   1      32.752  16.532   8.823  0.00  0.00     0.187 C 
HETATM    5  C   UNK N   1      34.703  14.479   8.193  0.00  0.00     0.291 C 
HETATM    6  O   UNK N   1      34.415  15.568   7.317  0.00  0.00    -0.348 OA
ENDROOT
BRANCH   4   7
HETATM    7  O   UNK N   1      31.721  16.290   7.873  0.00  0.00    -0.348 OA
BRANCH   7   8
HETATM    8  C   UNK N   1      30.680  17.261   7.795  0.00  0.00     0.292 C 
HETATM    9  C   UNK N   1      29.478  17.129   8.807  0.00  0.00     0.204 C 
HETATM   10  C   UNK N   1      28.531  18.287   8.484  0.00  0.00     0.183 C 
HETATM   11  C   UNK N   1      28.025  18.165   7.027  0.00  0.00     0.180 C 
HETATM   12  C   UNK N   1      28.968  17.275   6.166  0.00  0.00     0.179 C 
HETATM   13  O   UNK N   1      30.330  17.535   6.437  0.00  0.00    -0.348 OA
BRANCH   9  14
HETATM   14  O   UNK N   1      29.942  17.218  10.122  0.00  0.00    -0.388 OA
HETATM   15  H   UNK N   1      29.362  17.525  10.836  0.00  0.00     0.210 HD
ENDBRANCH   9  14
BRANCH  10  16
HETATM   16  O   UNK N   1      27.453  18.338   9.372  0.00  0.00    -0.390 OA
HETATM   17  H   UNK N   1      27.054  17.612   9.875  0.00  0.00     0.210 HD
ENDBRANCH  10  16
BRANCH  11  18
HETATM   18  O   UNK N   1      27.893  19.448   6.488  0.00  0.00    -0.390 OA
HETATM   19  H   UNK N   1      28.315  20.317   6.577  0.00  0.00     0.210 HD
ENDBRANCH  11  18
BRANCH  12  20
HETATM   20  C   UNK N   1      28.715  17.439   4.670  0.00  0.00     0.198 C 
BRANCH  20  21
HETATM   21  O   UNK N   1      29.216  18.660   4.214  0.00  0.00    -0.398 OA
HETATM   22  H   UNK N   1      30.042  19.124   4.011  0.00  0.00     0.209 HD
ENDBRANCH  20  21
ENDBRANCH  12  20
ENDBRANCH   7   8
ENDBRANCH   4   7
BRANCH   1  23
HETATM   23  C   UNK N   1      33.922  17.896   7.058  0.00  0.00     0.198 C 
BRANCH  23  24
HETATM   24  O   UNK N   1      34.222  17.470   5.763  0.00  0.00    -0.398 OA
HETATM   25  H   UNK N   1      33.524  17.109   5.195  0.00  0.00     0.209 HD
ENDBRANCH  23  24
ENDBRANCH   1  23
BRANCH   2  26
HETATM   26  O   UNK N   1      31.808  15.028  10.490  0.00  0.00    -0.390 OA
HETATM   27  H   UNK N   1      30.962  15.439  10.250  0.00  0.00     0.210 HD
ENDBRANCH   2  26
BRANCH   3  28
HETATM   28  O   UNK N   1      32.449  13.655   8.132  0.00  0.00    -0.388 OA
HETATM   29  H   UNK N   1      31.882  13.090   7.583  0.00  0.00     0.210 HD
ENDBRANCH   3  28
BRANCH   5  30
HETATM   30  O   UNK N   1      35.782  14.767   9.066  0.00  0.00    -0.359 OA
BRANCH  30  31
HETATM   31  C   UNK N   1      36.219  13.559   9.633  0.00  0.00     0.171 C 
BRANCH  31  32
HETATM   32  C   UNK N   1      36.926  13.818  10.946  0.00  0.00     0.026 C 
BRANCH  32  33
HETATM   33  C   UNK N   1      36.021  14.636  11.848  0.00  0.00     0.002 C 
BRANCH  33  34
HETATM   34  C   UNK N   1      35.582  13.801  13.037  0.00  0.00     0.000 C 
BRANCH  34  35
HETATM   35  C   UNK N   1      36.436  14.117  14.257  0.00  0.00     0.000 C 
BRANCH  35  36
HETATM   36  C   UNK N   1      36.740  12.865  15.074  0.00  0.00     0.000 C 
BRANCH  36  37
HETATM   37  C   UNK N   1      35.687  12.602  16.146  0.00  0.00     0.000 C 
BRANCH  37  38
HETATM   38  C   UNK N   1      35.344  11.124  16.242  0.00  0.00     0.000 C 
BRANCH  38  39
HETATM   39  C   UNK N   1      34.181  10.773  15.327  0.00  0.00    -0.000 C 
BRANCH  39  40
HETATM   40  C   UNK N   1      34.667   9.942  14.153  0.00  0.00    -0.005 C 
HETATM   41  C   UNK N   1      34.029  10.418  12.860  0.00  0.00     0.005 C 
ENDBRANCH  39  40
ENDBRANCH  38  39
ENDBRANCH  37  38
ENDBRANCH  36  37
ENDBRANCH  35  36
ENDBRANCH  34  35
ENDBRANCH  33  34
ENDBRANCH  32  33
ENDBRANCH  31  32
ENDBRANCH  30  31
ENDBRANCH   5  30
TORSDOF 22
ENDMDL
MODEL 5
REMARK VINA RESULT:      -6.0      2.559      5.087
REMARK  22 active torsions:
REMARK  status: ('A' for Active; 'I' for Inactive)
REMARK    1  A    between atoms: C_3  and  C_2 
REMARK    2  A    between atoms: C_4  and  C_3 
REMARK    3  A    between atoms: C_5  and  C_4 
REMARK    4  A    between atoms: C_6  and  C_5 
REMARK    5  A    between atoms: C_7  and  C_6 
REMARK    6  A    between atoms: C_8  and  C_7 
REMARK    7  A    between atoms: C_9  and  C_8 
REMARK    8  A    between atoms: C_10  and  C_9 
REMARK    9  A    between atoms: C_11  and  C_10 
REMARK   10  A    between atoms: O_31  and  C_11 
REMARK   11  A    between atoms: C_14  and  C_12 
REMARK   12  A    between atoms: O_24  and  C_12 
REMARK   13  A    between atoms: C_15  and  C_13 
REMARK   14  A    between atoms: O_25  and  C_13 
REMARK   15  A    between atoms: C_16  and  O_26 
REMARK   16  A    between atoms: C_17  and  O_27 
REMARK   17  A    between atoms: C_18  and  O_28 
REMARK   18  A    between atoms: C_19  and  O_29 
REMARK   19  A    between atoms: C_20  and  O_30 
REMARK   20  A    between atoms: C_21  and  O_34 
REMARK   21  A    between atoms: C_22  and  O_31 
REMARK   22  A    between atoms: C_23  and  O_34 
ROOT
HETATM    1  C   UNK N   1      34.176  16.917   8.826  0.00  0.00     0.180 C 
HETATM    2  C   UNK N   1      32.972  14.824   9.433  0.00  0.00     0.183 C 
HETATM    3  C   UNK N   1      34.150  14.043   8.841  0.00  0.00     0.204 C 
HETATM    4  C   UNK N   1      32.815  16.193   8.732  0.00  0.00     0.187 C 
HETATM    5  C   UNK N   1      35.415  14.917   8.905  0.00  0.00     0.291 C 
HETATM    6  O   UNK N   1      35.200  16.144   8.210  0.00  0.00    -0.348 OA
ENDROOT
BRANCH   4   7
HETATM    7  O   UNK N   1      32.489  16.061   7.354  0.00  0.00    -0.348 OA
BRANCH   7   8
HETATM    8  C   UNK N   1      31.149  16.370   6.978  0.00  0.00     0.292 C 
HETATM    9  C   UNK N   1      30.937  17.361   5.770  0.00  0.00     0.204 C 
HETATM   10  C   UNK N   1      29.422  17.503   5.608  0.00  0.00     0.183 C 
HETATM   11  C   UNK N   1      28.805  18.089   6.901  0.00  0.00     0.180 C 
HETATM   12  C   UNK N   1      29.740  17.880   8.126  0.00  0.00     0.179 C 
HETATM   13  O   UNK N   1      30.330  16.597   8.127  0.00  0.00    -0.348 OA
BRANCH   9  14
HETATM   14  O   UNK N   1      31.514  16.838   4.610  0.00  0.00    -0.388 OA
HETATM   15  H   UNK N   1      31.917  15.956   4.606  0.00  0.00     0.210 HD
ENDBRANCH   9  14
BRANCH  10  16
HETATM   16  O   UNK N   1      29.090  18.297   4.507  0.00  0.00    -0.390 OA
HETATM   17  H   UNK N   1      28.813  18.011   3.623  0.00  0.00     0.210 HD
ENDBRANCH  10  16
BRANCH  11  18
HETATM   18  O   UNK N   1      27.550  17.506   7.104  0.00  0.00    -0.390 OA
HETATM   19  H   UNK N   1      26.680  17.493   6.675  0.00  0.00     0.210 HD
ENDBRANCH  11  18
BRANCH  12  20
HETATM   20  C   UNK N   1      29.017  18.099   9.453  0.00  0.00     0.198 C 
BRANCH  20  21
HETATM   21  O   UNK N   1      29.815  18.824  10.339  0.00  0.00    -0.398 OA
HETATM   22  H   UNK N   1      29.770  19.439  11.087  0.00  0.00     0.209 HD
ENDBRANCH  20  21
ENDBRANCH  12  20
ENDBRANCH   7   8
ENDBRANCH   4   7
BRANCH   1  23
HETATM   23  C   UNK N   1      34.104  18.271   8.127  0.00  0.00     0.198 C 
BRANCH  23  24
HETATM   24  O   UNK N   1      35.197  19.062   8.485  0.00  0.00    -0.398 OA
HETATM   25  H   UNK N   1      35.806  18.764   9.179  0.00  0.00     0.209 HD
ENDBRANCH  23  24
ENDBRANCH   1  23
BRANCH   2  26
HETATM   26  O   UNK N   1      31.804  14.066   9.353  0.00  0.00    -0.390 OA
HETATM   27  H   UNK N   1      31.800  13.141   9.647  0.00  0.00     0.210 HD
ENDBRANCH   2  26
BRANCH   3  28
HETATM   28  O   UNK N   1      33.884  13.701   7.510  0.00  0.00    -0.388 OA
HETATM   29  H   UNK N   1      33.694  13.198   6.703  0.00  0.00     0.210 HD
ENDBRANCH   3  28
BRANCH   5  30
HETATM   30  O   UNK N   1      35.799  15.126  10.253  0.00  0.00    -0.359 OA
BRANCH  30  31
HETATM   31  C   UNK N   1      36.940  14.350  10.507  0.00  0.00     0.171 C 
BRANCH  31  32
HETATM   32  C   UNK N   1      36.678  13.381  11.640  0.00  0.00     0.026 C 
BRANCH  32  33
HETATM   33  C   UNK N   1      35.393  13.772  12.345  0.00  0.00     0.002 C 
BRANCH  33  34
HETATM   34  C   UNK N   1      35.608  13.782  13.848  0.00  0.00     0.000 C 
BRANCH  34  35
HETATM   35  C   UNK N   1      36.962  13.181  14.198  0.00  0.00     0.000 C 
BRANCH  35  36
HETATM   36  C   UNK N   1      36.839  12.089  15.256  0.00  0.00     0.000 C 
BRANCH  36  37
HETATM   37  C   UNK N   1      37.165  10.706  14.703  0.00  0.00     0.000 C 
BRANCH  37  38
HETATM   38  C   UNK N   1      35.920   9.841  14.588  0.00  0.00     0.000 C 
BRANCH  38  39
HETATM   39  C   UNK N   1      35.349   9.892  13.179  0.00  0.00    -0.000 C 
BRANCH  39  40
HETATM   40  C   UNK N   1      33.931  10.435  13.204  0.00  0.00    -0.005 C 
HETATM   41  C   UNK N   1      33.507  10.757  14.625  0.00  0.00     0.005 C 
ENDBRANCH  39  40
ENDBRANCH  38  39
ENDBRANCH  37  38
ENDBRANCH  36  37
ENDBRANCH  35  36
ENDBRANCH  34  35
ENDBRANCH  33  34
ENDBRANCH  32  33
ENDBRANCH  31  32
ENDBRANCH  30  31
ENDBRANCH   5  30
TORSDOF 22
ENDMDL
MODEL 6
REMARK VINA RESULT:      -6.0     12.992     15.306
REMARK  22 active torsions:
REMARK  status: ('A' for Active; 'I' for Inactive)
REMARK    1  A    between atoms: C_3  and  C_2 
REMARK    2  A    between atoms: C_4  and  C_3 
REMARK    3  A    between atoms: C_5  and  C_4 
REMARK    4  A    between atoms: C_6  and  C_5 
REMARK    5  A    between atoms: C_7  and  C_6 
REMARK    6  A    between atoms: C_8  and  C_7 
REMARK    7  A    between atoms: C_9  and  C_8 
REMARK    8  A    between atoms: C_10  and  C_9 
REMARK    9  A    between atoms: C_11  and  C_10 
REMARK   10  A    between atoms: O_31  and  C_11 
REMARK   11  A    between atoms: C_14  and  C_12 
REMARK   12  A    between atoms: O_24  and  C_12 
REMARK   13  A    between atoms: C_15  and  C_13 
REMARK   14  A    between atoms: O_25  and  C_13 
REMARK   15  A    between atoms: C_16  and  O_26 
REMARK   16  A    between atoms: C_17  and  O_27 
REMARK   17  A    between atoms: C_18  and  O_28 
REMARK   18  A    between atoms: C_19  and  O_29 
REMARK   19  A    between atoms: C_20  and  O_30 
REMARK   20  A    between atoms: C_21  and  O_34 
REMARK   21  A    between atoms: C_22  and  O_31 
REMARK   22  A    between atoms: C_23  and  O_34 
ROOT
HETATM    1  C   UNK N   1      22.305  15.583   5.802  0.00  0.00     0.180 C 
HETATM    2  C   UNK N   1      21.187  17.346   7.161  0.00  0.00     0.183 C 
HETATM    3  C   UNK N   1      20.032  16.362   7.381  0.00  0.00     0.204 C 
HETATM    4  C   UNK N   1      21.890  17.072   5.812  0.00  0.00     0.187 C 
HETATM    5  C   UNK N   1      20.564  14.924   7.243  0.00  0.00     0.291 C 
HETATM    6  O   UNK N   1      21.167  14.744   5.963  0.00  0.00    -0.348 OA
ENDROOT
BRANCH   4   7
HETATM    7  O   UNK N   1      21.030  17.288   4.700  0.00  0.00    -0.348 OA
BRANCH   7   8
HETATM    8  C   UNK N   1      21.038  18.593   4.126  0.00  0.00     0.292 C 
HETATM    9  C   UNK N   1      20.415  18.765   2.689  0.00  0.00     0.204 C 
HETATM   10  C   UNK N   1      20.571  20.248   2.341  0.00  0.00     0.183 C 
HETATM   11  C   UNK N   1      22.069  20.634   2.329  0.00  0.00     0.180 C 
HETATM   12  C   UNK N   1      22.926  19.626   3.149  0.00  0.00     0.179 C 
HETATM   13  O   UNK N   1      22.288  19.249   4.352  0.00  0.00    -0.348 OA
BRANCH   9  14
HETATM   14  O   UNK N   1      19.068  18.396   2.698  0.00  0.00    -0.388 OA
HETATM   15  H   UNK N   1      18.786  17.545   3.069  0.00  0.00     0.210 HD
ENDBRANCH   9  14
BRANCH  10  16
HETATM   16  O   UNK N   1      19.978  20.558   1.113  0.00  0.00    -0.390 OA
HETATM   17  H   UNK N   1      19.521  19.962   0.500  0.00  0.00     0.210 HD
ENDBRANCH  10  16
BRANCH  11  18
HETATM   18  O   UNK N   1      22.201  21.938   2.815  0.00  0.00    -0.390 OA
HETATM   19  H   UNK N   1      21.679  22.754   2.847  0.00  0.00     0.210 HD
ENDBRANCH  11  18
BRANCH  12  20
HETATM   20  C   UNK N   1      24.315  20.171   3.469  0.00  0.00     0.198 C 
BRANCH  20  21
HETATM   21  O   UNK N   1      24.830  20.884   2.385  0.00  0.00    -0.398 OA
HETATM   22  H   UNK N   1      25.638  21.017   1.866  0.00  0.00     0.209 HD
ENDBRANCH  20  21
ENDBRANCH  12  20
ENDBRANCH   7   8
ENDBRANCH   4   7
BRANCH   1  23
HETATM   23  C   UNK N   1      22.983  15.233   4.482  0.00  0.00     0.198 C 
BRANCH  23  24
HETATM   24  O   UNK N   1      23.633  16.351   3.958  0.00  0.00    -0.398 OA
HETATM   25  H   UNK N   1      23.605  16.528   3.004  0.00  0.00     0.209 HD
ENDBRANCH  23  24
ENDBRANCH   1  23
BRANCH   2  26
HETATM   26  O   UNK N   1      20.723  18.658   7.245  0.00  0.00    -0.390 OA
HETATM   27  H   UNK N   1      21.334  19.402   7.127  0.00  0.00     0.210 HD
ENDBRANCH   2  26
BRANCH   3  28
HETATM   28  O   UNK N   1      19.024  16.581   6.436  0.00  0.00    -0.388 OA
HETATM   29  H   UNK N   1      18.232  16.914   5.986  0.00  0.00     0.210 HD
ENDBRANCH   3  28
BRANCH   5  30
HETATM   30  O   UNK N   1      21.458  14.629   8.302  0.00  0.00    -0.359 OA
BRANCH  30  31
HETATM   31  C   UNK N   1      20.710  14.500   9.483  0.00  0.00     0.171 C 
BRANCH  31  32
HETATM   32  C   UNK N   1      21.018  13.183  10.162  0.00  0.00     0.026 C 
BRANCH  32  33
HETATM   33  C   UNK N   1      22.522  13.002  10.244  0.00  0.00     0.002 C 
BRANCH  33  34
HETATM   34  C   UNK N   1      22.890  11.563   9.933  0.00  0.00     0.000 C 
BRANCH  34  35
HETATM   35  C   UNK N   1      24.014  11.508   8.907  0.00  0.00     0.000 C 
BRANCH  35  36
HETATM   36  C   UNK N   1      23.600  12.142   7.582  0.00  0.00     0.000 C 
BRANCH  36  37
HETATM   37  C   UNK N   1      22.328  11.521   7.014  0.00  0.00     0.000 C 
BRANCH  37  38
HETATM   38  C   UNK N   1      22.518  11.072   5.575  0.00  0.00     0.000 C 
BRANCH  38  39
HETATM   39  C   UNK N   1      23.533   9.943   5.485  0.00  0.00    -0.000 C 
BRANCH  39  40
HETATM   40  C   UNK N   1      23.023   8.716   6.219  0.00  0.00    -0.005 C 
HETATM   41  C   UNK N   1      24.083   8.177   7.162  0.00  0.00     0.005 C 
ENDBRANCH  39  40
ENDBRANCH  38  39
ENDBRANCH  37  38
ENDBRANCH  36  37
ENDBRANCH  35  36
ENDBRANCH  34  35
ENDBRANCH  33  34
ENDBRANCH  32  33
ENDBRANCH  31  32
ENDBRANCH  30  31
ENDBRANCH   5  30
TORSDOF 22
ENDMDL
MODEL 7
REMARK VINA RESULT:      -5.9      3.829     10.491
REMARK  22 active torsions:
REMARK  status: ('A' for Active; 'I' for Inactive)
REMARK    1  A    between atoms: C_3  and  C_2 
REMARK    2  A    between atoms: C_4  and  C_3 
REMARK    3  A    between atoms: C_5  and  C_4 
REMARK    4  A    between atoms: C_6  and  C_5 
REMARK    5  A    between atoms: C_7  and  C_6 
REMARK    6  A    between atoms: C_8  and  C_7 
REMARK    7  A    between atoms: C_9  and  C_8 
REMARK    8  A    between atoms: C_10  and  C_9 
REMARK    9  A    between atoms: C_11  and  C_10 
REMARK   10  A    between atoms: O_31  and  C_11 
REMARK   11  A    between atoms: C_14  and  C_12 
REMARK   12  A    between atoms: O_24  and  C_12 
REMARK   13  A    between atoms: C_15  and  C_13 
REMARK   14  A    between atoms: O_25  and  C_13 
REMARK   15  A    between atoms: C_16  and  O_26 
REMARK   16  A    between atoms: C_17  and  O_27 
REMARK   17  A    between atoms: C_18  and  O_28 
REMARK   18  A    between atoms: C_19  and  O_29 
REMARK   19  A    between atoms: C_20  and  O_30 
REMARK   20  A    between atoms: C_21  and  O_34 
REMARK   21  A    between atoms: C_22  and  O_31 
REMARK   22  A    between atoms: C_23  and  O_34 
ROOT
HETATM    1  C   UNK N   1      34.313  14.896   6.517  0.00  0.00     0.180 C 
HETATM    2  C   UNK N   1      32.669  16.436   7.578  0.00  0.00     0.183 C 
HETATM    3  C   UNK N   1      33.354  17.587   6.833  0.00  0.00     0.204 C 
HETATM    4  C   UNK N   1      33.672  15.295   7.865  0.00  0.00     0.187 C 
HETATM    5  C   UNK N   1      34.035  17.033   5.570  0.00  0.00     0.291 C 
HETATM    6  O   UNK N   1      34.966  16.011   5.921  0.00  0.00    -0.348 OA
ENDROOT
BRANCH   4   7
HETATM    7  O   UNK N   1      34.719  15.702   8.738  0.00  0.00    -0.348 OA
BRANCH   7   8
HETATM    8  C   UNK N   1      34.776  15.065  10.012  0.00  0.00     0.292 C 
HETATM    9  C   UNK N   1      36.187  14.935  10.703  0.00  0.00     0.204 C 
HETATM   10  C   UNK N   1      35.937  14.215  12.030  0.00  0.00     0.183 C 
HETATM   11  C   UNK N   1      35.334  12.815  11.768  0.00  0.00     0.180 C 
HETATM   12  C   UNK N   1      34.679  12.730  10.359  0.00  0.00     0.179 C 
HETATM   13  O   UNK N   1      33.951  13.899  10.045  0.00  0.00    -0.348 OA
BRANCH   9  14
HETATM   14  O   UNK N   1      36.738  16.200  10.919  0.00  0.00    -0.388 OA
HETATM   15  H   UNK N   1      36.211  16.915  11.308  0.00  0.00     0.210 HD
ENDBRANCH   9  14
BRANCH  10  16
HETATM   16  O   UNK N   1      37.106  14.108  12.790  0.00  0.00    -0.390 OA
HETATM   17  H   UNK N   1      37.669  13.330  12.918  0.00  0.00     0.210 HD
ENDBRANCH  10  16
BRANCH  11  18
HETATM   18  O   UNK N   1      34.416  12.524  12.782  0.00  0.00    -0.390 OA
HETATM   19  H   UNK N   1      33.535  12.128  12.868  0.00  0.00     0.210 HD
ENDBRANCH  11  18
BRANCH  12  20
HETATM   20  C   UNK N   1      33.763  11.517  10.217  0.00  0.00     0.198 C 
BRANCH  20  21
HETATM   21  O   UNK N   1      32.676  11.811   9.392  0.00  0.00    -0.398 OA
HETATM   22  H   UNK N   1      32.443  12.041   8.479  0.00  0.00     0.209 HD
ENDBRANCH  20  21
ENDBRANCH  12  20
ENDBRANCH   7   8
ENDBRANCH   4   7
BRANCH   1  23
HETATM   23  C   UNK N   1      35.340  13.788   6.728  0.00  0.00     0.198 C 
BRANCH  23  24
HETATM   24  O   UNK N   1      36.603  14.335   6.958  0.00  0.00    -0.398 OA
HETATM   25  H   UNK N   1      37.399  13.854   6.684  0.00  0.00     0.209 HD
ENDBRANCH  23  24
ENDBRANCH   1  23
BRANCH   2  26
HETATM   26  O   UNK N   1      32.074  16.907   8.748  0.00  0.00    -0.390 OA
HETATM   27  H   UNK N   1      32.447  17.672   9.213  0.00  0.00     0.210 HD
ENDBRANCH   2  26
BRANCH   3  28
HETATM   28  O   UNK N   1      34.312  18.192   7.654  0.00  0.00    -0.388 OA
HETATM   29  H   UNK N   1      35.085  18.687   7.966  0.00  0.00     0.210 HD
ENDBRANCH   3  28
BRANCH   5  30
HETATM   30  O   UNK N   1      33.060  16.574   4.648  0.00  0.00    -0.359 OA
BRANCH  30  31
HETATM   31  C   UNK N   1      32.225  17.654   4.322  0.00  0.00     0.171 C 
BRANCH  31  32
HETATM   32  C   UNK N   1      30.832  17.163   3.992  0.00  0.00     0.026 C 
BRANCH  32  33
HETATM   33  C   UNK N   1      29.822  17.926   4.827  0.00  0.00     0.002 C 
BRANCH  33  34
HETATM   34  C   UNK N   1      29.448  17.118   6.057  0.00  0.00     0.000 C 
BRANCH  34  35
HETATM   35  C   UNK N   1      28.890  18.026   7.143  0.00  0.00     0.000 C 
BRANCH  35  36
HETATM   36  C   UNK N   1      27.618  18.735   6.689  0.00  0.00     0.000 C 
BRANCH  36  37
HETATM   37  C   UNK N   1      27.709  20.249   6.854  0.00  0.00     0.000 C 
BRANCH  37  38
HETATM   38  C   UNK N   1      26.817  20.975   5.859  0.00  0.00     0.000 C 
BRANCH  38  39
HETATM   39  C   UNK N   1      26.925  20.353   4.475  0.00  0.00    -0.000 C 
BRANCH  39  40
HETATM   40  C   UNK N   1      25.549  19.959   3.966  0.00  0.00    -0.005 C 
HETATM   41  C   UNK N   1      25.337  20.465   2.551  0.00  0.00     0.005 C 
ENDBRANCH  39  40
ENDBRANCH  38  39
ENDBRANCH  37  38
ENDBRANCH  36  37
ENDBRANCH  35  36
ENDBRANCH  34  35
ENDBRANCH  33  34
ENDBRANCH  32  33
ENDBRANCH  31  32
ENDBRANCH  30  31
ENDBRANCH   5  30
TORSDOF 22
ENDMDL
MODEL 8
REMARK VINA RESULT:      -5.8      4.550     11.086
REMARK  22 active torsions:
REMARK  status: ('A' for Active; 'I' for Inactive)
REMARK    1  A    between atoms: C_3  and  C_2 
REMARK    2  A    between atoms: C_4  and  C_3 
REMARK    3  A    between atoms: C_5  and  C_4 
REMARK    4  A    between atoms: C_6  and  C_5 
REMARK    5  A    between atoms: C_7  and  C_6 
REMARK    6  A    between atoms: C_8  and  C_7 
REMARK    7  A    between atoms: C_9  and  C_8 
REMARK    8  A    between atoms: C_10  and  C_9 
REMARK    9  A    between atoms: C_11  and  C_10 
REMARK   10  A    between atoms: O_31  and  C_11 
REMARK   11  A    between atoms: C_14  and  C_12 
REMARK   12  A    between atoms: O_24  and  C_12 
REMARK   13  A    between atoms: C_15  and  C_13 
REMARK   14  A    between atoms: O_25  and  C_13 
REMARK   15  A    between atoms: C_16  and  O_26 
REMARK   16  A    between atoms: C_17  and  O_27 
REMARK   17  A    between atoms: C_18  and  O_28 
REMARK   18  A    between atoms: C_19  and  O_29 
REMARK   19  A    between atoms: C_20  and  O_30 
REMARK   20  A    between atoms: C_21  and  O_34 
REMARK   21  A    between atoms: C_22  and  O_31 
REMARK   22  A    between atoms: C_23  and  O_34 
ROOT
HETATM    1  C   UNK N   1      32.672  15.399   8.567  0.00  0.00     0.180 C 
HETATM    2  C   UNK N   1      33.955  17.521   8.801  0.00  0.00     0.183 C 
HETATM    3  C   UNK N   1      33.541  17.861   7.365  0.00  0.00     0.204 C 
HETATM    4  C   UNK N   1      34.032  15.989   9.001  0.00  0.00     0.187 C 
HETATM    5  C   UNK N   1      32.230  17.129   7.033  0.00  0.00     0.291 C 
HETATM    6  O   UNK N   1      32.393  15.723   7.210  0.00  0.00    -0.348 OA
ENDROOT
BRANCH   4   7
HETATM    7  O   UNK N   1      35.040  15.389   8.196  0.00  0.00    -0.348 OA
BRANCH   7   8
HETATM    8  C   UNK N   1      36.134  14.786   8.882  0.00  0.00     0.292 C 
HETATM    9  C   UNK N   1      36.876  13.591   8.170  0.00  0.00     0.204 C 
HETATM   10  C   UNK N   1      37.981  13.152   9.133  0.00  0.00     0.183 C 
HETATM   11  C   UNK N   1      37.362  12.682  10.470  0.00  0.00     0.180 C 
HETATM   12  C   UNK N   1      35.928  13.252  10.668  0.00  0.00     0.179 C 
HETATM   13  O   UNK N   1      35.839  14.605  10.268  0.00  0.00    -0.348 OA
BRANCH   9  14
HETATM   14  O   UNK N   1      37.416  14.015   6.953  0.00  0.00    -0.388 OA
HETATM   15  H   UNK N   1      38.297  13.723   6.669  0.00  0.00     0.210 HD
ENDBRANCH   9  14
BRANCH  10  16
HETATM   16  O   UNK N   1      38.778  12.144   8.583  0.00  0.00    -0.390 OA
HETATM   17  H   UNK N   1      38.695  11.185   8.696  0.00  0.00     0.210 HD
ENDBRANCH  10  16
BRANCH  11  18
HETATM   18  O   UNK N   1      38.213  13.053  11.516  0.00  0.00    -0.390 OA
HETATM   19  H   UNK N   1      38.217  13.038  12.485  0.00  0.00     0.210 HD
ENDBRANCH  11  18
BRANCH  12  20
HETATM   20  C   UNK N   1      35.445  13.125  12.110  0.00  0.00     0.198 C 
BRANCH  20  21
HETATM   21  O   UNK N   1      34.315  13.914  12.327  0.00  0.00    -0.398 OA
HETATM   22  H   UNK N   1      33.418  14.081  11.997  0.00  0.00     0.209 HD
ENDBRANCH  20  21
ENDBRANCH  12  20
ENDBRANCH   7   8
ENDBRANCH   4   7
BRANCH   1  23
HETATM   23  C   UNK N   1      32.685  13.881   8.711  0.00  0.00     0.198 C 
BRANCH  23  24
HETATM   24  O   UNK N   1      32.812  13.276   7.459  0.00  0.00    -0.398 OA
HETATM   25  H   UNK N   1      32.877  12.311   7.390  0.00  0.00     0.209 HD
ENDBRANCH  23  24
ENDBRANCH   1  23
BRANCH   2  26
HETATM   26  O   UNK N   1      35.161  18.144   9.115  0.00  0.00    -0.390 OA
HETATM   27  H   UNK N   1      35.761  17.750   9.767  0.00  0.00     0.210 HD
ENDBRANCH   2  26
BRANCH   3  28
HETATM   28  O   UNK N   1      34.539  17.464   6.468  0.00  0.00    -0.388 OA
HETATM   29  H   UNK N   1      35.106  16.931   5.888  0.00  0.00     0.210 HD
ENDBRANCH   3  28
BRANCH   5  30
HETATM   30  O   UNK N   1      31.167  17.646   7.815  0.00  0.00    -0.359 OA
BRANCH  30  31
HETATM   31  C   UNK N   1      29.961  17.367   7.153  0.00  0.00     0.171 C 
BRANCH  31  32
HETATM   32  C   UNK N   1      28.799  17.439   8.121  0.00  0.00     0.026 C 
BRANCH  32  33
HETATM   33  C   UNK N   1      28.272  18.860   8.165  0.00  0.00     0.002 C 
BRANCH  33  34
HETATM   34  C   UNK N   1      27.808  19.284   6.783  0.00  0.00     0.000 C 
BRANCH  34  35
HETATM   35  C   UNK N   1      27.254  20.702   6.817  0.00  0.00     0.000 C 
BRANCH  35  36
HETATM   36  C   UNK N   1      26.514  21.051   5.530  0.00  0.00     0.000 C 
BRANCH  36  37
HETATM   37  C   UNK N   1      27.115  20.360   4.310  0.00  0.00     0.000 C 
BRANCH  37  38
HETATM   38  C   UNK N   1      26.104  20.234   3.182  0.00  0.00     0.000 C 
BRANCH  38  39
HETATM   39  C   UNK N   1      24.734  19.848   3.719  0.00  0.00    -0.000 C 
BRANCH  39  40
HETATM   40  C   UNK N   1      23.642  20.539   2.921  0.00  0.00    -0.005 C 
HETATM   41  C   UNK N   1      22.304  19.859   3.146  0.00  0.00     0.005 C 
ENDBRANCH  39  40
ENDBRANCH  38  39
ENDBRANCH  37  38
ENDBRANCH  36  37
ENDBRANCH  35  36
ENDBRANCH  34  35
ENDBRANCH  33  34
ENDBRANCH  32  33
ENDBRANCH  31  32
ENDBRANCH  30  31
ENDBRANCH   5  30
TORSDOF 22
ENDMDL
MODEL 9
REMARK VINA RESULT:      -5.8      2.726      4.845
REMARK  22 active torsions:
REMARK  status: ('A' for Active; 'I' for Inactive)
REMARK    1  A    between atoms: C_3  and  C_2 
REMARK    2  A    between atoms: C_4  and  C_3 
REMARK    3  A    between atoms: C_5  and  C_4 
REMARK    4  A    between atoms: C_6  and  C_5 
REMARK    5  A    between atoms: C_7  and  C_6 
REMARK    6  A    between atoms: C_8  and  C_7 
REMARK    7  A    between atoms: C_9  and  C_8 
REMARK    8  A    between atoms: C_10  and  C_9 
REMARK    9  A    between atoms: C_11  and  C_10 
REMARK   10  A    between atoms: O_31  and  C_11 
REMARK   11  A    between atoms: C_14  and  C_12 
REMARK   12  A    between atoms: O_24  and  C_12 
REMARK   13  A    between atoms: C_15  and  C_13 
REMARK   14  A    between atoms: O_25  and  C_13 
REMARK   15  A    between atoms: C_16  and  O_26 
REMARK   16  A    between atoms: C_17  and  O_27 
REMARK   17  A    between atoms: C_18  and  O_28 
REMARK   18  A    between atoms: C_19  and  O_29 
REMARK   19  A    between atoms: C_20  and  O_30 
REMARK   20  A    between atoms: C_21  and  O_34 
REMARK   21  A    between atoms: C_22  and  O_31 
REMARK   22  A    between atoms: C_23  and  O_34 
ROOT
HETATM    1  C   UNK N   1      33.101  14.378   6.953  0.00  0.00     0.180 C 
HETATM    2  C   UNK N   1      33.184  16.193   8.657  0.00  0.00     0.183 C 
HETATM    3  C   UNK N   1      32.891  15.129   9.720  0.00  0.00     0.204 C 
HETATM    4  C   UNK N   1      32.573  15.789   7.295  0.00  0.00     0.187 C 
HETATM    5  C   UNK N   1      33.375  13.761   9.209  0.00  0.00     0.291 C 
HETATM    6  O   UNK N   1      32.742  13.448   7.969  0.00  0.00    -0.348 OA
ENDROOT
BRANCH   4   7
HETATM    7  O   UNK N   1      31.153  15.721   7.338  0.00  0.00    -0.348 OA
BRANCH   7   8
HETATM    8  C   UNK N   1      30.440  16.808   6.753  0.00  0.00     0.292 C 
HETATM    9  C   UNK N   1      29.195  17.374   7.537  0.00  0.00     0.204 C 
HETATM   10  C   UNK N   1      28.639  18.510   6.674  0.00  0.00     0.183 C 
HETATM   11  C   UNK N   1      28.204  17.961   5.294  0.00  0.00     0.180 C 
HETATM   12  C   UNK N   1      28.901  16.608   4.971  0.00  0.00     0.179 C 
HETATM   13  O   UNK N   1      30.262  16.612   5.348  0.00  0.00    -0.348 OA
BRANCH   9  14
HETATM   14  O   UNK N   1      29.588  17.849   8.791  0.00  0.00    -0.388 OA
HETATM   15  H   UNK N   1      29.087  18.547   9.240  0.00  0.00     0.210 HD
ENDBRANCH   9  14
BRANCH  10  16
HETATM   16  O   UNK N   1      27.572  19.161   7.298  0.00  0.00    -0.390 OA
HETATM   17  H   UNK N   1      27.065  18.875   8.073  0.00  0.00     0.210 HD
ENDBRANCH  10  16
BRANCH  11  18
HETATM   18  O   UNK N   1      28.478  18.927   4.320  0.00  0.00    -0.390 OA
HETATM   19  H   UNK N   1      28.299  19.867   4.164  0.00  0.00     0.210 HD
ENDBRANCH  11  18
BRANCH  12  20
HETATM   20  C   UNK N   1      28.792  16.237   3.495  0.00  0.00     0.198 C 
BRANCH  20  21
HETATM   21  O   UNK N   1      29.786  16.874   2.749  0.00  0.00    -0.398 OA
HETATM   22  H   UNK N   1      29.945  17.323   1.905  0.00  0.00     0.209 HD
ENDBRANCH  20  21
ENDBRANCH  12  20
ENDBRANCH   7   8
ENDBRANCH   4   7
BRANCH   1  23
HETATM   23  C   UNK N   1      32.514  13.901   5.629  0.00  0.00     0.198 C 
BRANCH  23  24
HETATM   24  O   UNK N   1      31.186  13.505   5.802  0.00  0.00    -0.398 OA
HETATM   25  H   UNK N   1      30.464  14.092   5.530  0.00  0.00     0.209 HD
ENDBRANCH  23  24
ENDBRANCH   1  23
BRANCH   2  26
HETATM   26  O   UNK N   1      32.722  17.438   9.082  0.00  0.00    -0.390 OA
HETATM   27  H   UNK N   1      32.814  17.703  10.010  0.00  0.00     0.210 HD
ENDBRANCH   2  26
BRANCH   3  28
HETATM   28  O   UNK N   1      31.518  15.072   9.982  0.00  0.00    -0.388 OA
HETATM   29  H   UNK N   1      30.577  15.299  10.047  0.00  0.00     0.210 HD
ENDBRANCH   3  28
BRANCH   5  30
HETATM   30  O   UNK N   1      34.788  13.747   9.106  0.00  0.00    -0.359 OA
BRANCH  30  31
HETATM   31  C   UNK N   1      35.283  12.797  10.013  0.00  0.00     0.171 C 
BRANCH  31  32
HETATM   32  C   UNK N   1      36.076  13.476  11.109  0.00  0.00     0.026 C 
BRANCH  32  33
HETATM   33  C   UNK N   1      35.154  13.791  12.272  0.00  0.00     0.002 C 
BRANCH  33  34
HETATM   34  C   UNK N   1      35.971  14.133  13.505  0.00  0.00     0.000 C 
BRANCH  34  35
HETATM   35  C   UNK N   1      36.708  12.903  14.016  0.00  0.00     0.000 C 
BRANCH  35  36
HETATM   36  C   UNK N   1      36.428  12.650  15.493  0.00  0.00     0.000 C 
BRANCH  36  37
HETATM   37  C   UNK N   1      34.945  12.430  15.773  0.00  0.00     0.000 C 
BRANCH  37  38
HETATM   38  C   UNK N   1      34.559  10.966  15.632  0.00  0.00     0.000 C 
BRANCH  38  39
HETATM   39  C   UNK N   1      33.697  10.745  14.399  0.00  0.00    -0.000 C 
BRANCH  39  40
HETATM   40  C   UNK N   1      34.500  10.056  13.310  0.00  0.00    -0.005 C 
HETATM   41  C   UNK N   1      33.742  10.070  11.995  0.00  0.00     0.005 C 
ENDBRANCH  39  40
ENDBRANCH  38  39
ENDBRANCH  37  38
ENDBRANCH  36  37
ENDBRANCH  35  36
ENDBRANCH  34  35
ENDBRANCH  33  34
ENDBRANCH  32  33
ENDBRANCH  31  32
ENDBRANCH  30  31
ENDBRANCH   5  30
TORSDOF 22
ENDMDL
