MODEL 1
REMARK VINA RESULT:      -5.7      0.000      0.000
REMARK  10 active torsions:
REMARK  status: ('A' for Active; 'I' for Inactive)
REMARK    1  A    between atoms: C_3  and  C_2 
REMARK    2  A    between atoms: C_4  and  C_3 
REMARK    3  A    between atoms: C_5  and  C_4 
REMARK    4  A    between atoms: O_16  and  C_5 
REMARK    5  A    between atoms: C_7  and  C_6 
REMARK    6  A    between atoms: O_12  and  C_6 
REMARK    7  A    between atoms: C_8  and  O_13 
REMARK    8  A    between atoms: C_9  and  O_14 
REMARK    9  A    between atoms: C_10  and  O_15 
REMARK   10  A    between atoms: C_11  and  O_16 
ROOT
HETATM    1  C   UNK N   1      20.572  18.711   3.813  0.00  0.00     0.179 C 
HETATM    2  C   UNK N   1      19.823  19.597   2.783  0.00  0.00     0.180 C 
HETATM    3  C   UNK N   1      20.747  19.948   1.609  0.00  0.00     0.183 C 
HETATM    4  C   UNK N   1      22.026  20.596   2.152  0.00  0.00     0.204 C 
HETATM    5  C   UNK N   1      22.660  19.624   3.176  0.00  0.00     0.291 C 
HETATM    6  O   UNK N   1      21.767  19.338   4.257  0.00  0.00    -0.348 OA
ENDROOT
BRANCH   5   7
HETATM    7  O   UNK N   1      23.913  20.073   3.649  0.00  0.00    -0.359 OA
BRANCH   7   8
HETATM    8  C   UNK N   1      24.784  20.318   2.573  0.00  0.00     0.171 C 
BRANCH   8   9
HETATM    9  C   UNK N   1      26.163  20.686   3.093  0.00  0.00     0.026 C 
BRANCH   9  10
HETATM   10  C   UNK N   1      26.697  19.607   4.015  0.00  0.00     0.002 C 
BRANCH  10  11
HETATM   11  C   UNK N   1      27.604  20.236   5.051  0.00  0.00    -0.004 C 
HETATM   12  C   UNK N   1      26.797  21.166   5.932  0.00  0.00     0.005 C 
ENDBRANCH  10  11
ENDBRANCH   9  10
ENDBRANCH   8   9
ENDBRANCH   7   8
ENDBRANCH   5   7
BRANCH   4  13
HETATM   13  O   UNK N   1      21.720  21.821   2.757  0.00  0.00    -0.388 OA
HETATM   14  H   UNK N   1      21.143  22.470   3.188  0.00  0.00     0.210 HD
ENDBRANCH   4  13
BRANCH   3  15
HETATM   15  O   UNK N   1      20.101  20.819   0.725  0.00  0.00    -0.390 OA
HETATM   16  H   UNK N   1      19.581  20.482  -0.021  0.00  0.00     0.210 HD
ENDBRANCH   3  15
BRANCH   1  17
HETATM   17  C   UNK N   1      20.857  17.277   3.336  0.00  0.00     0.198 C 
BRANCH  17  18
HETATM   18  O   UNK N   1      19.682  16.529   3.254  0.00  0.00    -0.398 OA
HETATM   19  H   UNK N   1      18.885  16.918   2.862  0.00  0.00     0.209 HD
ENDBRANCH  17  18
ENDBRANCH   1  17
BRANCH   2  20
HETATM   20  O   UNK N   1      18.664  18.966   2.322  0.00  0.00    -0.390 OA
HETATM   21  H   UNK N   1      18.028  18.595   2.952  0.00  0.00     0.210 HD
ENDBRANCH   2  20
TORSDOF 10
ENDMDL
MODEL 2
REMARK VINA RESULT:      -5.4      9.341     12.484
REMARK  10 active torsions:
REMARK  status: ('A' for Active; 'I' for Inactive)
REMARK    1  A    between atoms: C_3  and  C_2 
REMARK    2  A    between atoms: C_4  and  C_3 
REMARK    3  A    between atoms: C_5  and  C_4 
REMARK    4  A    between atoms: O_16  and  C_5 
REMARK    5  A    between atoms: C_7  and  C_6 
REMARK    6  A    between atoms: O_12  and  C_6 
REMARK    7  A    between atoms: C_8  and  O_13 
REMARK    8  A    between atoms: C_9  and  O_14 
REMARK    9  A    between atoms: C_10  and  O_15 
REMARK   10  A    between atoms: C_11  and  O_16 
ROOT
HETATM    1  C   UNK N   1      33.839  15.509   8.724  0.00  0.00     0.179 C 
HETATM    2  C   UNK N   1      34.821  16.709   8.776  0.00  0.00     0.180 C 
HETATM    3  C   UNK N   1      34.092  18.012   8.421  0.00  0.00     0.183 C 
HETATM    4  C   UNK N   1      33.404  17.848   7.061  0.00  0.00     0.204 C 
HETATM    5  C   UNK N   1      32.474  16.614   7.137  0.00  0.00     0.291 C 
HETATM    6  O   UNK N   1      33.200  15.423   7.456  0.00  0.00    -0.348 OA
ENDROOT
BRANCH   5   7
HETATM    7  O   UNK N   1      31.697  16.444   5.969  0.00  0.00    -0.359 OA
BRANCH   7   8
HETATM    8  C   UNK N   1      30.503  17.181   6.063  0.00  0.00     0.171 C 
BRANCH   8   9
HETATM    9  C   UNK N   1      29.850  16.944   7.413  0.00  0.00     0.026 C 
BRANCH   9  10
HETATM   10  C   UNK N   1      28.619  17.814   7.576  0.00  0.00     0.002 C 
BRANCH  10  11
HETATM   11  C   UNK N   1      28.568  18.351   8.991  0.00  0.00    -0.004 C 
HETATM   12  C   UNK N   1      29.972  18.669   9.463  0.00  0.00     0.005 C 
ENDBRANCH  10  11
ENDBRANCH   9  10
ENDBRANCH   8   9
ENDBRANCH   7   8
ENDBRANCH   5   7
BRANCH   4  13
HETATM   13  O   UNK N   1      34.365  17.682   6.057  0.00  0.00    -0.388 OA
HETATM   14  H   UNK N   1      34.953  17.976   5.344  0.00  0.00     0.210 HD
ENDBRANCH   4  13
BRANCH   3  15
HETATM   15  O   UNK N   1      34.993  19.080   8.382  0.00  0.00    -0.390 OA
HETATM   16  H   UNK N   1      35.945  18.929   8.265  0.00  0.00     0.210 HD
ENDBRANCH   3  15
BRANCH   1  17
HETATM   17  C   UNK N   1      32.800  15.482   9.857  0.00  0.00     0.198 C 
BRANCH  17  18
HETATM   18  O   UNK N   1      33.359  15.007  11.044  0.00  0.00    -0.398 OA
HETATM   19  H   UNK N   1      32.816  14.943  11.844  0.00  0.00     0.209 HD
ENDBRANCH  17  18
ENDBRANCH   1  17
BRANCH   2  20
HETATM   20  O   UNK N   1      35.424  16.813  10.032  0.00  0.00    -0.390 OA
HETATM   21  H   UNK N   1      35.114  16.264  10.769  0.00  0.00     0.210 HD
ENDBRANCH   2  20
TORSDOF 10
ENDMDL
MODEL 3
REMARK VINA RESULT:      -5.1      6.833      9.800
REMARK  10 active torsions:
REMARK  status: ('A' for Active; 'I' for Inactive)
REMARK    1  A    between atoms: C_3  and  C_2 
REMARK    2  A    between atoms: C_4  and  C_3 
REMARK    3  A    between atoms: C_5  and  C_4 
REMARK    4  A    between atoms: O_16  and  C_5 
REMARK    5  A    between atoms: C_7  and  C_6 
REMARK    6  A    between atoms: O_12  and  C_6 
REMARK    7  A    between atoms: C_8  and  O_13 
REMARK    8  A    between atoms: C_9  and  O_14 
REMARK    9  A    between atoms: C_10  and  O_15 
REMARK   10  A    between atoms: C_11  and  O_16 
ROOT
HETATM    1  C   UNK N   1      28.461  17.274   7.336  0.00  0.00     0.179 C 
HETATM    2  C   UNK N   1      28.501  17.623   8.848  0.00  0.00     0.180 C 
HETATM    3  C   UNK N   1      29.735  18.478   9.166  0.00  0.00     0.183 C 
HETATM    4  C   UNK N   1      30.992  17.749   8.677  0.00  0.00     0.204 C 
HETATM    5  C   UNK N   1      30.816  17.445   7.169  0.00  0.00     0.291 C 
HETATM    6  O   UNK N   1      29.662  16.634   6.925  0.00  0.00    -0.348 OA
ENDROOT
BRANCH   5   7
HETATM    7  O   UNK N   1      31.974  16.879   6.590  0.00  0.00    -0.359 OA
BRANCH   7   8
HETATM    8  C   UNK N   1      31.698  16.422   5.289  0.00  0.00     0.171 C 
BRANCH   8   9
HETATM    9  C   UNK N   1      32.041  17.498   4.275  0.00  0.00     0.026 C 
BRANCH   9  10
HETATM   10  C   UNK N   1      32.505  16.881   2.970  0.00  0.00     0.002 C 
BRANCH  10  11
HETATM   11  C   UNK N   1      32.561  15.375   3.119  0.00  0.00    -0.004 C 
HETATM   12  C   UNK N   1      33.924  14.873   2.690  0.00  0.00     0.005 C 
ENDBRANCH  10  11
ENDBRANCH   9  10
ENDBRANCH   8   9
ENDBRANCH   7   8
ENDBRANCH   5   7
BRANCH   4  13
HETATM   13  O   UNK N   1      31.169  16.565   9.403  0.00  0.00    -0.388 OA
HETATM   14  H   UNK N   1      31.305  15.611   9.511  0.00  0.00     0.210 HD
ENDBRANCH   4  13
BRANCH   3  15
HETATM   15  O   UNK N   1      29.819  18.718  10.541  0.00  0.00    -0.390 OA
HETATM   16  H   UNK N   1      30.565  18.384  11.064  0.00  0.00     0.210 HD
ENDBRANCH   3  15
BRANCH   1  17
HETATM   17  C   UNK N   1      28.136  18.461   6.414  0.00  0.00     0.198 C 
BRANCH  17  18
HETATM   18  O   UNK N   1      26.780  18.786   6.468  0.00  0.00    -0.398 OA
HETATM   19  H   UNK N   1      26.150  18.337   5.884  0.00  0.00     0.209 HD
ENDBRANCH  17  18
ENDBRANCH   1  17
BRANCH   2  20
HETATM   20  O   UNK N   1      27.334  18.281   9.245  0.00  0.00    -0.390 OA
HETATM   21  H   UNK N   1      26.512  18.158   8.746  0.00  0.00     0.210 HD
ENDBRANCH   2  20
TORSDOF 10
ENDMDL
MODEL 4
REMARK VINA RESULT:      -5.0     14.937     18.215
REMARK  10 active torsions:
REMARK  status: ('A' for Active; 'I' for Inactive)
REMARK    1  A    between atoms: C_3  and  C_2 
REMARK    2  A    between atoms: C_4  and  C_3 
REMARK    3  A    between atoms: C_5  and  C_4 
REMARK    4  A    between atoms: O_16  and  C_5 
REMARK    5  A    between atoms: C_7  and  C_6 
REMARK    6  A    between atoms: O_12  and  C_6 
REMARK    7  A    between atoms: C_8  and  O_13 
REMARK    8  A    between atoms: C_9  and  O_14 
REMARK    9  A    between atoms: C_10  and  O_15 
REMARK   10  A    between atoms: C_11  and  O_16 
ROOT
HETATM    1  C   UNK N   1      35.129  14.895  11.870  0.00  0.00     0.179 C 
HETATM    2  C   UNK N   1      36.655  14.786  11.608  0.00  0.00     0.180 C 
HETATM    3  C   UNK N   1      37.047  13.327  11.337  0.00  0.00     0.183 C 
HETATM    4  C   UNK N   1      36.565  12.453  12.501  0.00  0.00     0.204 C 
HETATM    5  C   UNK N   1      35.041  12.669  12.666  0.00  0.00     0.291 C 
HETATM    6  O   UNK N   1      34.728  14.039  12.931  0.00  0.00    -0.348 OA
ENDROOT
BRANCH   5   7
HETATM    7  O   UNK N   1      34.473  11.815  13.638  0.00  0.00    -0.359 OA
BRANCH   7   8
HETATM    8  C   UNK N   1      34.681  10.469  13.289  0.00  0.00     0.171 C 
BRANCH   8   9
HETATM    9  C   UNK N   1      35.100   9.673  14.513  0.00  0.00     0.026 C 
BRANCH   9  10
HETATM   10  C   UNK N   1      34.482  10.252  15.771  0.00  0.00     0.002 C 
BRANCH  10  11
HETATM   11  C   UNK N   1      35.581  10.706  16.708  0.00  0.00    -0.004 C 
HETATM   12  C   UNK N   1      35.367  12.159  17.075  0.00  0.00     0.005 C 
ENDBRANCH  10  11
ENDBRANCH   9  10
ENDBRANCH   8   9
ENDBRANCH   7   8
ENDBRANCH   5   7
BRANCH   4  13
HETATM   13  O   UNK N   1      37.244  12.803  13.674  0.00  0.00    -0.388 OA
HETATM   14  H   UNK N   1      37.360  13.262  14.520  0.00  0.00     0.210 HD
ENDBRANCH   4  13
BRANCH   3  15
HETATM   15  O   UNK N   1      38.432  13.214  11.189  0.00  0.00    -0.390 OA
HETATM   16  H   UNK N   1      39.032  13.401  11.928  0.00  0.00     0.210 HD
ENDBRANCH   3  15
BRANCH   1  17
HETATM   17  C   UNK N   1      34.249  14.670  10.628  0.00  0.00     0.198 C 
BRANCH  17  18
HETATM   18  O   UNK N   1      32.916  14.989  10.890  0.00  0.00    -0.398 OA
HETATM   19  H   UNK N   1      32.688  15.857  11.255  0.00  0.00     0.209 HD
ENDBRANCH  17  18
ENDBRANCH   1  17
BRANCH   2  20
HETATM   20  O   UNK N   1      37.045  15.602  10.543  0.00  0.00    -0.390 OA
HETATM   21  H   UNK N   1      37.613  15.249   9.841  0.00  0.00     0.210 HD
ENDBRANCH   2  20
TORSDOF 10
ENDMDL
MODEL 5
REMARK VINA RESULT:      -5.0      7.562      9.696
REMARK  10 active torsions:
REMARK  status: ('A' for Active; 'I' for Inactive)
REMARK    1  A    between atoms: C_3  and  C_2 
REMARK    2  A    between atoms: C_4  and  C_3 
REMARK    3  A    between atoms: C_5  and  C_4 
REMARK    4  A    between atoms: O_16  and  C_5 
REMARK    5  A    between atoms: C_7  and  C_6 
REMARK    6  A    between atoms: O_12  and  C_6 
REMARK    7  A    between atoms: C_8  and  O_13 
REMARK    8  A    between atoms: C_9  and  O_14 
REMARK    9  A    between atoms: C_10  and  O_15 
REMARK   10  A    between atoms: C_11  and  O_16 
ROOT
HETATM    1  C   UNK N   1      29.363  16.681   6.611  0.00  0.00     0.179 C 
HETATM    2  C   UNK N   1      28.192  16.981   7.585  0.00  0.00     0.180 C 
HETATM    3  C   UNK N   1      28.512  18.215   8.440  0.00  0.00     0.183 C 
HETATM    4  C   UNK N   1      29.853  18.000   9.151  0.00  0.00     0.204 C 
HETATM    5  C   UNK N   1      30.923  17.691   8.076  0.00  0.00     0.291 C 
HETATM    6  O   UNK N   1      30.588  16.527   7.315  0.00  0.00    -0.348 OA
ENDROOT
BRANCH   5   7
HETATM    7  O   UNK N   1      32.226  17.596   8.616  0.00  0.00    -0.359 OA
BRANCH   7   8
HETATM    8  C   UNK N   1      33.177  18.043   7.683  0.00  0.00     0.171 C 
BRANCH   8   9
HETATM    9  C   UNK N   1      34.133  16.915   7.333  0.00  0.00     0.026 C 
BRANCH   9  10
HETATM   10  C   UNK N   1      34.028  16.557   5.863  0.00  0.00     0.002 C 
BRANCH  10  11
HETATM   11  C   UNK N   1      33.222  17.618   5.144  0.00  0.00    -0.004 C 
HETATM   12  C   UNK N   1      32.830  17.112   3.771  0.00  0.00     0.005 C 
ENDBRANCH  10  11
ENDBRANCH   9  10
ENDBRANCH   8   9
ENDBRANCH   7   8
ENDBRANCH   5   7
BRANCH   4  13
HETATM   13  O   UNK N   1      29.747  16.941  10.060  0.00  0.00    -0.388 OA
HETATM   14  H   UNK N   1      30.059  16.349  10.762  0.00  0.00     0.210 HD
ENDBRANCH   4  13
BRANCH   3  15
HETATM   15  O   UNK N   1      27.498  18.434   9.377  0.00  0.00    -0.390 OA
HETATM   16  H   UNK N   1      27.663  18.335  10.328  0.00  0.00     0.210 HD
ENDBRANCH   3  15
BRANCH   1  17
HETATM   17  C   UNK N   1      29.519  17.695   5.466  0.00  0.00     0.198 C 
BRANCH  17  18
HETATM   18  O   UNK N   1      28.552  17.494   4.479  0.00  0.00    -0.398 OA
HETATM   19  H   UNK N   1      28.819  17.398   3.552  0.00  0.00     0.209 HD
ENDBRANCH  17  18
ENDBRANCH   1  17
BRANCH   2  20
HETATM   20  O   UNK N   1      26.993  17.165   6.891  0.00  0.00    -0.390 OA
HETATM   21  H   UNK N   1      26.514  18.006   6.959  0.00  0.00     0.210 HD
ENDBRANCH   2  20
TORSDOF 10
ENDMDL
MODEL 6
REMARK VINA RESULT:      -4.9     10.036     12.134
REMARK  10 active torsions:
REMARK  status: ('A' for Active; 'I' for Inactive)
REMARK    1  A    between atoms: C_3  and  C_2 
REMARK    2  A    between atoms: C_4  and  C_3 
REMARK    3  A    between atoms: C_5  and  C_4 
REMARK    4  A    between atoms: O_16  and  C_5 
REMARK    5  A    between atoms: C_7  and  C_6 
REMARK    6  A    between atoms: O_12  and  C_6 
REMARK    7  A    between atoms: C_8  and  O_13 
REMARK    8  A    between atoms: C_9  and  O_14 
REMARK    9  A    between atoms: C_10  and  O_15 
REMARK   10  A    between atoms: C_11  and  O_16 
ROOT
HETATM    1  C   UNK N   1      31.938  21.536  -4.513  0.00  0.00     0.179 C 
HETATM    2  C   UNK N   1      31.901  22.127  -3.079  0.00  0.00     0.180 C 
HETATM    3  C   UNK N   1      30.453  22.392  -2.647  0.00  0.00     0.183 C 
HETATM    4  C   UNK N   1      29.772  23.286  -3.691  0.00  0.00     0.204 C 
HETATM    5  C   UNK N   1      29.896  22.595  -5.070  0.00  0.00     0.291 C 
HETATM    6  O   UNK N   1      31.263  22.383  -5.434  0.00  0.00    -0.348 OA
ENDROOT
BRANCH   5   7
HETATM    7  O   UNK N   1      29.193  23.280  -6.087  0.00  0.00    -0.359 OA
BRANCH   7   8
HETATM    8  C   UNK N   1      28.260  22.426  -6.699  0.00  0.00     0.171 C 
BRANCH   8   9
HETATM    9  C   UNK N   1      27.051  23.220  -7.161  0.00  0.00     0.026 C 
BRANCH   9  10
HETATM   10  C   UNK N   1      25.943  23.165  -6.127  0.00  0.00     0.002 C 
BRANCH  10  11
HETATM   11  C   UNK N   1      25.805  24.521  -5.466  0.00  0.00    -0.004 C 
HETATM   12  C   UNK N   1      26.272  24.433  -4.028  0.00  0.00     0.005 C 
ENDBRANCH  10  11
ENDBRANCH   9  10
ENDBRANCH   8   9
ENDBRANCH   7   8
ENDBRANCH   5   7
BRANCH   4  13
HETATM   13  O   UNK N   1      30.384  24.545  -3.712  0.00  0.00    -0.388 OA
HETATM   14  H   UNK N   1      31.124  25.165  -3.621  0.00  0.00     0.210 HD
ENDBRANCH   4  13
BRANCH   3  15
HETATM   15  O   UNK N   1      30.423  23.006  -1.391  0.00  0.00    -0.390 OA
HETATM   16  H   UNK N   1      29.627  22.979  -0.838  0.00  0.00     0.210 HD
ENDBRANCH   3  15
BRANCH   1  17
HETATM   17  C   UNK N   1      31.420  20.092  -4.624  0.00  0.00     0.198 C 
BRANCH  17  18
HETATM   18  O   UNK N   1      32.327  19.187  -4.072  0.00  0.00    -0.398 OA
HETATM   19  H   UNK N   1      32.371  18.279  -4.408  0.00  0.00     0.209 HD
ENDBRANCH  17  18
ENDBRANCH   1  17
BRANCH   2  20
HETATM   20  O   UNK N   1      32.536  21.280  -2.167  0.00  0.00    -0.390 OA
HETATM   21  H   UNK N   1      33.397  20.890  -2.383  0.00  0.00     0.210 HD
ENDBRANCH   2  20
TORSDOF 10
ENDMDL
MODEL 7
REMARK VINA RESULT:      -4.9      1.323      3.011
REMARK  10 active torsions:
REMARK  status: ('A' for Active; 'I' for Inactive)
REMARK    1  A    between atoms: C_3  and  C_2 
REMARK    2  A    between atoms: C_4  and  C_3 
REMARK    3  A    between atoms: C_5  and  C_4 
REMARK    4  A    between atoms: O_16  and  C_5 
REMARK    5  A    between atoms: C_7  and  C_6 
REMARK    6  A    between atoms: O_12  and  C_6 
REMARK    7  A    between atoms: C_8  and  O_13 
REMARK    8  A    between atoms: C_9  and  O_14 
REMARK    9  A    between atoms: C_10  and  O_15 
REMARK   10  A    between atoms: C_11  and  O_16 
ROOT
HETATM    1  C   UNK N   1      20.716  19.360   2.361  0.00  0.00     0.179 C 
HETATM    2  C   UNK N   1      19.694  18.216   2.598  0.00  0.00     0.180 C 
HETATM    3  C   UNK N   1      19.830  17.666   4.025  0.00  0.00     0.183 C 
HETATM    4  C   UNK N   1      21.284  17.243   4.264  0.00  0.00     0.204 C 
HETATM    5  C   UNK N   1      22.194  18.461   3.976  0.00  0.00     0.291 C 
HETATM    6  O   UNK N   1      22.043  18.927   2.632  0.00  0.00    -0.348 OA
ENDROOT
BRANCH   5   7
HETATM    7  O   UNK N   1      23.550  18.213   4.284  0.00  0.00    -0.359 OA
BRANCH   7   8
HETATM    8  C   UNK N   1      24.367  19.230   3.760  0.00  0.00     0.171 C 
BRANCH   8   9
HETATM    9  C   UNK N   1      25.828  18.828   3.861  0.00  0.00     0.026 C 
BRANCH   9  10
HETATM   10  C   UNK N   1      26.732  20.033   3.683  0.00  0.00     0.002 C 
BRANCH  10  11
HETATM   11  C   UNK N   1      27.684  20.124   4.856  0.00  0.00    -0.004 C 
HETATM   12  C   UNK N   1      27.205  21.193   5.816  0.00  0.00     0.005 C 
ENDBRANCH  10  11
ENDBRANCH   9  10
ENDBRANCH   8   9
ENDBRANCH   7   8
ENDBRANCH   5   7
BRANCH   4  13
HETATM   13  O   UNK N   1      21.613  16.171   3.426  0.00  0.00    -0.388 OA
HETATM   14  H   UNK N   1      21.442  15.502   2.745  0.00  0.00     0.210 HD
ENDBRANCH   4  13
BRANCH   3  15
HETATM   15  O   UNK N   1      18.972  16.578   4.211  0.00  0.00    -0.390 OA
HETATM   16  H   UNK N   1      19.075  15.764   3.694  0.00  0.00     0.210 HD
ENDBRANCH   3  15
BRANCH   1  17
HETATM   17  C   UNK N   1      20.405  20.662   3.116  0.00  0.00     0.198 C 
BRANCH  17  18
HETATM   18  O   UNK N   1      21.323  21.663   2.797  0.00  0.00    -0.398 OA
HETATM   19  H   UNK N   1      22.203  21.426   2.468  0.00  0.00     0.209 HD
ENDBRANCH  17  18
ENDBRANCH   1  17
BRANCH   2  20
HETATM   20  O   UNK N   1      18.387  18.649   2.363  0.00  0.00    -0.390 OA
HETATM   21  H   UNK N   1      17.836  18.200   1.705  0.00  0.00     0.210 HD
ENDBRANCH   2  20
TORSDOF 10
ENDMDL
MODEL 8
REMARK VINA RESULT:      -4.9     10.100     12.966
REMARK  10 active torsions:
REMARK  status: ('A' for Active; 'I' for Inactive)
REMARK    1  A    between atoms: C_3  and  C_2 
REMARK    2  A    between atoms: C_4  and  C_3 
REMARK    3  A    between atoms: C_5  and  C_4 
REMARK    4  A    between atoms: O_16  and  C_5 
REMARK    5  A    between atoms: C_7  and  C_6 
REMARK    6  A    between atoms: O_12  and  C_6 
REMARK    7  A    between atoms: C_8  and  O_13 
REMARK    8  A    between atoms: C_9  and  O_14 
REMARK    9  A    between atoms: C_10  and  O_15 
REMARK   10  A    between atoms: C_11  and  O_16 
ROOT
HETATM    1  C   UNK N   1      34.131  15.492   8.932  0.00  0.00     0.179 C 
HETATM    2  C   UNK N   1      34.930  16.823   8.933  0.00  0.00     0.180 C 
HETATM    3  C   UNK N   1      34.046  17.977   8.442  0.00  0.00     0.183 C 
HETATM    4  C   UNK N   1      33.466  17.617   7.069  0.00  0.00     0.204 C 
HETATM    5  C   UNK N   1      32.716  16.270   7.201  0.00  0.00     0.291 C 
HETATM    6  O   UNK N   1      33.584  15.224   7.648  0.00  0.00    -0.348 OA
ENDROOT
BRANCH   5   7
HETATM    7  O   UNK N   1      32.039  15.905   6.016  0.00  0.00    -0.359 OA
BRANCH   7   8
HETATM    8  C   UNK N   1      32.677  14.813   5.403  0.00  0.00     0.171 C 
BRANCH   8   9
HETATM    9  C   UNK N   1      32.349  14.783   3.920  0.00  0.00     0.026 C 
BRANCH   9  10
HETATM   10  C   UNK N   1      33.125  15.853   3.176  0.00  0.00     0.002 C 
BRANCH  10  11
HETATM   11  C   UNK N   1      32.207  17.019   2.872  0.00  0.00    -0.004 C 
HETATM   12  C   UNK N   1      30.780  16.525   2.763  0.00  0.00     0.005 C 
ENDBRANCH  10  11
ENDBRANCH   9  10
ENDBRANCH   8   9
ENDBRANCH   7   8
ENDBRANCH   5   7
BRANCH   4  13
HETATM   13  O   UNK N   1      34.497  17.519   6.127  0.00  0.00    -0.388 OA
HETATM   14  H   UNK N   1      35.404  17.348   5.830  0.00  0.00     0.210 HD
ENDBRANCH   4  13
BRANCH   3  15
HETATM   15  O   UNK N   1      34.789  19.158   8.359  0.00  0.00    -0.390 OA
HETATM   16  H   UNK N   1      34.354  20.026   8.361  0.00  0.00     0.210 HD
ENDBRANCH   3  15
BRANCH   1  17
HETATM   17  C   UNK N   1      33.044  15.398  10.015  0.00  0.00     0.198 C 
BRANCH  17  18
HETATM   18  O   UNK N   1      33.574  14.947  11.225  0.00  0.00    -0.398 OA
HETATM   19  H   UNK N   1      33.221  15.281  12.063  0.00  0.00     0.209 HD
ENDBRANCH  17  18
ENDBRANCH   1  17
BRANCH   2  20
HETATM   20  O   UNK N   1      35.440  17.104  10.203  0.00  0.00    -0.390 OA
HETATM   21  H   UNK N   1      35.816  17.977  10.395  0.00  0.00     0.210 HD
ENDBRANCH   2  20
TORSDOF 10
ENDMDL
MODEL 9
REMARK VINA RESULT:      -4.7     14.931     17.266
REMARK  10 active torsions:
REMARK  status: ('A' for Active; 'I' for Inactive)
REMARK    1  A    between atoms: C_3  and  C_2 
REMARK    2  A    between atoms: C_4  and  C_3 
REMARK    3  A    between atoms: C_5  and  C_4 
REMARK    4  A    between atoms: O_16  and  C_5 
REMARK    5  A    between atoms: C_7  and  C_6 
REMARK    6  A    between atoms: O_12  and  C_6 
REMARK    7  A    between atoms: C_8  and  O_13 
REMARK    8  A    between atoms: C_9  and  O_14 
REMARK    9  A    between atoms: C_10  and  O_15 
REMARK   10  A    between atoms: C_11  and  O_16 
ROOT
HETATM    1  C   UNK N   1      36.157  13.179   9.981  0.00  0.00     0.179 C 
HETATM    2  C   UNK N   1      35.421  14.284   9.178  0.00  0.00     0.180 C 
HETATM    3  C   UNK N   1      35.381  15.591   9.982  0.00  0.00     0.183 C 
HETATM    4  C   UNK N   1      34.753  15.318  11.354  0.00  0.00     0.204 C 
HETATM    5  C   UNK N   1      35.564  14.190  12.037  0.00  0.00     0.291 C 
HETATM    6  O   UNK N   1      35.561  12.990  11.258  0.00  0.00    -0.348 OA
ENDROOT
BRANCH   5   7
HETATM    7  O   UNK N   1      35.142  13.943  13.363  0.00  0.00    -0.359 OA
BRANCH   7   8
HETATM    8  C   UNK N   1      36.250  13.869  14.225  0.00  0.00     0.171 C 
BRANCH   8   9
HETATM    9  C   UNK N   1      36.058  12.740  15.223  0.00  0.00     0.026 C 
BRANCH   9  10
HETATM   10  C   UNK N   1      34.790  12.944  16.029  0.00  0.00     0.002 C 
BRANCH  10  11
HETATM   11  C   UNK N   1      35.104  12.798  17.503  0.00  0.00    -0.004 C 
HETATM   12  C   UNK N   1      35.299  14.169  18.118  0.00  0.00     0.005 C 
ENDBRANCH  10  11
ENDBRANCH   9  10
ENDBRANCH   8   9
ENDBRANCH   7   8
ENDBRANCH   5   7
BRANCH   4  13
HETATM   13  O   UNK N   1      33.414  14.940  11.200  0.00  0.00    -0.388 OA
HETATM   14  H   UNK N   1      32.685  14.312  11.085  0.00  0.00     0.210 HD
ENDBRANCH   4  13
BRANCH   3  15
HETATM   15  O   UNK N   1      34.642  16.561   9.297  0.00  0.00    -0.390 OA
HETATM   16  H   UNK N   1      34.121  16.332   8.512  0.00  0.00     0.210 HD
ENDBRANCH   3  15
BRANCH   1  17
HETATM   17  C   UNK N   1      37.674  13.388  10.117  0.00  0.00     0.198 C 
BRANCH  17  18
HETATM   18  O   UNK N   1      38.328  13.135   8.910  0.00  0.00    -0.398 OA
HETATM   19  H   UNK N   1      39.271  12.909   8.908  0.00  0.00     0.209 HD
ENDBRANCH  17  18
ENDBRANCH   1  17
BRANCH   2  20
HETATM   20  O   UNK N   1      36.027  14.493   7.936  0.00  0.00    -0.390 OA
HETATM   21  H   UNK N   1      36.702  15.181   7.833  0.00  0.00     0.210 HD
ENDBRANCH   2  20
TORSDOF 10
ENDMDL
