MODEL 1
REMARK VINA RESULT:      -4.9      0.000      0.000
REMARK  9 active torsions:
REMARK  status: ('A' for Active; 'I' for Inactive)
REMARK    1  A    between atoms: C_2  and  C_1 
REMARK    2  A    between atoms: S_12  and  C_1 
REMARK    3  A    between atoms: S_13  and  C_2 
REMARK    4  A    between atoms: C_4  and  C_3 
REMARK    5  A    between atoms: S_12  and  C_3 
REMARK    6  A    between atoms: C_5  and  C_4 
REMARK    7  A    between atoms: C_4  and  N_6 
REMARK    8  A    between atoms: O_9  and  C_5 
REMARK    9  A    between atoms: S_13  and  N_7 
ROOT
HETATM    1  C   UNK N   1      34.848  15.846   8.899  0.00  0.00     0.109 C 
ENDROOT
BRANCH   1   2
HETATM    2  C   UNK N   1      34.177  17.194   9.142  0.00  0.00     0.182 C 
BRANCH   2   3
HETATM    3  C   UNK N   1      34.662  18.223   8.150  0.00  0.00     0.163 C 
HETATM    4  O   UNK N   1      34.423  18.096   6.957  0.00  0.00    -0.648 OA
BRANCH   3   5
HETATM    5  O   UNK N   1      35.352  19.298   8.575  0.00  0.00    -0.775 OA
HETATM    6  H   UNK N   1      35.702  19.907   7.954  0.00  0.00     0.167 HD
ENDBRANCH   3   5
ENDBRANCH   2   3
BRANCH   2   7
HETATM    7  N   UNK N   1      32.739  17.017   9.026  0.00  0.00    -0.417 N 
HETATM    8  H   UNK N   1      32.161  16.976   9.865  0.00  0.00     0.150 HD
HETATM    9  H   UNK N   1      32.308  16.934   8.105  0.00  0.00     0.150 HD
ENDBRANCH   2   7
ENDBRANCH   1   2
BRANCH   1  10
HETATM   10  S   UNK N   1      35.990  15.412  10.248  0.00  0.00    -0.166 SA
BRANCH  10  11
HETATM   11  C   UNK N   1      34.636  14.743  11.263  0.00  0.00     0.090 C 
BRANCH  11  12
HETATM   12  C   UNK N   1      35.154  13.612  12.140  0.00  0.00     0.173 C 
BRANCH  12  13
HETATM   13  S   UNK N   1      36.238  14.280  13.444  0.00  0.00     0.225 S 
HETATM   14  O   UNK N   1      36.930  13.114  12.723  0.00  0.00    -0.206 OA
HETATM   15  O   UNK N   1      35.041  13.569  14.093  0.00  0.00    -0.206 OA
BRANCH  13  16
HETATM   16  N   UNK N   1      37.021  13.403  14.758  0.00  0.00    -0.328 N 
HETATM   17  H   UNK N   1      36.503  12.931  15.499  0.00  0.00     0.168 HD
HETATM   18  H   UNK N   1      38.040  13.365  14.778  0.00  0.00     0.168 HD
ENDBRANCH  13  16
ENDBRANCH  12  13
ENDBRANCH  11  12
ENDBRANCH  10  11
ENDBRANCH   1  10
TORSDOF 9
ENDMDL
MODEL 2
REMARK VINA RESULT:      -4.7      3.304      5.241
REMARK  9 active torsions:
REMARK  status: ('A' for Active; 'I' for Inactive)
REMARK    1  A    between atoms: C_2  and  C_1 
REMARK    2  A    between atoms: S_12  and  C_1 
REMARK    3  A    between atoms: S_13  and  C_2 
REMARK    4  A    between atoms: C_4  and  C_3 
REMARK    5  A    between atoms: S_12  and  C_3 
REMARK    6  A    between atoms: C_5  and  C_4 
REMARK    7  A    between atoms: C_4  and  N_6 
REMARK    8  A    between atoms: O_9  and  C_5 
REMARK    9  A    between atoms: S_13  and  N_7 
ROOT
HETATM    1  C   UNK N   1      35.190  13.956   9.596  0.00  0.00     0.109 C 
ENDROOT
BRANCH   1   2
HETATM    2  C   UNK N   1      34.861  14.780  10.837  0.00  0.00     0.182 C 
BRANCH   2   3
HETATM    3  C   UNK N   1      35.629  16.080  10.839  0.00  0.00     0.163 C 
HETATM    4  O   UNK N   1      36.849  16.080  10.755  0.00  0.00    -0.648 OA
BRANCH   3   5
HETATM    5  O   UNK N   1      34.972  17.252  10.920  0.00  0.00    -0.775 OA
HETATM    6  H   UNK N   1      34.756  17.725  10.141  0.00  0.00     0.167 HD
ENDBRANCH   3   5
ENDBRANCH   2   3
BRANCH   2   7
HETATM    7  N   UNK N   1      33.431  15.037  10.851  0.00  0.00    -0.417 N 
HETATM    8  H   UNK N   1      33.084  15.983  11.007  0.00  0.00     0.150 HD
HETATM    9  H   UNK N   1      32.773  14.271  10.704  0.00  0.00     0.150 HD
ENDBRANCH   2   7
ENDBRANCH   1   2
BRANCH   1  10
HETATM   10  S   UNK N   1      33.745  13.788   8.501  0.00  0.00    -0.166 SA
BRANCH  10  11
HETATM   11  C   UNK N   1      34.239  15.241   7.524  0.00  0.00     0.090 C 
BRANCH  11  12
HETATM   12  C   UNK N   1      33.025  16.116   7.243  0.00  0.00     0.173 C 
BRANCH  12  13
HETATM   13  S   UNK N   1      33.483  17.876   7.370  0.00  0.00     0.225 S 
HETATM   14  O   UNK N   1      34.723  17.025   7.059  0.00  0.00    -0.206 OA
HETATM   15  O   UNK N   1      33.093  17.351   8.760  0.00  0.00    -0.206 OA
BRANCH  13  16
HETATM   16  N   UNK N   1      34.732  18.601   8.382  0.00  0.00    -0.328 N 
HETATM   17  H   UNK N   1      34.947  19.598   8.373  0.00  0.00     0.168 HD
HETATM   18  H   UNK N   1      35.264  17.995   9.005  0.00  0.00     0.168 HD
ENDBRANCH  13  16
ENDBRANCH  12  13
ENDBRANCH  11  12
ENDBRANCH  10  11
ENDBRANCH   1  10
TORSDOF 9
ENDMDL
MODEL 3
REMARK VINA RESULT:      -4.7     13.478     15.184
REMARK  9 active torsions:
REMARK  status: ('A' for Active; 'I' for Inactive)
REMARK    1  A    between atoms: C_2  and  C_1 
REMARK    2  A    between atoms: S_12  and  C_1 
REMARK    3  A    between atoms: S_13  and  C_2 
REMARK    4  A    between atoms: C_4  and  C_3 
REMARK    5  A    between atoms: S_12  and  C_3 
REMARK    6  A    between atoms: C_5  and  C_4 
REMARK    7  A    between atoms: C_4  and  N_6 
REMARK    8  A    between atoms: O_9  and  C_5 
REMARK    9  A    between atoms: S_13  and  N_7 
ROOT
HETATM    1  C   UNK N   1      22.617  12.995   9.982  0.00  0.00     0.109 C 
ENDROOT
BRANCH   1   2
HETATM    2  C   UNK N   1      22.640  11.882  11.025  0.00  0.00     0.182 C 
BRANCH   2   3
HETATM    3  C   UNK N   1      23.764  12.091  12.010  0.00  0.00     0.163 C 
HETATM    4  O   UNK N   1      23.558  12.014  13.212  0.00  0.00    -0.648 OA
BRANCH   3   5
HETATM    5  O   UNK N   1      25.009  12.352  11.568  0.00  0.00    -0.775 OA
HETATM    6  H   UNK N   1      25.381  13.204  11.687  0.00  0.00     0.167 HD
ENDBRANCH   3   5
ENDBRANCH   2   3
BRANCH   2   7
HETATM    7  N   UNK N   1      21.359  11.874  11.713  0.00  0.00    -0.417 N 
HETATM    8  H   UNK N   1      20.830  11.007  11.794  0.00  0.00     0.150 HD
HETATM    9  H   UNK N   1      20.991  12.736  12.116  0.00  0.00     0.150 HD
ENDBRANCH   2   7
ENDBRANCH   1   2
BRANCH   1  10
HETATM   10  S   UNK N   1      20.949  13.697   9.786  0.00  0.00    -0.166 SA
BRANCH  10  11
HETATM   11  C   UNK N   1      21.494  14.777   8.427  0.00  0.00     0.090 C 
BRANCH  11  12
HETATM   12  C   UNK N   1      20.289  15.443   7.777  0.00  0.00     0.173 C 
BRANCH  12  13
HETATM   13  S   UNK N   1      19.282  16.283   9.043  0.00  0.00     0.225 S 
HETATM   14  O   UNK N   1      18.571  16.329   7.682  0.00  0.00    -0.206 OA
HETATM   15  O   UNK N   1      20.541  17.117   8.757  0.00  0.00    -0.206 OA
BRANCH  13  16
HETATM   16  N   UNK N   1      18.618  17.916   8.991  0.00  0.00    -0.328 N 
HETATM   17  H   UNK N   1      19.032  18.669   8.442  0.00  0.00     0.168 HD
HETATM   18  H   UNK N   1      17.780  18.116   9.536  0.00  0.00     0.168 HD
ENDBRANCH  13  16
ENDBRANCH  12  13
ENDBRANCH  11  12
ENDBRANCH  10  11
ENDBRANCH   1  10
TORSDOF 9
ENDMDL
MODEL 4
REMARK VINA RESULT:      -4.7      1.854      2.102
REMARK  9 active torsions:
REMARK  status: ('A' for Active; 'I' for Inactive)
REMARK    1  A    between atoms: C_2  and  C_1 
REMARK    2  A    between atoms: S_12  and  C_1 
REMARK    3  A    between atoms: S_13  and  C_2 
REMARK    4  A    between atoms: C_4  and  C_3 
REMARK    5  A    between atoms: S_12  and  C_3 
REMARK    6  A    between atoms: C_5  and  C_4 
REMARK    7  A    between atoms: C_4  and  N_6 
REMARK    8  A    between atoms: O_9  and  C_5 
REMARK    9  A    between atoms: S_13  and  N_7 
ROOT
HETATM    1  C   UNK N   1      33.996  15.731   8.925  0.00  0.00     0.109 C 
ENDROOT
BRANCH   1   2
HETATM    2  C   UNK N   1      34.952  16.887   9.201  0.00  0.00     0.182 C 
BRANCH   2   3
HETATM    3  C   UNK N   1      34.515  18.133   8.471  0.00  0.00     0.163 C 
HETATM    4  O   UNK N   1      33.449  18.160   7.872  0.00  0.00    -0.648 OA
BRANCH   3   5
HETATM    5  O   UNK N   1      35.293  19.232   8.484  0.00  0.00    -0.775 OA
HETATM    6  H   UNK N   1      35.245  19.833   9.201  0.00  0.00     0.167 HD
ENDBRANCH   3   5
ENDBRANCH   2   3
BRANCH   2   7
HETATM    7  N   UNK N   1      34.982  17.125  10.635  0.00  0.00    -0.417 N 
HETATM    8  H   UNK N   1      34.533  17.953  11.023  0.00  0.00     0.150 HD
HETATM    9  H   UNK N   1      35.452  16.463  11.252  0.00  0.00     0.150 HD
ENDBRANCH   2   7
ENDBRANCH   1   2
BRANCH   1  10
HETATM   10  S   UNK N   1      34.771  14.451   7.889  0.00  0.00    -0.166 SA
BRANCH  10  11
HETATM   11  C   UNK N   1      35.807  13.873   9.270  0.00  0.00     0.090 C 
BRANCH  11  12
HETATM   12  C   UNK N   1      34.927  13.461  10.442  0.00  0.00     0.173 C 
BRANCH  12  13
HETATM   13  S   UNK N   1      35.889  13.507  11.990  0.00  0.00     0.225 S 
HETATM   14  O   UNK N   1      34.587  14.306  12.149  0.00  0.00    -0.206 OA
HETATM   15  O   UNK N   1      36.619  14.325  10.913  0.00  0.00    -0.206 OA
BRANCH  13  16
HETATM   16  N   UNK N   1      36.397  14.925  12.908  0.00  0.00    -0.328 N 
HETATM   17  H   UNK N   1      35.935  15.228  13.765  0.00  0.00     0.168 HD
HETATM   18  H   UNK N   1      37.189  15.467  12.565  0.00  0.00     0.168 HD
ENDBRANCH  13  16
ENDBRANCH  12  13
ENDBRANCH  11  12
ENDBRANCH  10  11
ENDBRANCH   1  10
TORSDOF 9
ENDMDL
MODEL 5
REMARK VINA RESULT:      -4.6      4.663      6.885
REMARK  9 active torsions:
REMARK  status: ('A' for Active; 'I' for Inactive)
REMARK    1  A    between atoms: C_2  and  C_1 
REMARK    2  A    between atoms: S_12  and  C_1 
REMARK    3  A    between atoms: S_13  and  C_2 
REMARK    4  A    between atoms: C_4  and  C_3 
REMARK    5  A    between atoms: S_12  and  C_3 
REMARK    6  A    between atoms: C_5  and  C_4 
REMARK    7  A    between atoms: C_4  and  N_6 
REMARK    8  A    between atoms: O_9  and  C_5 
REMARK    9  A    between atoms: S_13  and  N_7 
ROOT
HETATM    1  C   UNK N   1      33.056  16.159   8.370  0.00  0.00     0.109 C 
ENDROOT
BRANCH   1   2
HETATM    2  C   UNK N   1      34.430  16.762   8.647  0.00  0.00     0.182 C 
BRANCH   2   3
HETATM    3  C   UNK N   1      34.640  18.017   7.836  0.00  0.00     0.163 C 
HETATM    4  O   UNK N   1      34.431  18.019   6.631  0.00  0.00    -0.648 OA
BRANCH   3   5
HETATM    5  O   UNK N   1      35.048  19.150   8.437  0.00  0.00    -0.775 OA
HETATM    6  H   UNK N   1      34.735  19.367   9.293  0.00  0.00     0.167 HD
ENDBRANCH   3   5
ENDBRANCH   2   3
BRANCH   2   7
HETATM    7  N   UNK N   1      34.522  17.057  10.068  0.00  0.00    -0.417 N 
HETATM    8  H   UNK N   1      35.425  17.016  10.539  0.00  0.00     0.150 HD
HETATM    9  H   UNK N   1      33.684  17.304  10.593  0.00  0.00     0.150 HD
ENDBRANCH   2   7
ENDBRANCH   1   2
BRANCH   1  10
HETATM   10  S   UNK N   1      31.738  17.408   8.489  0.00  0.00    -0.166 SA
BRANCH  10  11
HETATM   11  C   UNK N   1      30.895  16.749   7.018  0.00  0.00     0.090 C 
BRANCH  11  12
HETATM   12  C   UNK N   1      29.492  17.331   6.919  0.00  0.00     0.173 C 
BRANCH  12  13
HETATM   13  S   UNK N   1      29.028  18.112   8.500  0.00  0.00     0.225 S 
HETATM   14  O   UNK N   1      28.107  16.918   8.205  0.00  0.00    -0.206 OA
HETATM   15  O   UNK N   1      28.677  19.060   7.342  0.00  0.00    -0.206 OA
BRANCH  13  16
HETATM   16  N   UNK N   1      27.439  18.698   8.994  0.00  0.00    -0.328 N 
HETATM   17  H   UNK N   1      26.972  18.390   9.846  0.00  0.00     0.168 HD
HETATM   18  H   UNK N   1      26.966  19.377   8.399  0.00  0.00     0.168 HD
ENDBRANCH  13  16
ENDBRANCH  12  13
ENDBRANCH  11  12
ENDBRANCH  10  11
ENDBRANCH   1  10
TORSDOF 9
ENDMDL
MODEL 6
REMARK VINA RESULT:      -4.4     15.651     16.299
REMARK  9 active torsions:
REMARK  status: ('A' for Active; 'I' for Inactive)
REMARK    1  A    between atoms: C_2  and  C_1 
REMARK    2  A    between atoms: S_12  and  C_1 
REMARK    3  A    between atoms: S_13  and  C_2 
REMARK    4  A    between atoms: C_4  and  C_3 
REMARK    5  A    between atoms: S_12  and  C_3 
REMARK    6  A    between atoms: C_5  and  C_4 
REMARK    7  A    between atoms: C_4  and  N_6 
REMARK    8  A    between atoms: O_9  and  C_5 
REMARK    9  A    between atoms: S_13  and  N_7 
ROOT
HETATM    1  C   UNK N   1      21.068  18.732   3.871  0.00  0.00     0.109 C 
ENDROOT
BRANCH   1   2
HETATM    2  C   UNK N   1      20.168  19.659   3.059  0.00  0.00     0.182 C 
BRANCH   2   3
HETATM    3  C   UNK N   1      20.982  20.510   2.116  0.00  0.00     0.163 C 
HETATM    4  O   UNK N   1      21.087  20.204   0.937  0.00  0.00    -0.648 OA
BRANCH   3   5
HETATM    5  O   UNK N   1      21.590  21.624   2.566  0.00  0.00    -0.775 OA
HETATM    6  H   UNK N   1      21.796  22.320   1.973  0.00  0.00     0.167 HD
ENDBRANCH   3   5
ENDBRANCH   2   3
BRANCH   2   7
HETATM    7  N   UNK N   1      19.222  18.842   2.315  0.00  0.00    -0.417 N 
HETATM    8  H   UNK N   1      18.401  19.272   1.892  0.00  0.00     0.150 HD
HETATM    9  H   UNK N   1      19.382  17.839   2.217  0.00  0.00     0.150 HD
ENDBRANCH   2   7
ENDBRANCH   1   2
BRANCH   1  10
HETATM   10  S   UNK N   1      20.243  17.154   4.245  0.00  0.00    -0.166 SA
BRANCH  10  11
HETATM   11  C   UNK N   1      20.891  17.147   5.946  0.00  0.00     0.090 C 
BRANCH  11  12
HETATM   12  C   UNK N   1      20.144  16.117   6.782  0.00  0.00     0.173 C 
BRANCH  12  13
HETATM   13  S   UNK N   1      19.987  16.706   8.501  0.00  0.00     0.225 S 
HETATM   14  O   UNK N   1      18.597  16.511   7.876  0.00  0.00    -0.206 OA
HETATM   15  O   UNK N   1      20.559  17.833   7.628  0.00  0.00    -0.206 OA
BRANCH  13  16
HETATM   16  N   UNK N   1      19.083  18.100   9.091  0.00  0.00    -0.328 N 
HETATM   17  H   UNK N   1      18.726  18.170  10.043  0.00  0.00     0.168 HD
HETATM   18  H   UNK N   1      18.909  18.872   8.448  0.00  0.00     0.168 HD
ENDBRANCH  13  16
ENDBRANCH  12  13
ENDBRANCH  11  12
ENDBRANCH  10  11
ENDBRANCH   1  10
TORSDOF 9
ENDMDL
MODEL 7
REMARK VINA RESULT:      -4.3     13.512     15.321
REMARK  9 active torsions:
REMARK  status: ('A' for Active; 'I' for Inactive)
REMARK    1  A    between atoms: C_2  and  C_1 
REMARK    2  A    between atoms: S_12  and  C_1 
REMARK    3  A    between atoms: S_13  and  C_2 
REMARK    4  A    between atoms: C_4  and  C_3 
REMARK    5  A    between atoms: S_12  and  C_3 
REMARK    6  A    between atoms: C_5  and  C_4 
REMARK    7  A    between atoms: C_4  and  N_6 
REMARK    8  A    between atoms: O_9  and  C_5 
REMARK    9  A    between atoms: S_13  and  N_7 
ROOT
HETATM    1  C   UNK N   1      22.656  12.959   9.935  0.00  0.00     0.109 C 
ENDROOT
BRANCH   1   2
HETATM    2  C   UNK N   1      22.732  11.850  10.980  0.00  0.00     0.182 C 
BRANCH   2   3
HETATM    3  C   UNK N   1      23.859  12.102  11.951  0.00  0.00     0.163 C 
HETATM    4  O   UNK N   1      23.674  12.003  13.155  0.00  0.00    -0.648 OA
BRANCH   3   5
HETATM    5  O   UNK N   1      25.084  12.427  11.494  0.00  0.00    -0.775 OA
HETATM    6  H   UNK N   1      25.180  13.082  10.832  0.00  0.00     0.167 HD
ENDBRANCH   3   5
ENDBRANCH   2   3
BRANCH   2   7
HETATM    7  N   UNK N   1      21.460  11.796  11.683  0.00  0.00    -0.417 N 
HETATM    8  H   UNK N   1      21.431  11.933  12.693  0.00  0.00     0.150 HD
HETATM    9  H   UNK N   1      20.599  11.621  11.167  0.00  0.00     0.150 HD
ENDBRANCH   2   7
ENDBRANCH   1   2
BRANCH   1  10
HETATM   10  S   UNK N   1      21.001  13.716   9.879  0.00  0.00    -0.166 SA
BRANCH  10  11
HETATM   11  C   UNK N   1      21.380  14.577   8.322  0.00  0.00     0.090 C 
BRANCH  11  12
HETATM   12  C   UNK N   1      20.588  13.956   7.179  0.00  0.00     0.173 C 
BRANCH  12  13
HETATM   13  S   UNK N   1      20.208  15.222   5.923  0.00  0.00     0.225 S 
HETATM   14  O   UNK N   1      19.533  15.576   7.256  0.00  0.00    -0.206 OA
HETATM   15  O   UNK N   1      19.493  13.912   5.558  0.00  0.00    -0.206 OA
BRANCH  13  16
HETATM   16  N   UNK N   1      18.623  15.814   5.426  0.00  0.00    -0.328 N 
HETATM   17  H   UNK N   1      18.480  16.401   4.605  0.00  0.00     0.168 HD
HETATM   18  H   UNK N   1      17.812  15.556   5.987  0.00  0.00     0.168 HD
ENDBRANCH  13  16
ENDBRANCH  12  13
ENDBRANCH  11  12
ENDBRANCH  10  11
ENDBRANCH   1  10
TORSDOF 9
ENDMDL
MODEL 8
REMARK VINA RESULT:      -4.3      4.978      6.808
REMARK  9 active torsions:
REMARK  status: ('A' for Active; 'I' for Inactive)
REMARK    1  A    between atoms: C_2  and  C_1 
REMARK    2  A    between atoms: S_12  and  C_1 
REMARK    3  A    between atoms: S_13  and  C_2 
REMARK    4  A    between atoms: C_4  and  C_3 
REMARK    5  A    between atoms: S_12  and  C_3 
REMARK    6  A    between atoms: C_5  and  C_4 
REMARK    7  A    between atoms: C_4  and  N_6 
REMARK    8  A    between atoms: O_9  and  C_5 
REMARK    9  A    between atoms: S_13  and  N_7 
ROOT
HETATM    1  C   UNK N   1      32.007  18.036   8.638  0.00  0.00     0.109 C 
ENDROOT
BRANCH   1   2
HETATM    2  C   UNK N   1      33.344  17.318   8.479  0.00  0.00     0.182 C 
BRANCH   2   3
HETATM    3  C   UNK N   1      34.323  18.170   7.709  0.00  0.00     0.163 C 
HETATM    4  O   UNK N   1      34.454  18.027   6.502  0.00  0.00    -0.648 OA
BRANCH   3   5
HETATM    5  O   UNK N   1      35.053  19.104   8.347  0.00  0.00    -0.775 OA
HETATM    6  H   UNK N   1      35.985  19.120   8.250  0.00  0.00     0.167 HD
ENDBRANCH   3   5
ENDBRANCH   2   3
BRANCH   2   7
HETATM    7  N   UNK N   1      33.864  17.020   9.803  0.00  0.00    -0.417 N 
HETATM    8  H   UNK N   1      34.208  17.774  10.397  0.00  0.00     0.150 HD
HETATM    9  H   UNK N   1      33.884  16.057  10.138  0.00  0.00     0.150 HD
ENDBRANCH   2   7
ENDBRANCH   1   2
BRANCH   1  10
HETATM   10  S   UNK N   1      30.605  16.885   8.478  0.00  0.00    -0.166 SA
BRANCH  10  11
HETATM   11  C   UNK N   1      30.494  17.171   6.685  0.00  0.00     0.090 C 
BRANCH  11  12
HETATM   12  C   UNK N   1      30.641  15.852   5.938  0.00  0.00     0.173 C 
BRANCH  12  13
HETATM   13  S   UNK N   1      31.532  16.119   4.370  0.00  0.00     0.225 S 
HETATM   14  O   UNK N   1      32.493  15.589   5.445  0.00  0.00    -0.206 OA
HETATM   15  O   UNK N   1      31.130  17.478   4.965  0.00  0.00    -0.206 OA
BRANCH  13  16
HETATM   16  N   UNK N   1      32.995  17.067   4.103  0.00  0.00    -0.328 N 
HETATM   17  H   UNK N   1      32.981  18.039   3.797  0.00  0.00     0.168 HD
HETATM   18  H   UNK N   1      33.898  16.620   4.262  0.00  0.00     0.168 HD
ENDBRANCH  13  16
ENDBRANCH  12  13
ENDBRANCH  11  12
ENDBRANCH  10  11
ENDBRANCH   1  10
TORSDOF 9
ENDMDL
MODEL 9
REMARK VINA RESULT:      -4.3      2.862      5.721
REMARK  9 active torsions:
REMARK  status: ('A' for Active; 'I' for Inactive)
REMARK    1  A    between atoms: C_2  and  C_1 
REMARK    2  A    between atoms: S_12  and  C_1 
REMARK    3  A    between atoms: S_13  and  C_2 
REMARK    4  A    between atoms: C_4  and  C_3 
REMARK    5  A    between atoms: S_12  and  C_3 
REMARK    6  A    between atoms: C_5  and  C_4 
REMARK    7  A    between atoms: C_4  and  N_6 
REMARK    8  A    between atoms: O_9  and  C_5 
REMARK    9  A    between atoms: S_13  and  N_7 
ROOT
HETATM    1  C   UNK N   1      36.863  12.524  11.537  0.00  0.00     0.109 C 
ENDROOT
BRANCH   1   2
HETATM    2  C   UNK N   1      36.705  13.251  12.869  0.00  0.00     0.182 C 
BRANCH   2   3
HETATM    3  C   UNK N   1      35.253  13.318  13.276  0.00  0.00     0.163 C 
HETATM    4  O   UNK N   1      34.942  13.369  14.458  0.00  0.00    -0.648 OA
BRANCH   3   5
HETATM    5  O   UNK N   1      34.289  13.335  12.337  0.00  0.00    -0.775 OA
HETATM    6  H   UNK N   1      34.378  13.882  11.581  0.00  0.00     0.167 HD
ENDBRANCH   3   5
ENDBRANCH   2   3
BRANCH   2   7
HETATM    7  N   UNK N   1      37.480  12.540  13.874  0.00  0.00    -0.417 N 
HETATM    8  H   UNK N   1      37.479  12.863  14.840  0.00  0.00     0.150 HD
HETATM    9  H   UNK N   1      38.024  11.719  13.610  0.00  0.00     0.150 HD
ENDBRANCH   2   7
ENDBRANCH   1   2
BRANCH   1  10
HETATM   10  S   UNK N   1      37.938  13.445  10.394  0.00  0.00    -0.166 SA
BRANCH  10  11
HETATM   11  C   UNK N   1      36.670  14.724  10.134  0.00  0.00     0.090 C 
BRANCH  11  12
HETATM   12  C   UNK N   1      35.734  14.306   9.008  0.00  0.00     0.173 C 
BRANCH  12  13
HETATM   13  S   UNK N   1      34.127  15.148   9.188  0.00  0.00     0.225 S 
HETATM   14  O   UNK N   1      35.059  15.527  10.348  0.00  0.00    -0.206 OA
HETATM   15  O   UNK N   1      33.941  13.642   9.425  0.00  0.00    -0.206 OA
BRANCH  13  16
HETATM   16  N   UNK N   1      33.051  15.143  10.585  0.00  0.00    -0.328 N 
HETATM   17  H   UNK N   1      32.579  14.304  10.921  0.00  0.00     0.168 HD
HETATM   18  H   UNK N   1      32.894  16.021  11.079  0.00  0.00     0.168 HD
ENDBRANCH  13  16
ENDBRANCH  12  13
ENDBRANCH  11  12
ENDBRANCH  10  11
ENDBRANCH   1  10
TORSDOF 9
ENDMDL
