MODEL 1
REMARK VINA RESULT:      -4.6      0.000      0.000
REMARK  7 active torsions:
REMARK  status: ('A' for Active; 'I' for Inactive)
REMARK    1  A    between atoms: C_2  and  N_1 
REMARK    2  A    between atoms: C_2  and  C_3 
REMARK    3  A    between atoms: C_2  and  C_9 
REMARK    4  A    between atoms: C_3  and  S_4 
REMARK    5  A    between atoms: S_4  and  C_5 
REMARK    6  A    between atoms: C_5  and  C_6 
REMARK       I    between atoms: C_6  and  N_7 
REMARK    7  A    between atoms: C_9  and  O_10 
ROOT
HETATM    1  C   UNK N   1      20.447  19.186   2.166  0.00  0.00     0.182 C 
ENDROOT
BRANCH   1   2
HETATM    2  N   UNK N   1      18.999  19.125   2.290  0.00  0.00    -0.417 N 
HETATM    3  H   UNK N   1      18.484  18.312   1.951  0.00  0.00     0.150 HD
HETATM    4  H   UNK N   1      18.496  19.901   2.720  0.00  0.00     0.150 HD
ENDBRANCH   1   2
BRANCH   1   5
HETATM    5  C   UNK N   1      21.073  19.194   3.554  0.00  0.00     0.110 C 
BRANCH   5   6
HETATM    6  S   UNK N   1      22.015  17.660   3.826  0.00  0.00    -0.157 SA
BRANCH   6   7
HETATM    7  C   UNK N   1      22.412  18.102   5.551  0.00  0.00     0.176 C 
BRANCH   7   8
HETATM    8  C   UNK N   1      21.258  17.908   6.496  0.00  0.00     0.224 C 
HETATM    9  N   UNK N   1      20.590  16.737   6.553  0.00  0.00    -0.369 N 
HETATM   10  H   UNK N   1      19.814  16.639   7.150  0.00  0.00     0.159 HD
HETATM   11  H   UNK N   1      20.880  15.979   5.997  0.00  0.00     0.159 HD
HETATM   12  O   UNK N   1      20.908  18.834   7.209  0.00  0.00    -0.273 OA
ENDBRANCH   7   8
ENDBRANCH   6   7
ENDBRANCH   5   6
ENDBRANCH   1   5
BRANCH   1  13
HETATM   13  C   UNK N   1      20.854  20.403   1.373  0.00  0.00     0.163 C 
HETATM   14  O   UNK N   1      21.427  21.328   1.922  0.00  0.00    -0.648 OA
BRANCH  13  15
HETATM   15  O   UNK N   1      20.610  20.468   0.047  0.00  0.00    -0.775 OA
HETATM   16  H   UNK N   1      20.927  19.813  -0.544  0.00  0.00     0.167 HD
ENDBRANCH  13  15
ENDBRANCH   1  13
TORSDOF 7
ENDMDL
MODEL 2
REMARK VINA RESULT:      -4.5     14.441     15.703
REMARK  7 active torsions:
REMARK  status: ('A' for Active; 'I' for Inactive)
REMARK    1  A    between atoms: C_2  and  N_1 
REMARK    2  A    between atoms: C_2  and  C_3 
REMARK    3  A    between atoms: C_2  and  C_9 
REMARK    4  A    between atoms: C_3  and  S_4 
REMARK    5  A    between atoms: S_4  and  C_5 
REMARK    6  A    between atoms: C_5  and  C_6 
REMARK       I    between atoms: C_6  and  N_7 
REMARK    7  A    between atoms: C_9  and  O_10 
ROOT
HETATM    1  C   UNK N   1      34.003  16.968   8.728  0.00  0.00     0.182 C 
ENDROOT
BRANCH   1   2
HETATM    2  N   UNK N   1      32.634  17.203   9.157  0.00  0.00    -0.417 N 
HETATM    3  H   UNK N   1      32.166  18.082   8.938  0.00  0.00     0.150 HD
HETATM    4  H   UNK N   1      32.138  16.482   9.680  0.00  0.00     0.150 HD
ENDBRANCH   1   2
BRANCH   1   5
HETATM    5  C   UNK N   1      34.886  16.755   9.951  0.00  0.00     0.110 C 
BRANCH   5   6
HETATM    6  S   UNK N   1      34.645  15.075  10.612  0.00  0.00    -0.157 SA
BRANCH   6   7
HETATM    7  C   UNK N   1      35.721  15.389  12.051  0.00  0.00     0.176 C 
BRANCH   7   8
HETATM    8  C   UNK N   1      35.983  14.162  12.879  0.00  0.00     0.224 C 
HETATM    9  N   UNK N   1      37.131  13.464  12.749  0.00  0.00    -0.369 N 
HETATM   10  H   UNK N   1      37.271  12.641  13.272  0.00  0.00     0.159 HD
HETATM   11  H   UNK N   1      37.830  13.778  12.132  0.00  0.00     0.159 HD
HETATM   12  O   UNK N   1      35.134  13.779  13.666  0.00  0.00    -0.273 OA
ENDBRANCH   7   8
ENDBRANCH   6   7
ENDBRANCH   5   6
ENDBRANCH   1   5
BRANCH   1  13
HETATM   13  C   UNK N   1      34.496  18.122   7.890  0.00  0.00     0.163 C 
HETATM   14  O   UNK N   1      35.044  19.073   8.420  0.00  0.00    -0.648 OA
BRANCH  13  15
HETATM   15  O   UNK N   1      34.354  18.102   6.548  0.00  0.00    -0.775 OA
HETATM   16  H   UNK N   1      34.309  17.296   6.071  0.00  0.00     0.167 HD
ENDBRANCH  13  15
ENDBRANCH   1  13
TORSDOF 7
ENDMDL
MODEL 3
REMARK VINA RESULT:      -4.5     12.123     13.711
REMARK  7 active torsions:
REMARK  status: ('A' for Active; 'I' for Inactive)
REMARK    1  A    between atoms: C_2  and  N_1 
REMARK    2  A    between atoms: C_2  and  C_3 
REMARK    3  A    between atoms: C_2  and  C_9 
REMARK    4  A    between atoms: C_3  and  S_4 
REMARK    5  A    between atoms: S_4  and  C_5 
REMARK    6  A    between atoms: C_5  and  C_6 
REMARK       I    between atoms: C_6  and  N_7 
REMARK    7  A    between atoms: C_9  and  O_10 
ROOT
HETATM    1  C   UNK N   1      34.112  17.219   9.117  0.00  0.00     0.182 C 
ENDROOT
BRANCH   1   2
HETATM    2  N   UNK N   1      34.940  17.184  10.311  0.00  0.00    -0.417 N 
HETATM    3  H   UNK N   1      35.899  16.839  10.267  0.00  0.00     0.150 HD
HETATM    4  H   UNK N   1      34.559  17.508  11.200  0.00  0.00     0.150 HD
ENDBRANCH   1   2
BRANCH   1   5
HETATM    5  C   UNK N   1      34.049  15.826   8.505  0.00  0.00     0.110 C 
BRANCH   5   6
HETATM    6  S   UNK N   1      32.454  15.040   8.896  0.00  0.00    -0.157 SA
BRANCH   6   7
HETATM    7  C   UNK N   1      31.867  15.163   7.173  0.00  0.00     0.176 C 
BRANCH   7   8
HETATM    8  C   UNK N   1      31.313  16.517   6.827  0.00  0.00     0.224 C 
HETATM    9  N   UNK N   1      31.771  17.208   5.762  0.00  0.00    -0.369 N 
HETATM   10  H   UNK N   1      31.424  18.110   5.572  0.00  0.00     0.159 HD
HETATM   11  H   UNK N   1      32.453  16.810   5.175  0.00  0.00     0.159 HD
HETATM   12  O   UNK N   1      30.449  17.007   7.535  0.00  0.00    -0.273 OA
ENDBRANCH   7   8
ENDBRANCH   6   7
ENDBRANCH   5   6
ENDBRANCH   1   5
BRANCH   1  13
HETATM   13  C   UNK N   1      34.651  18.227   8.133  0.00  0.00     0.163 C 
HETATM   14  O   UNK N   1      34.467  18.075   6.937  0.00  0.00    -0.648 OA
BRANCH  13  15
HETATM   15  O   UNK N   1      35.321  19.315   8.567  0.00  0.00    -0.775 OA
HETATM   16  H   UNK N   1      36.220  19.460   8.344  0.00  0.00     0.167 HD
ENDBRANCH  13  15
ENDBRANCH   1  13
TORSDOF 7
ENDMDL
MODEL 4
REMARK VINA RESULT:      -4.5     10.629     12.213
REMARK  7 active torsions:
REMARK  status: ('A' for Active; 'I' for Inactive)
REMARK    1  A    between atoms: C_2  and  N_1 
REMARK    2  A    between atoms: C_2  and  C_3 
REMARK    3  A    between atoms: C_2  and  C_9 
REMARK    4  A    between atoms: C_3  and  S_4 
REMARK    5  A    between atoms: S_4  and  C_5 
REMARK    6  A    between atoms: C_5  and  C_6 
REMARK       I    between atoms: C_6  and  N_7 
REMARK    7  A    between atoms: C_9  and  O_10 
ROOT
HETATM    1  C   UNK N   1      33.200  17.772   8.693  0.00  0.00     0.182 C 
ENDROOT
BRANCH   1   2
HETATM    2  N   UNK N   1      33.518  16.512   9.346  0.00  0.00    -0.417 N 
HETATM    3  H   UNK N   1      33.421  15.630   8.844  0.00  0.00     0.150 HD
HETATM    4  H   UNK N   1      33.840  16.512  10.314  0.00  0.00     0.150 HD
ENDBRANCH   1   2
BRANCH   1   5
HETATM    5  C   UNK N   1      31.987  17.582   7.793  0.00  0.00     0.110 C 
BRANCH   5   6
HETATM    6  S   UNK N   1      30.532  17.127   8.789  0.00  0.00    -0.157 SA
BRANCH   6   7
HETATM    7  C   UNK N   1      29.366  17.602   7.469  0.00  0.00     0.176 C 
BRANCH   7   8
HETATM    8  C   UNK N   1      28.320  18.583   7.922  0.00  0.00     0.224 C 
HETATM    9  N   UNK N   1      27.692  18.437   9.108  0.00  0.00    -0.369 N 
HETATM   10  H   UNK N   1      26.983  19.067   9.373  0.00  0.00     0.159 HD
HETATM   11  H   UNK N   1      27.945  17.701   9.710  0.00  0.00     0.159 HD
HETATM   12  O   UNK N   1      28.019  19.514   7.194  0.00  0.00    -0.273 OA
ENDBRANCH   7   8
ENDBRANCH   6   7
ENDBRANCH   5   6
ENDBRANCH   1   5
BRANCH   1  13
HETATM   13  C   UNK N   1      34.390  18.273   7.913  0.00  0.00     0.163 C 
HETATM   14  O   UNK N   1      35.169  19.061   8.422  0.00  0.00    -0.648 OA
BRANCH  13  15
HETATM   15  O   UNK N   1      34.615  17.839   6.655  0.00  0.00    -0.775 OA
HETATM   16  H   UNK N   1      35.482  17.774   6.306  0.00  0.00     0.167 HD
ENDBRANCH  13  15
ENDBRANCH   1  13
TORSDOF 7
ENDMDL
MODEL 5
REMARK VINA RESULT:      -4.4     13.918     15.752
REMARK  7 active torsions:
REMARK  status: ('A' for Active; 'I' for Inactive)
REMARK    1  A    between atoms: C_2  and  N_1 
REMARK    2  A    between atoms: C_2  and  C_3 
REMARK    3  A    between atoms: C_2  and  C_9 
REMARK    4  A    between atoms: C_3  and  S_4 
REMARK    5  A    between atoms: S_4  and  C_5 
REMARK    6  A    between atoms: C_5  and  C_6 
REMARK       I    between atoms: C_6  and  N_7 
REMARK    7  A    between atoms: C_9  and  O_10 
ROOT
HETATM    1  C   UNK N   1      34.492  15.398  10.348  0.00  0.00     0.182 C 
ENDROOT
BRANCH   1   2
HETATM    2  N   UNK N   1      34.158  14.197  11.096  0.00  0.00    -0.417 N 
HETATM    3  H   UNK N   1      33.193  13.869  11.146  0.00  0.00     0.150 HD
HETATM    4  H   UNK N   1      34.894  13.679  11.576  0.00  0.00     0.150 HD
ENDBRANCH   1   2
BRANCH   1   5
HETATM    5  C   UNK N   1      34.833  15.019   8.912  0.00  0.00     0.110 C 
BRANCH   5   6
HETATM    6  S   UNK N   1      33.384  15.269   7.837  0.00  0.00    -0.157 SA
BRANCH   6   7
HETATM    7  C   UNK N   1      33.177  17.003   8.366  0.00  0.00     0.176 C 
BRANCH   7   8
HETATM    8  C   UNK N   1      34.159  17.943   7.723  0.00  0.00     0.224 C 
HETATM    9  N   UNK N   1      34.865  18.827   8.460  0.00  0.00    -0.369 N 
HETATM   10  H   UNK N   1      35.476  19.461   8.019  0.00  0.00     0.159 HD
HETATM   11  H   UNK N   1      34.769  18.838   9.439  0.00  0.00     0.159 HD
HETATM   12  O   UNK N   1      34.305  17.919   6.513  0.00  0.00    -0.273 OA
ENDBRANCH   7   8
ENDBRANCH   6   7
ENDBRANCH   5   6
ENDBRANCH   1   5
BRANCH   1  13
HETATM   13  C   UNK N   1      35.635  16.127  11.009  0.00  0.00     0.163 C 
HETATM   14  O   UNK N   1      35.940  17.249  10.641  0.00  0.00    -0.648 OA
BRANCH  13  15
HETATM   15  O   UNK N   1      36.314  15.556  12.026  0.00  0.00    -0.775 OA
HETATM   16  H   UNK N   1      36.456  16.005  12.836  0.00  0.00     0.167 HD
ENDBRANCH  13  15
ENDBRANCH   1  13
TORSDOF 7
ENDMDL
MODEL 6
REMARK VINA RESULT:      -4.4      2.017      2.056
REMARK  7 active torsions:
REMARK  status: ('A' for Active; 'I' for Inactive)
REMARK    1  A    between atoms: C_2  and  N_1 
REMARK    2  A    between atoms: C_2  and  C_3 
REMARK    3  A    between atoms: C_2  and  C_9 
REMARK    4  A    between atoms: C_3  and  S_4 
REMARK    5  A    between atoms: S_4  and  C_5 
REMARK    6  A    between atoms: C_5  and  C_6 
REMARK       I    between atoms: C_6  and  N_7 
REMARK    7  A    between atoms: C_9  and  O_10 
ROOT
HETATM    1  C   UNK N   1      20.400  19.125   2.124  0.00  0.00     0.182 C 
ENDROOT
BRANCH   1   2
HETATM    2  N   UNK N   1      18.956  19.142   2.293  0.00  0.00    -0.417 N 
HETATM    3  H   UNK N   1      18.535  19.587   3.108  0.00  0.00     0.150 HD
HETATM    4  H   UNK N   1      18.360  18.704   1.590  0.00  0.00     0.150 HD
ENDBRANCH   1   2
BRANCH   1   5
HETATM    5  C   UNK N   1      21.067  19.062   3.492  0.00  0.00     0.110 C 
BRANCH   5   6
HETATM    6  S   UNK N   1      21.819  17.423   3.748  0.00  0.00    -0.157 SA
BRANCH   6   7
HETATM    7  C   UNK N   1      20.602  16.965   5.029  0.00  0.00     0.176 C 
BRANCH   7   8
HETATM    8  C   UNK N   1      19.418  16.216   4.484  0.00  0.00     0.224 C 
HETATM    9  N   UNK N   1      19.442  15.674   3.248  0.00  0.00    -0.369 N 
HETATM   10  H   UNK N   1      18.645  15.219   2.892  0.00  0.00     0.159 HD
HETATM   11  H   UNK N   1      20.258  15.734   2.701  0.00  0.00     0.159 HD
HETATM   12  O   UNK N   1      18.411  16.113   5.165  0.00  0.00    -0.273 OA
ENDBRANCH   7   8
ENDBRANCH   6   7
ENDBRANCH   5   6
ENDBRANCH   1   5
BRANCH   1  13
HETATM   13  C   UNK N   1      20.852  20.337   1.348  0.00  0.00     0.163 C 
HETATM   14  O   UNK N   1      21.476  21.223   1.905  0.00  0.00    -0.648 OA
BRANCH  13  15
HETATM   15  O   UNK N   1      20.590  20.440   0.028  0.00  0.00    -0.775 OA
HETATM   16  H   UNK N   1      21.206  20.154  -0.619  0.00  0.00     0.167 HD
ENDBRANCH  13  15
ENDBRANCH   1  13
TORSDOF 7
ENDMDL
MODEL 7
REMARK VINA RESULT:      -4.3      2.694      3.315
REMARK  7 active torsions:
REMARK  status: ('A' for Active; 'I' for Inactive)
REMARK    1  A    between atoms: C_2  and  N_1 
REMARK    2  A    between atoms: C_2  and  C_3 
REMARK    3  A    between atoms: C_2  and  C_9 
REMARK    4  A    between atoms: C_3  and  S_4 
REMARK    5  A    between atoms: S_4  and  C_5 
REMARK    6  A    between atoms: C_5  and  C_6 
REMARK       I    between atoms: C_6  and  N_7 
REMARK    7  A    between atoms: C_9  and  O_10 
ROOT
HETATM    1  C   UNK N   1      20.453  19.085   1.924  0.00  0.00     0.182 C 
ENDROOT
BRANCH   1   2
HETATM    2  N   UNK N   1      19.041  19.138   2.266  0.00  0.00    -0.417 N 
HETATM    3  H   UNK N   1      18.453  18.310   2.168  0.00  0.00     0.150 HD
HETATM    4  H   UNK N   1      18.637  20.010   2.607  0.00  0.00     0.150 HD
ENDBRANCH   1   2
BRANCH   1   5
HETATM    5  C   UNK N   1      21.266  18.787   3.177  0.00  0.00     0.110 C 
BRANCH   5   6
HETATM    6  S   UNK N   1      20.637  17.282   3.989  0.00  0.00    -0.157 SA
BRANCH   6   7
HETATM    7  C   UNK N   1      21.579  16.181   2.880  0.00  0.00     0.176 C 
BRANCH   7   8
HETATM    8  C   UNK N   1      20.743  15.585   1.781  0.00  0.00     0.224 C 
HETATM    9  N   UNK N   1      19.447  15.269   1.983  0.00  0.00    -0.369 N 
HETATM   10  H   UNK N   1      18.924  14.845   1.265  0.00  0.00     0.159 HD
HETATM   11  H   UNK N   1      19.023  15.464   2.850  0.00  0.00     0.159 HD
HETATM   12  O   UNK N   1      21.253  15.365   0.696  0.00  0.00    -0.273 OA
ENDBRANCH   7   8
ENDBRANCH   6   7
ENDBRANCH   5   6
ENDBRANCH   1   5
BRANCH   1  13
HETATM   13  C   UNK N   1      20.887  20.380   1.284  0.00  0.00     0.163 C 
HETATM   14  O   UNK N   1      21.479  21.220   1.941  0.00  0.00    -0.648 OA
BRANCH  13  15
HETATM   15  O   UNK N   1      20.645  20.612  -0.023  0.00  0.00    -0.775 OA
HETATM   16  H   UNK N   1      20.605  21.482  -0.369  0.00  0.00     0.167 HD
ENDBRANCH  13  15
ENDBRANCH   1  13
TORSDOF 7
ENDMDL
MODEL 8
REMARK VINA RESULT:      -4.2     14.689     15.963
REMARK  7 active torsions:
REMARK  status: ('A' for Active; 'I' for Inactive)
REMARK    1  A    between atoms: C_2  and  N_1 
REMARK    2  A    between atoms: C_2  and  C_3 
REMARK    3  A    between atoms: C_2  and  C_9 
REMARK    4  A    between atoms: C_3  and  S_4 
REMARK    5  A    between atoms: S_4  and  C_5 
REMARK    6  A    between atoms: C_5  and  C_6 
REMARK       I    between atoms: C_6  and  N_7 
REMARK    7  A    between atoms: C_9  and  O_10 
ROOT
HETATM    1  C   UNK N   1      34.092  16.982   8.779  0.00  0.00     0.182 C 
ENDROOT
BRANCH   1   2
HETATM    2  N   UNK N   1      32.710  17.142   9.200  0.00  0.00    -0.417 N 
HETATM    3  H   UNK N   1      32.180  16.345   9.551  0.00  0.00     0.150 HD
HETATM    4  H   UNK N   1      32.267  18.059   9.143  0.00  0.00     0.150 HD
ENDBRANCH   1   2
BRANCH   1   5
HETATM    5  C   UNK N   1      34.981  16.841  10.007  0.00  0.00     0.110 C 
BRANCH   5   6
HETATM    6  S   UNK N   1      34.907  15.136  10.642  0.00  0.00    -0.157 SA
BRANCH   6   7
HETATM    7  C   UNK N   1      36.201  14.555   9.495  0.00  0.00     0.176 C 
BRANCH   7   8
HETATM    8  C   UNK N   1      37.484  14.183  10.184  0.00  0.00     0.224 C 
HETATM    9  N   UNK N   1      37.487  13.713  11.450  0.00  0.00    -0.369 N 
HETATM   10  H   UNK N   1      38.339  13.510  11.899  0.00  0.00     0.159 HD
HETATM   11  H   UNK N   1      36.637  13.574  11.924  0.00  0.00     0.159 HD
HETATM   12  O   UNK N   1      38.542  14.327   9.595  0.00  0.00    -0.273 OA
ENDBRANCH   7   8
ENDBRANCH   6   7
ENDBRANCH   5   6
ENDBRANCH   1   5
BRANCH   1  13
HETATM   13  C   UNK N   1      34.519  18.149   7.924  0.00  0.00     0.163 C 
HETATM   14  O   UNK N   1      35.036  19.127   8.437  0.00  0.00    -0.648 OA
BRANCH  13  15
HETATM   15  O   UNK N   1      34.353  18.113   6.585  0.00  0.00    -0.775 OA
HETATM   16  H   UNK N   1      34.566  18.848   6.044  0.00  0.00     0.167 HD
ENDBRANCH  13  15
ENDBRANCH   1  13
TORSDOF 7
ENDMDL
MODEL 9
REMARK VINA RESULT:      -4.2     13.688     14.831
REMARK  7 active torsions:
REMARK  status: ('A' for Active; 'I' for Inactive)
REMARK    1  A    between atoms: C_2  and  N_1 
REMARK    2  A    between atoms: C_2  and  C_3 
REMARK    3  A    between atoms: C_2  and  C_9 
REMARK    4  A    between atoms: C_3  and  S_4 
REMARK    5  A    between atoms: S_4  and  C_5 
REMARK    6  A    between atoms: C_5  and  C_6 
REMARK       I    between atoms: C_6  and  N_7 
REMARK    7  A    between atoms: C_9  and  O_10 
ROOT
HETATM    1  C   UNK N   1      34.240  17.187   6.900  0.00  0.00     0.182 C 
ENDROOT
BRANCH   1   2
HETATM    2  N   UNK N   1      33.577  17.457   5.635  0.00  0.00    -0.417 N 
HETATM    3  H   UNK N   1      32.844  18.164   5.574  0.00  0.00     0.150 HD
HETATM    4  H   UNK N   1      33.847  16.935   4.801  0.00  0.00     0.150 HD
ENDBRANCH   1   2
BRANCH   1   5
HETATM    5  C   UNK N   1      33.777  15.839   7.435  0.00  0.00     0.110 C 
BRANCH   5   6
HETATM    6  S   UNK N   1      35.182  14.938   8.165  0.00  0.00    -0.157 SA
BRANCH   6   7
HETATM    7  C   UNK N   1      34.657  15.319   9.871  0.00  0.00     0.176 C 
BRANCH   7   8
HETATM    8  C   UNK N   1      35.661  16.139  10.633  0.00  0.00     0.224 C 
HETATM    9  N   UNK N   1      36.561  15.556  11.453  0.00  0.00    -0.369 N 
HETATM   10  H   UNK N   1      37.187  16.110  11.973  0.00  0.00     0.159 HD
HETATM   11  H   UNK N   1      36.593  14.576  11.529  0.00  0.00     0.159 HD
HETATM   12  O   UNK N   1      35.647  17.354  10.524  0.00  0.00    -0.273 OA
ENDBRANCH   7   8
ENDBRANCH   6   7
ENDBRANCH   5   6
ENDBRANCH   1   5
BRANCH   1  13
HETATM   13  C   UNK N   1      33.961  18.294   7.886  0.00  0.00     0.163 C 
HETATM   14  O   UNK N   1      32.833  18.460   8.317  0.00  0.00    -0.648 OA
BRANCH  13  15
HETATM   15  O   UNK N   1      34.959  19.095   8.315  0.00  0.00    -0.775 OA
HETATM   16  H   UNK N   1      34.815  19.753   8.967  0.00  0.00     0.167 HD
ENDBRANCH  13  15
ENDBRANCH   1  13
TORSDOF 7
ENDMDL
