REMARK  6 active torsions:
REMARK  status: ('A' for Active; 'I' for Inactive)
REMARK    1  A    between atoms: C_3  and  O_2 
REMARK    2  A    between atoms: C_4  and  O_5 
REMARK    3  A    between atoms: C_6  and  O_7 
REMARK    4  A    between atoms: C_8  and  O_9 
REMARK    5  A    between atoms: C_11  and  C_12 
REMARK    6  A    between atoms: C_12  and  O_13 
ROOT
HETATM    1  C   UNK N   1       1.612   0.884   0.147  0.00  0.00     0.191 C 
HETATM    2  C   UNK N   1       1.563  -0.611  -0.188  0.00  0.00     0.183 C 
HETATM    3  C   UNK N   1       0.245  -1.230   0.268  0.00  0.00     0.204 C 
HETATM    4  C   UNK N   1      -0.893  -0.379  -0.297  0.00  0.00     0.289 C 
HETATM    5  O   UNK N   1      -0.799   0.920   0.229  0.00  0.00    -0.340 OA
HETATM    6  C   UNK N   1       0.318   1.543  -0.372  0.00  0.00     0.253 C 
ENDROOT
BRANCH   6   7
HETATM    7  C   UNK N   1       0.266   3.027  -0.093  0.00  0.00     0.172 C 
HETATM    8  O   UNK N   1      -0.686   3.515   0.484  0.00  0.00    -0.648 OA
BRANCH   7   9
HETATM    9  O   UNK N   1       1.269   3.828  -0.513  0.00  0.00    -0.774 OA
HETATM   10  H   UNK N   1       2.098   3.502  -0.805  0.00  0.00     0.167 HD
ENDBRANCH   7   9
ENDBRANCH   6   7
BRANCH   1  11
HETATM   11  O   UNK N   1       2.732   1.448  -0.476  0.00  0.00    -0.385 OA
HETATM   12  C   UNK N   1       3.535   1.916   0.566  0.00  0.00     0.202 C 
ENDBRANCH   1  11
BRANCH   4  13
HETATM   13  O   UNK N   1      -2.123  -0.929   0.065  0.00  0.00    -0.368 OA
HETATM   14  H   UNK N   1      -2.882  -0.379   0.317  0.00  0.00     0.212 HD
ENDBRANCH   4  13
BRANCH   2  15
HETATM   15  O   UNK N   1       2.640  -1.279   0.396  0.00  0.00    -0.390 OA
HETATM   16  H   UNK N   1       2.613  -2.159   0.802  0.00  0.00     0.210 HD
ENDBRANCH   2  15
BRANCH   3  17
HETATM   17  O   UNK N   1       0.150  -2.537  -0.214  0.00  0.00    -0.388 OA
HETATM   18  H   UNK N   1      -0.669  -2.935  -0.549  0.00  0.00     0.210 HD
ENDBRANCH   3  17
TORSDOF 6
