MODEL 1
REMARK VINA RESULT:      -4.2      0.000      0.000
REMARK  3 active torsions:
REMARK  status: ('A' for Active; 'I' for Inactive)
REMARK       I    between atoms: C_2  and  N_4 
REMARK    1  A    between atoms: N_4  and  C_5 
REMARK    2  A    between atoms: C_5  and  C_6 
REMARK    3  A    between atoms: C_6  and  O_7 
ROOT
HETATM    1  C   UNK N   1      35.292  15.015  10.716  0.00  0.00     0.117 C 
HETATM    2  C   UNK N   1      34.898  16.352  10.199  0.00  0.00     0.214 C 
HETATM    3  O   UNK N   1      35.541  17.342  10.522  0.00  0.00    -0.274 OA
HETATM    4  N   UNK N   1      33.834  16.460   9.376  0.00  0.00    -0.351 N 
HETATM    5  H   UNK N   1      33.334  15.648   9.133  0.00  0.00     0.163 HD
ENDROOT
BRANCH   4   6
HETATM    6  C   UNK N   1      33.406  17.730   8.844  0.00  0.00     0.232 C 
BRANCH   6   7
HETATM    7  C   UNK N   1      34.450  18.304   7.942  0.00  0.00     0.158 C 
HETATM    8  O   UNK N   1      34.545  17.935   6.780  0.00  0.00    -0.649 OA
BRANCH   7   9
HETATM    9  O   UNK N   1      35.294  19.237   8.415  0.00  0.00    -0.775 OA
HETATM   10  H   UNK N   1      35.608  19.180   9.297  0.00  0.00     0.167 HD
ENDBRANCH   7   9
ENDBRANCH   6   7
ENDBRANCH   4   6
TORSDOF 3
ENDMDL
MODEL 2
REMARK VINA RESULT:      -4.1      2.030      3.610
REMARK  3 active torsions:
REMARK  status: ('A' for Active; 'I' for Inactive)
REMARK       I    between atoms: C_2  and  N_4 
REMARK    1  A    between atoms: N_4  and  C_5 
REMARK    2  A    between atoms: C_5  and  C_6 
REMARK    3  A    between atoms: C_6  and  O_7 
ROOT
HETATM    1  C   UNK N   1      29.925  17.917   8.234  0.00  0.00     0.117 C 
HETATM    2  C   UNK N   1      31.310  17.405   8.057  0.00  0.00     0.214 C 
HETATM    3  O   UNK N   1      31.566  16.659   7.122  0.00  0.00    -0.274 OA
HETATM    4  N   UNK N   1      32.272  17.770   8.930  0.00  0.00    -0.351 N 
HETATM    5  H   UNK N   1      32.038  18.372   9.673  0.00  0.00     0.163 HD
ENDROOT
BRANCH   4   6
HETATM    6  C   UNK N   1      33.631  17.305   8.808  0.00  0.00     0.232 C 
BRANCH   6   7
HETATM    7  C   UNK N   1      34.427  18.222   7.938  0.00  0.00     0.158 C 
HETATM    8  O   UNK N   1      35.088  19.129   8.424  0.00  0.00    -0.649 OA
BRANCH   7   9
HETATM    9  O   UNK N   1      34.416  18.047   6.606  0.00  0.00    -0.775 OA
HETATM   10  H   UNK N   1      35.099  17.556   6.192  0.00  0.00     0.167 HD
ENDBRANCH   7   9
ENDBRANCH   6   7
ENDBRANCH   4   6
TORSDOF 3
ENDMDL
MODEL 3
REMARK VINA RESULT:      -4.1     15.378     16.026
REMARK  3 active torsions:
REMARK  status: ('A' for Active; 'I' for Inactive)
REMARK       I    between atoms: C_2  and  N_4 
REMARK    1  A    between atoms: N_4  and  C_5 
REMARK    2  A    between atoms: C_5  and  C_6 
REMARK    3  A    between atoms: C_6  and  O_7 
ROOT
HETATM    1  C   UNK N   1      20.168  16.041   1.631  0.00  0.00     0.117 C 
HETATM    2  C   UNK N   1      20.341  17.435   1.144  0.00  0.00     0.214 C 
HETATM    3  O   UNK N   1      20.370  17.659  -0.059  0.00  0.00    -0.274 OA
HETATM    4  N   UNK N   1      20.465  18.441   2.034  0.00  0.00    -0.351 N 
HETATM    5  H   UNK N   1      20.438  18.234   2.995  0.00  0.00     0.163 HD
ENDROOT
BRANCH   4   6
HETATM    6  C   UNK N   1      20.634  19.812   1.619  0.00  0.00     0.232 C 
BRANCH   6   7
HETATM    7  C   UNK N   1      20.954  20.683   2.791  0.00  0.00     0.158 C 
HETATM    8  O   UNK N   1      20.345  20.564   3.844  0.00  0.00    -0.649 OA
BRANCH   7   9
HETATM    9  O   UNK N   1      21.923  21.608   2.683  0.00  0.00    -0.775 OA
HETATM   10  H   UNK N   1      21.700  22.516   2.627  0.00  0.00     0.167 HD
ENDBRANCH   7   9
ENDBRANCH   6   7
ENDBRANCH   4   6
TORSDOF 3
ENDMDL
MODEL 4
REMARK VINA RESULT:      -4.0      3.300      4.437
REMARK  3 active torsions:
REMARK  status: ('A' for Active; 'I' for Inactive)
REMARK       I    between atoms: C_2  and  N_4 
REMARK    1  A    between atoms: N_4  and  C_5 
REMARK    2  A    between atoms: C_5  and  C_6 
REMARK    3  A    between atoms: C_6  and  O_7 
ROOT
HETATM    1  C   UNK N   1      36.634  13.267  14.738  0.00  0.00     0.117 C 
HETATM    2  C   UNK N   1      35.748  13.729  13.637  0.00  0.00     0.214 C 
HETATM    3  O   UNK N   1      34.665  13.187  13.461  0.00  0.00    -0.274 OA
HETATM    4  N   UNK N   1      36.148  14.744  12.843  0.00  0.00    -0.351 N 
HETATM    5  H   UNK N   1      37.023  15.162  13.007  0.00  0.00     0.163 HD
ENDROOT
BRANCH   4   6
HETATM    6  C   UNK N   1      35.331  15.234  11.761  0.00  0.00     0.232 C 
BRANCH   6   7
HETATM    7  C   UNK N   1      36.110  16.165  10.889  0.00  0.00     0.158 C 
HETATM    8  O   UNK N   1      35.603  17.191  10.458  0.00  0.00    -0.649 OA
BRANCH   7   9
HETATM    9  O   UNK N   1      37.383  15.869  10.575  0.00  0.00    -0.775 OA
HETATM   10  H   UNK N   1      38.011  15.722  11.255  0.00  0.00     0.167 HD
ENDBRANCH   7   9
ENDBRANCH   6   7
ENDBRANCH   4   6
TORSDOF 3
ENDMDL
MODEL 5
REMARK VINA RESULT:      -4.0     12.725     13.528
REMARK  3 active torsions:
REMARK  status: ('A' for Active; 'I' for Inactive)
REMARK       I    between atoms: C_2  and  N_4 
REMARK    1  A    between atoms: N_4  and  C_5 
REMARK    2  A    between atoms: C_5  and  C_6 
REMARK    3  A    between atoms: C_6  and  O_7 
ROOT
HETATM    1  C   UNK N   1      20.427  14.493   9.446  0.00  0.00     0.117 C 
HETATM    2  C   UNK N   1      21.257  13.262   9.514  0.00  0.00     0.214 C 
HETATM    3  O   UNK N   1      21.156  12.413   8.638  0.00  0.00    -0.274 OA
HETATM    4  N   UNK N   1      22.115  13.093  10.541  0.00  0.00    -0.351 N 
HETATM    5  H   UNK N   1      22.176  13.791  11.232  0.00  0.00     0.163 HD
ENDROOT
BRANCH   4   6
HETATM    6  C   UNK N   1      22.945  11.919  10.658  0.00  0.00     0.232 C 
BRANCH   6   7
HETATM    7  C   UNK N   1      23.948  12.088  11.753  0.00  0.00     0.158 C 
HETATM    8  O   UNK N   1      23.625  11.952  12.925  0.00  0.00    -0.649 OA
BRANCH   7   9
HETATM    9  O   UNK N   1      25.220  12.393  11.445  0.00  0.00    -0.775 OA
HETATM   10  H   UNK N   1      25.419  12.798  10.623  0.00  0.00     0.167 HD
ENDBRANCH   7   9
ENDBRANCH   6   7
ENDBRANCH   4   6
TORSDOF 3
ENDMDL
MODEL 6
REMARK VINA RESULT:      -3.8      2.056      3.761
REMARK  3 active torsions:
REMARK  status: ('A' for Active; 'I' for Inactive)
REMARK       I    between atoms: C_2  and  N_4 
REMARK    1  A    between atoms: N_4  and  C_5 
REMARK    2  A    between atoms: C_5  and  C_6 
REMARK    3  A    between atoms: C_6  and  O_7 
ROOT
HETATM    1  C   UNK N   1      33.046  17.602   4.595  0.00  0.00     0.117 C 
HETATM    2  C   UNK N   1      33.726  17.066   5.803  0.00  0.00     0.214 C 
HETATM    3  O   UNK N   1      34.673  16.300   5.678  0.00  0.00    -0.274 OA
HETATM    4  N   UNK N   1      33.293  17.430   7.028  0.00  0.00    -0.351 N 
HETATM    5  H   UNK N   1      32.530  18.047   7.101  0.00  0.00     0.163 HD
ENDROOT
BRANCH   4   6
HETATM    6  C   UNK N   1      33.914  16.942   8.234  0.00  0.00     0.232 C 
BRANCH   6   7
HETATM    7  C   UNK N   1      34.808  17.983   8.827  0.00  0.00     0.158 C 
HETATM    8  O   UNK N   1      34.968  19.060   8.271  0.00  0.00    -0.649 OA
BRANCH   7   9
HETATM    9  O   UNK N   1      35.441  17.730   9.985  0.00  0.00    -0.775 OA
HETATM   10  H   UNK N   1      34.946  17.577  10.767  0.00  0.00     0.167 HD
ENDBRANCH   7   9
ENDBRANCH   6   7
ENDBRANCH   4   6
TORSDOF 3
ENDMDL
MODEL 7
REMARK VINA RESULT:      -3.8     14.247     14.722
REMARK  3 active torsions:
REMARK  status: ('A' for Active; 'I' for Inactive)
REMARK       I    between atoms: C_2  and  N_4 
REMARK    1  A    between atoms: N_4  and  C_5 
REMARK    2  A    between atoms: C_5  and  C_6 
REMARK    3  A    between atoms: C_6  and  O_7 
ROOT
HETATM    1  C   UNK N   1      21.085  13.631   9.853  0.00  0.00     0.117 C 
HETATM    2  C   UNK N   1      20.580  14.533   8.785  0.00  0.00     0.214 C 
HETATM    3  O   UNK N   1      20.146  14.059   7.743  0.00  0.00    -0.274 OA
HETATM    4  N   UNK N   1      20.604  15.869   8.975  0.00  0.00    -0.351 N 
HETATM    5  H   UNK N   1      20.958  16.224   9.822  0.00  0.00     0.163 HD
ENDROOT
BRANCH   4   6
HETATM    6  C   UNK N   1      20.127  16.792   7.975  0.00  0.00     0.232 C 
BRANCH   6   7
HETATM    7  C   UNK N   1      19.658  18.062   8.608  0.00  0.00     0.158 C 
HETATM    8  O   UNK N   1      20.299  19.096   8.486  0.00  0.00    -0.649 OA
BRANCH   7   9
HETATM    9  O   UNK N   1      18.518  18.065   9.320  0.00  0.00    -0.775 OA
HETATM   10  H   UNK N   1      18.293  18.812   9.840  0.00  0.00     0.167 HD
ENDBRANCH   7   9
ENDBRANCH   6   7
ENDBRANCH   4   6
TORSDOF 3
ENDMDL
MODEL 8
REMARK VINA RESULT:      -3.7      9.922     11.094
REMARK  3 active torsions:
REMARK  status: ('A' for Active; 'I' for Inactive)
REMARK       I    between atoms: C_2  and  N_4 
REMARK    1  A    between atoms: N_4  and  C_5 
REMARK    2  A    between atoms: C_5  and  C_6 
REMARK    3  A    between atoms: C_6  and  O_7 
ROOT
HETATM    1  C   UNK N   1      27.489  21.050   6.075  0.00  0.00     0.117 C 
HETATM    2  C   UNK N   1      26.783  20.413   4.932  0.00  0.00     0.214 C 
HETATM    3  O   UNK N   1      27.410  20.103   3.928  0.00  0.00    -0.274 OA
HETATM    4  N   UNK N   1      25.456  20.183   5.014  0.00  0.00    -0.351 N 
HETATM    5  H   UNK N   1      24.976  20.442   5.833  0.00  0.00     0.163 HD
ENDROOT
BRANCH   4   6
HETATM    6  C   UNK N   1      24.720  19.568   3.937  0.00  0.00     0.232 C 
BRANCH   6   7
HETATM    7  C   UNK N   1      24.336  20.584   2.911  0.00  0.00     0.158 C 
HETATM    8  O   UNK N   1      23.272  21.181   2.990  0.00  0.00    -0.649 OA
BRANCH   7   9
HETATM    9  O   UNK N   1      25.171  20.844   1.891  0.00  0.00    -0.775 OA
HETATM   10  H   UNK N   1      25.593  21.679   1.832  0.00  0.00     0.167 HD
ENDBRANCH   7   9
ENDBRANCH   6   7
ENDBRANCH   4   6
TORSDOF 3
ENDMDL
MODEL 9
REMARK VINA RESULT:      -3.7     13.496     14.682
REMARK  3 active torsions:
REMARK  status: ('A' for Active; 'I' for Inactive)
REMARK       I    between atoms: C_2  and  N_4 
REMARK    1  A    between atoms: N_4  and  C_5 
REMARK    2  A    between atoms: C_5  and  C_6 
REMARK    3  A    between atoms: C_6  and  O_7 
ROOT
HETATM    1  C   UNK N   1      24.849  20.254   3.017  0.00  0.00     0.117 C 
HETATM    2  C   UNK N   1      23.377  20.456   3.057  0.00  0.00     0.214 C 
HETATM    3  O   UNK N   1      22.907  21.557   2.800  0.00  0.00    -0.274 OA
HETATM    4  N   UNK N   1      22.571  19.421   3.375  0.00  0.00    -0.351 N 
HETATM    5  H   UNK N   1      22.974  18.546   3.577  0.00  0.00     0.163 HD
ENDROOT
BRANCH   4   6
HETATM    6  C   UNK N   1      21.137  19.558   3.429  0.00  0.00     0.232 C 
BRANCH   6   7
HETATM    7  C   UNK N   1      20.529  19.289   2.090  0.00  0.00     0.158 C 
HETATM    8  O   UNK N   1      20.163  18.164   1.783  0.00  0.00    -0.649 OA
BRANCH   7   9
HETATM    9  O   UNK N   1      20.385  20.298   1.214  0.00  0.00    -0.775 OA
HETATM   10  H   UNK N   1      21.067  20.934   1.115  0.00  0.00     0.167 HD
ENDBRANCH   7   9
ENDBRANCH   6   7
ENDBRANCH   4   6
TORSDOF 3
ENDMDL
