REMARK  16 active torsions:
REMARK  status: ('A' for Active; 'I' for Inactive)
REMARK    1  A    between atoms: C_2  and  O_1 
REMARK    2  A    between atoms: C_2  and  C_3 
REMARK    3  A    between atoms: C_2  and  C_9 
REMARK    4  A    between atoms: C_3  and  O_4 
REMARK    5  A    between atoms: O_4  and  P_5 
REMARK    6  A    between atoms: P_5  and  O_6 
REMARK    7  A    between atoms: P_5  and  O_7 
REMARK    8  A    between atoms: C_9  and  O_10 
REMARK    9  A    between atoms: C_9  and  C_11 
REMARK   10  A    between atoms: C_11  and  O_12 
REMARK   11  A    between atoms: C_11  and  C_13 
REMARK   12  A    between atoms: C_13  and  C_15 
REMARK   13  A    between atoms: C_15  and  O_16 
REMARK   14  A    between atoms: O_16  and  P_17 
REMARK   15  A    between atoms: P_17  and  O_18 
REMARK   16  A    between atoms: P_17  and  O_19 
ROOT
HETATM    1  C   UNK N   1       6.612  -3.163   0.052  0.00  0.00     0.185 C 
ENDROOT
BRANCH   1   2
HETATM    2  C   UNK N   1       5.681  -2.144   0.734  0.00  0.00     0.174 C 
BRANCH   2   3
HETATM    3  O   UNK N   1       6.270  -0.884   0.848  0.00  0.00    -0.391 OA
HETATM    4  H   UNK N   1       7.234  -0.801   0.928  0.00  0.00     0.210 HD
ENDBRANCH   2   3
BRANCH   2   5
HETATM    5  C   UNK N   1       4.373  -1.979  -0.039  0.00  0.00     0.215 C 
BRANCH   5   6
HETATM    6  O   UNK N   1       3.794  -3.210  -0.373  0.00  0.00    -0.294 OA
BRANCH   6   7
HETATM    7  P   UNK N   1       2.416  -3.384   0.672  0.00  0.00     0.390 P 
HETATM    8  O   UNK N   1       1.739  -3.109  -0.699  0.00  0.00    -0.632 OA
BRANCH   7   9
HETATM    9  O   UNK N   1       1.358  -4.748   0.492  0.00  0.00    -0.307 OA
HETATM   10  H   UNK N   1       0.402  -4.617   0.391  0.00  0.00     0.222 HD
ENDBRANCH   7   9
BRANCH   7  11
HETATM   11  O   UNK N   1       3.312  -4.868   0.595  0.00  0.00    -0.307 OA
HETATM   12  H   UNK N   1       2.844  -5.717   0.552  0.00  0.00     0.222 HD
ENDBRANCH   7  11
ENDBRANCH   6   7
ENDBRANCH   5   6
ENDBRANCH   2   5
ENDBRANCH   1   2
BRANCH   1  13
HETATM   13  O   UNK N   1       6.175  -4.443   0.402  0.00  0.00    -0.390 OA
HETATM   14  H   UNK N   1       5.254  -4.624   0.646  0.00  0.00     0.210 HD
ENDBRANCH   1  13
BRANCH   1  15
HETATM   15  C   UNK N   1       8.099  -2.988   0.419  0.00  0.00     0.221 C 
BRANCH  15  16
HETATM   16  O   UNK N   1       8.558  -1.793  -0.139  0.00  0.00    -0.385 OA
HETATM   17  H   UNK N   1       9.436  -1.655  -0.526  0.00  0.00     0.210 HD
ENDBRANCH  15  16
BRANCH  15  18
HETATM   18  C   UNK N   1       8.996  -4.117  -0.043  0.00  0.00     0.181 C 
HETATM   19  O   UNK N   1       8.539  -5.084  -0.633  0.00  0.00    -0.293 OA
BRANCH  18  20
HETATM   20  C   UNK N   1      10.465  -4.075   0.239  0.00  0.00     0.261 C 
BRANCH  20  21
HETATM   21  O   UNK N   1      11.082  -3.118  -0.575  0.00  0.00    -0.290 OA
BRANCH  21  22
HETATM   22  P   UNK N   1      12.061  -2.156   0.492  0.00  0.00     0.391 P 
HETATM   23  O   UNK N   1      11.292  -1.069  -0.305  0.00  0.00    -0.632 OA
BRANCH  22  24
HETATM   24  O   UNK N   1      13.339  -1.167  -0.142  0.00  0.00    -0.307 OA
HETATM   25  H   UNK N   1      14.175  -1.508  -0.496  0.00  0.00     0.222 HD
ENDBRANCH  22  24
BRANCH  22  26
HETATM   26  O   UNK N   1      13.082  -3.057  -0.588  0.00  0.00    -0.307 OA
HETATM   27  H   UNK N   1      12.931  -3.801  -1.192  0.00  0.00     0.222 HD
ENDBRANCH  22  26
ENDBRANCH  21  22
ENDBRANCH  20  21
ENDBRANCH  18  20
ENDBRANCH  15  18
ENDBRANCH   1  15
TORSDOF 16
