REMARK  10 active torsions:
REMARK  status: ('A' for Active; 'I' for Inactive)
REMARK    1  A    between atoms: C_10  and  C_4 
REMARK    2  A    between atoms: C_13  and  C_5 
REMARK    3  A    between atoms: C_11  and  C_8 
REMARK    4  A    between atoms: C_10  and  C_9 
REMARK    5  A    between atoms: S_27  and  C_9 
REMARK    6  A    between atoms: O_22  and  C_13 
REMARK    7  A    between atoms: C_16  and  C_14 
REMARK    8  A    between atoms: N_19  and  C_14 
REMARK    9  A    between atoms: N_19  and  C_15 
REMARK   10  A    between atoms: O_24  and  C_16 
ROOT
HETATM    1  C   UNK N   1      -0.723   4.086  -0.546  0.00  0.00    -0.010 C 
HETATM    2  C   UNK N   1      -0.394   2.809  -0.166  0.00  0.00     0.115 C 
ENDROOT
BRANCH   2   3
HETATM    3  C   UNK N   1      -1.378   1.904   0.525  0.00  0.00     0.194 C 
HETATM    4  O   UNK N   1      -0.971   1.036   1.276  0.00  0.00    -0.645 OA
BRANCH   3   5
HETATM    5  O   UNK N   1      -2.708   2.050   0.385  0.00  0.00    -0.772 OA
HETATM    6  H   UNK N   1      -3.083   2.904   0.288  0.00  0.00     0.167 HD
ENDBRANCH   3   5
ENDBRANCH   2   3
BRANCH   2   7
HETATM    7  N   UNK N   1       0.984   2.427  -0.293  0.00  0.00    -0.335 N 
HETATM    8  H   UNK N   1       1.566   3.164  -0.586  0.00  0.00     0.168 HD
BRANCH   7   9
HETATM    9  C   UNK N   1       1.688   1.197  -0.081  0.00  0.00     0.126 A 
HETATM   10  C   UNK N   1       1.265  -0.150  -0.162  0.00  0.00     0.048 A 
HETATM   11  C   UNK N   1       2.370  -0.943   0.147  0.00  0.00     0.048 A 
HETATM   12  C   UNK N   1       3.409  -0.062   0.358  0.00  0.00     0.041 A 
HETATM   13  C   UNK N   1       4.736  -0.363   0.653  0.00  0.00     0.030 A 
HETATM   14  N   UNK N   1       2.999   1.206   0.210  0.00  0.00    -0.308 N 
HETATM   15  C   UNK N   1       5.634   0.708   0.784  0.00  0.00     0.004 A 
HETATM   16  C   UNK N   1       5.185   2.033   0.621  0.00  0.00     0.018 A 
HETATM   17  C   UNK N   1       3.834   2.272   0.333  0.00  0.00     0.099 A 
BRANCH  10  18
HETATM   18  C   UNK N   1      -0.002  -0.773  -0.585  0.00  0.00     0.273 C 
HETATM   19  O   UNK N   1      -0.854  -0.154  -1.197  0.00  0.00    -0.301 OA
ENDBRANCH  10  18
ENDBRANCH   7   9
ENDBRANCH   2   7
BRANCH   1  20
HETATM   20  C   UNK N   1      -2.109   4.640  -0.426  0.00  0.00     0.015 C 
HETATM   21  C   UNK N   1      -2.360   5.885   0.017  0.00  0.00     0.056 C 
BRANCH  21  22
HETATM   22  C   UNK N   1      -3.737   6.405   0.176  0.00  0.00     0.133 C 
HETATM   23  N   UNK N   1      -4.752   5.723  -0.211  0.00  0.00    -0.380 N 
HETATM   24  H   UNK N   1      -5.595   6.136  -0.508  0.00  0.00     0.158 HD
ATOM     25  HN  UNK N   1      -4.683   4.705  -0.211  1.00  0.00     0.158 HD
BRANCH  22  26
HETATM   26  O   UNK N   1      -3.927   7.605   0.754  0.00  0.00    -0.346 OA
HETATM   27  H   UNK N   1      -3.269   8.137   1.157  0.00  0.00     0.219 HD
ENDBRANCH  22  26
ENDBRANCH  21  22
ENDBRANCH   1  20
BRANCH   1  28
HETATM   28  C   UNK N   1       0.368   5.000  -1.072  0.00  0.00     0.198 C 
BRANCH  28  29
HETATM   29  S   UNK N   1       1.105   6.044   0.230  0.00  0.00     0.255 S 
HETATM   30  O   UNK N   1       0.661   7.338  -0.471  0.00  0.00    -0.212 OA
HETATM   31  O   UNK N   1       2.473   6.071  -0.467  0.00  0.00    -0.212 OA
ENDBRANCH  28  29
ENDBRANCH   1  28
TORSDOF 10
