MODEL 1
REMARK VINA RESULT:      -4.7      0.000      0.000
REMARK  8 active torsions:
REMARK  status: ('A' for Active; 'I' for Inactive)
REMARK       I    between atoms: N_1  and  C_2 
REMARK    1  A    between atoms: C_2  and  C_4 
REMARK    2  A    between atoms: C_4  and  N_5 
REMARK    3  A    between atoms: N_5  and  C_6 
REMARK    4  A    between atoms: N_5  and  C_10 
REMARK    5  A    between atoms: C_6  and  C_7 
REMARK    6  A    between atoms: C_7  and  O_8 
REMARK    7  A    between atoms: C_10  and  C_11 
REMARK    8  A    between atoms: C_11  and  O_12 
ROOT
HETATM    1  N   UNK N   1      34.976  16.131   9.154  0.00  0.00     0.117 N 
ENDROOT
BRANCH   1   2
HETATM    2  C   UNK N   1      34.561  15.088   8.217  0.00  0.00     0.375 C 
BRANCH   2   3
HETATM    3  C   UNK N   1      35.541  14.822   7.107  0.00  0.00     0.243 C 
HETATM    4  N   UNK N   1      36.429  13.819   7.238  0.00  0.00    -0.369 N 
HETATM    5  H   UNK N   1      36.677  13.484   8.130  0.00  0.00     0.159 HD
HETATM    6  H   UNK N   1      36.835  13.418   6.436  0.00  0.00     0.159 HD
HETATM    7  O   UNK N   1      35.538  15.495   6.088  0.00  0.00    -0.272 OA
ENDBRANCH   2   3
ENDBRANCH   1   2
BRANCH   1   8
HETATM    8  C   UNK N   1      34.742  15.542  10.470  0.00  0.00     0.382 C 
BRANCH   8   9
HETATM    9  C   UNK N   1      35.949  15.547  11.366  0.00  0.00     0.169 C 
HETATM   10  O   UNK N   1      35.895  15.104  12.500  0.00  0.00    -0.649 OA
BRANCH   9  11
HETATM   11  O   UNK N   1      37.106  16.059  10.906  0.00  0.00    -0.775 OA
HETATM   12  H   UNK N   1      37.588  16.695  11.397  0.00  0.00     0.167 HD
ENDBRANCH   9  11
ENDBRANCH   8   9
ENDBRANCH   1   8
BRANCH   1  13
HETATM   13  C   UNK N   1      34.039  17.245   9.008  0.00  0.00     0.382 C 
BRANCH  13  14
HETATM   14  C   UNK N   1      34.583  18.285   8.078  0.00  0.00     0.169 C 
HETATM   15  O   UNK N   1      35.252  19.203   8.521  0.00  0.00    -0.649 OA
BRANCH  14  16
HETATM   16  O   UNK N   1      34.370  18.194   6.753  0.00  0.00    -0.775 OA
HETATM   17  H   UNK N   1      33.890  18.789   6.211  0.00  0.00     0.167 HD
ENDBRANCH  14  16
ENDBRANCH  13  14
ENDBRANCH   1  13
TORSDOF 8
ENDMDL
MODEL 2
REMARK VINA RESULT:      -4.7     14.476     16.156
REMARK  8 active torsions:
REMARK  status: ('A' for Active; 'I' for Inactive)
REMARK       I    between atoms: N_1  and  C_2 
REMARK    1  A    between atoms: C_2  and  C_4 
REMARK    2  A    between atoms: C_4  and  N_5 
REMARK    3  A    between atoms: N_5  and  C_6 
REMARK    4  A    between atoms: N_5  and  C_10 
REMARK    5  A    between atoms: C_6  and  C_7 
REMARK    6  A    between atoms: C_7  and  O_8 
REMARK    7  A    between atoms: C_10  and  C_11 
REMARK    8  A    between atoms: C_11  and  O_12 
ROOT
HETATM    1  N   UNK N   1      20.971  18.303   2.669  0.00  0.00     0.117 N 
ENDROOT
BRANCH   1   2
HETATM    2  C   UNK N   1      21.119  18.158   4.117  0.00  0.00     0.375 C 
BRANCH   2   3
HETATM    3  C   UNK N   1      22.507  18.431   4.631  0.00  0.00     0.243 C 
HETATM    4  N   UNK N   1      22.902  17.871   5.790  0.00  0.00    -0.369 N 
HETATM    5  H   UNK N   1      22.239  17.576   6.455  0.00  0.00     0.159 HD
HETATM    6  H   UNK N   1      23.862  17.754   5.974  0.00  0.00     0.159 HD
HETATM    7  O   UNK N   1      23.280  19.146   4.013  0.00  0.00    -0.272 OA
ENDBRANCH   2   3
ENDBRANCH   1   2
BRANCH   1   8
HETATM    8  C   UNK N   1      20.275  19.578   2.509  0.00  0.00     0.382 C 
BRANCH   8   9
HETATM    9  C   UNK N   1      21.089  20.636   1.819  0.00  0.00     0.169 C 
HETATM   10  O   UNK N   1      21.196  20.658   0.604  0.00  0.00    -0.649 OA
BRANCH   9  11
HETATM   11  O   UNK N   1      21.717  21.568   2.558  0.00  0.00    -0.775 OA
HETATM   12  H   UNK N   1      21.317  22.395   2.745  0.00  0.00     0.167 HD
ENDBRANCH   9  11
ENDBRANCH   8   9
ENDBRANCH   1   8
BRANCH   1  13
HETATM   13  C   UNK N   1      20.057  17.253   2.219  0.00  0.00     0.382 C 
BRANCH  13  14
HETATM   14  C   UNK N   1      20.374  16.831   0.817  0.00  0.00     0.169 C 
HETATM   15  O   UNK N   1      20.703  15.679   0.591  0.00  0.00    -0.649 OA
BRANCH  14  16
HETATM   16  O   UNK N   1      20.264  17.705  -0.200  0.00  0.00    -0.775 OA
HETATM   17  H   UNK N   1      19.921  17.542  -1.056  0.00  0.00     0.167 HD
ENDBRANCH  14  16
ENDBRANCH  13  14
ENDBRANCH   1  13
TORSDOF 8
ENDMDL
MODEL 3
REMARK VINA RESULT:      -4.5      3.441      4.631
REMARK  8 active torsions:
REMARK  status: ('A' for Active; 'I' for Inactive)
REMARK       I    between atoms: N_1  and  C_2 
REMARK    1  A    between atoms: C_2  and  C_4 
REMARK    2  A    between atoms: C_4  and  N_5 
REMARK    3  A    between atoms: N_5  and  C_6 
REMARK    4  A    between atoms: N_5  and  C_10 
REMARK    5  A    between atoms: C_6  and  C_7 
REMARK    6  A    between atoms: C_7  and  O_8 
REMARK    7  A    between atoms: C_10  and  C_11 
REMARK    8  A    between atoms: C_11  and  O_12 
ROOT
HETATM    1  N   UNK N   1      32.190  17.130   8.553  0.00  0.00     0.117 N 
ENDROOT
BRANCH   1   2
HETATM    2  C   UNK N   1      32.232  15.775   8.003  0.00  0.00     0.375 C 
BRANCH   2   3
HETATM    3  C   UNK N   1      32.405  14.690   9.032  0.00  0.00     0.243 C 
HETATM    4  N   UNK N   1      32.545  15.027  10.327  0.00  0.00    -0.369 N 
HETATM    5  H   UNK N   1      32.862  15.924  10.580  0.00  0.00     0.159 HD
HETATM    6  H   UNK N   1      32.327  14.371  11.029  0.00  0.00     0.159 HD
HETATM    7  O   UNK N   1      32.416  13.512   8.711  0.00  0.00    -0.272 OA
ENDBRANCH   2   3
ENDBRANCH   1   2
BRANCH   1   8
HETATM    8  C   UNK N   1      30.873  17.630   8.165  0.00  0.00     0.382 C 
BRANCH   8   9
HETATM    9  C   UNK N   1      29.911  17.770   9.311  0.00  0.00     0.169 C 
HETATM   10  O   UNK N   1      29.120  18.697   9.361  0.00  0.00    -0.649 OA
BRANCH   9  11
HETATM   11  O   UNK N   1      29.933  16.860  10.302  0.00  0.00    -0.775 OA
HETATM   12  H   UNK N   1      29.693  15.967  10.152  0.00  0.00     0.167 HD
ENDBRANCH   9  11
ENDBRANCH   8   9
ENDBRANCH   1   8
BRANCH   1  13
HETATM   13  C   UNK N   1      33.183  17.923   7.829  0.00  0.00     0.382 C 
BRANCH  13  14
HETATM   14  C   UNK N   1      34.407  18.141   8.663  0.00  0.00     0.169 C 
HETATM   15  O   UNK N   1      34.657  17.381   9.583  0.00  0.00    -0.649 OA
BRANCH  14  16
HETATM   16  O   UNK N   1      35.253  19.149   8.383  0.00  0.00    -0.775 OA
HETATM   17  H   UNK N   1      35.465  19.883   8.926  0.00  0.00     0.167 HD
ENDBRANCH  14  16
ENDBRANCH  13  14
ENDBRANCH   1  13
TORSDOF 8
ENDMDL
MODEL 4
REMARK VINA RESULT:      -4.5      3.435      4.667
REMARK  8 active torsions:
REMARK  status: ('A' for Active; 'I' for Inactive)
REMARK       I    between atoms: N_1  and  C_2 
REMARK    1  A    between atoms: C_2  and  C_4 
REMARK    2  A    between atoms: C_4  and  N_5 
REMARK    3  A    between atoms: N_5  and  C_6 
REMARK    4  A    between atoms: N_5  and  C_10 
REMARK    5  A    between atoms: C_6  and  C_7 
REMARK    6  A    between atoms: C_7  and  O_8 
REMARK    7  A    between atoms: C_10  and  C_11 
REMARK    8  A    between atoms: C_11  and  O_12 
ROOT
HETATM    1  N   UNK N   1      36.239  14.077  12.568  0.00  0.00     0.117 N 
ENDROOT
BRANCH   1   2
HETATM    2  C   UNK N   1      36.269  12.756  11.941  0.00  0.00     0.375 C 
BRANCH   2   3
HETATM    3  C   UNK N   1      37.617  12.349  11.410  0.00  0.00     0.243 C 
HETATM    4  N   UNK N   1      38.483  13.300  11.013  0.00  0.00    -0.369 N 
HETATM    5  H   UNK N   1      38.161  14.193  10.751  0.00  0.00     0.159 HD
HETATM    6  H   UNK N   1      39.447  13.102  10.984  0.00  0.00     0.159 HD
HETATM    7  O   UNK N   1      37.939  11.174  11.338  0.00  0.00    -0.272 OA
ENDBRANCH   2   3
ENDBRANCH   1   2
BRANCH   1   8
HETATM    8  C   UNK N   1      35.715  13.823  13.908  0.00  0.00     0.382 C 
BRANCH   8   9
HETATM    9  C   UNK N   1      36.772  13.480  14.920  0.00  0.00     0.169 C 
HETATM   10  O   UNK N   1      36.901  12.340  15.335  0.00  0.00    -0.649 OA
BRANCH   9  11
HETATM   11  O   UNK N   1      37.582  14.450  15.381  0.00  0.00    -0.775 OA
HETATM   12  H   UNK N   1      37.507  14.775  16.257  0.00  0.00     0.167 HD
ENDBRANCH   9  11
ENDBRANCH   8   9
ENDBRANCH   1   8
BRANCH   1  13
HETATM   13  C   UNK N   1      35.236  14.871  11.857  0.00  0.00     0.382 C 
BRANCH  13  14
HETATM   14  C   UNK N   1      35.872  16.027  11.148  0.00  0.00     0.169 C 
HETATM   15  O   UNK N   1      35.214  17.023  10.901  0.00  0.00    -0.649 OA
BRANCH  14  16
HETATM   16  O   UNK N   1      37.174  15.989  10.813  0.00  0.00    -0.775 OA
HETATM   17  H   UNK N   1      37.857  16.555  11.115  0.00  0.00     0.167 HD
ENDBRANCH  14  16
ENDBRANCH  13  14
ENDBRANCH   1  13
TORSDOF 8
ENDMDL
MODEL 5
REMARK VINA RESULT:      -4.4     14.394     15.887
REMARK  8 active torsions:
REMARK  status: ('A' for Active; 'I' for Inactive)
REMARK       I    between atoms: N_1  and  C_2 
REMARK    1  A    between atoms: C_2  and  C_4 
REMARK    2  A    between atoms: C_4  and  N_5 
REMARK    3  A    between atoms: N_5  and  C_6 
REMARK    4  A    between atoms: N_5  and  C_10 
REMARK    5  A    between atoms: C_6  and  C_7 
REMARK    6  A    between atoms: C_7  and  O_8 
REMARK    7  A    between atoms: C_10  and  C_11 
REMARK    8  A    between atoms: C_11  and  O_12 
ROOT
HETATM    1  N   UNK N   1      21.222  18.690   4.250  0.00  0.00     0.117 N 
ENDROOT
BRANCH   1   2
HETATM    2  C   UNK N   1      20.495  17.625   3.560  0.00  0.00     0.375 C 
BRANCH   2   3
HETATM    3  C   UNK N   1      19.499  18.110   2.542  0.00  0.00     0.243 C 
HETATM    4  N   UNK N   1      19.413  17.484   1.354  0.00  0.00    -0.369 N 
HETATM    5  H   UNK N   1      20.171  16.960   1.008  0.00  0.00     0.159 HD
HETATM    6  H   UNK N   1      18.585  17.550   0.825  0.00  0.00     0.159 HD
HETATM    7  O   UNK N   1      18.765  19.057   2.778  0.00  0.00    -0.272 OA
ENDBRANCH   2   3
ENDBRANCH   1   2
BRANCH   1   8
HETATM    8  C   UNK N   1      22.162  19.186   3.248  0.00  0.00     0.382 C 
BRANCH   8   9
HETATM    9  C   UNK N   1      22.070  20.666   3.005  0.00  0.00     0.169 C 
HETATM   10  O   UNK N   1      23.067  21.334   2.788  0.00  0.00    -0.649 OA
BRANCH   9  11
HETATM   11  O   UNK N   1      20.865  21.264   3.037  0.00  0.00    -0.775 OA
HETATM   12  H   UNK N   1      20.124  20.850   3.435  0.00  0.00     0.167 HD
ENDBRANCH   9  11
ENDBRANCH   8   9
ENDBRANCH   1   8
BRANCH   1  13
HETATM   13  C   UNK N   1      22.013  18.060   5.308  0.00  0.00     0.382 C 
BRANCH  13  14
HETATM   14  C   UNK N   1      21.190  17.850   6.541  0.00  0.00     0.169 C 
HETATM   15  O   UNK N   1      20.852  16.723   6.860  0.00  0.00    -0.649 OA
BRANCH  14  16
HETATM   16  O   UNK N   1      20.851  18.894   7.320  0.00  0.00    -0.775 OA
HETATM   17  H   UNK N   1      20.292  19.612   7.098  0.00  0.00     0.167 HD
ENDBRANCH  14  16
ENDBRANCH  13  14
ENDBRANCH   1  13
TORSDOF 8
ENDMDL
MODEL 6
REMARK VINA RESULT:      -4.4      1.763      2.131
REMARK  8 active torsions:
REMARK  status: ('A' for Active; 'I' for Inactive)
REMARK       I    between atoms: N_1  and  C_2 
REMARK    1  A    between atoms: C_2  and  C_4 
REMARK    2  A    between atoms: C_4  and  N_5 
REMARK    3  A    between atoms: N_5  and  C_6 
REMARK    4  A    between atoms: N_5  and  C_10 
REMARK    5  A    between atoms: C_6  and  C_7 
REMARK    6  A    between atoms: C_7  and  O_8 
REMARK    7  A    between atoms: C_10  and  C_11 
REMARK    8  A    between atoms: C_11  and  O_12 
ROOT
HETATM    1  N   UNK N   1      34.050  15.897   8.822  0.00  0.00     0.117 N 
ENDROOT
BRANCH   1   2
HETATM    2  C   UNK N   1      33.000  14.908   8.580  0.00  0.00     0.375 C 
BRANCH   2   3
HETATM    3  C   UNK N   1      32.771  14.587   7.127  0.00  0.00     0.243 C 
HETATM    4  N   UNK N   1      33.762  14.797   6.242  0.00  0.00    -0.369 N 
HETATM    5  H   UNK N   1      34.483  15.438   6.439  0.00  0.00     0.159 HD
HETATM    6  H   UNK N   1      33.767  14.305   5.389  0.00  0.00     0.159 HD
HETATM    7  O   UNK N   1      31.704  14.135   6.743  0.00  0.00    -0.272 OA
ENDBRANCH   2   3
ENDBRANCH   1   2
BRANCH   1   8
HETATM    8  C   UNK N   1      34.371  15.736  10.239  0.00  0.00     0.382 C 
BRANCH   8   9
HETATM    9  C   UNK N   1      35.733  16.245  10.618  0.00  0.00     0.169 C 
HETATM   10  O   UNK N   1      35.984  17.438  10.613  0.00  0.00    -0.649 OA
BRANCH   9  11
HETATM   11  O   UNK N   1      36.691  15.365  10.961  0.00  0.00    -0.775 OA
HETATM   12  H   UNK N   1      37.208  14.927  10.313  0.00  0.00     0.167 HD
ENDBRANCH   9  11
ENDBRANCH   8   9
ENDBRANCH   1   8
BRANCH   1  13
HETATM   13  C   UNK N   1      33.445  17.220   8.666  0.00  0.00     0.382 C 
BRANCH  13  14
HETATM   14  C   UNK N   1      34.295  18.100   7.802  0.00  0.00     0.169 C 
HETATM   15  O   UNK N   1      34.318  17.925   6.596  0.00  0.00    -0.649 OA
BRANCH  14  16
HETATM   16  O   UNK N   1      35.005  19.106   8.344  0.00  0.00    -0.775 OA
HETATM   17  H   UNK N   1      35.420  19.123   9.183  0.00  0.00     0.167 HD
ENDBRANCH  14  16
ENDBRANCH  13  14
ENDBRANCH   1  13
TORSDOF 8
ENDMDL
MODEL 7
REMARK VINA RESULT:      -4.4      4.005      5.784
REMARK  8 active torsions:
REMARK  status: ('A' for Active; 'I' for Inactive)
REMARK       I    between atoms: N_1  and  C_2 
REMARK    1  A    between atoms: C_2  and  C_4 
REMARK    2  A    between atoms: C_4  and  N_5 
REMARK    3  A    between atoms: N_5  and  C_6 
REMARK    4  A    between atoms: N_5  and  C_10 
REMARK    5  A    between atoms: C_6  and  C_7 
REMARK    6  A    between atoms: C_7  and  O_8 
REMARK    7  A    between atoms: C_10  and  C_11 
REMARK    8  A    between atoms: C_11  and  O_12 
ROOT
HETATM    1  N   UNK N   1      31.401  17.195   8.653  0.00  0.00     0.117 N 
ENDROOT
BRANCH   1   2
HETATM    2  C   UNK N   1      30.065  17.602   8.219  0.00  0.00     0.375 C 
BRANCH   2   3
HETATM    3  C   UNK N   1      29.233  18.252   9.291  0.00  0.00     0.243 C 
HETATM    4  N   UNK N   1      27.892  18.251   9.175  0.00  0.00    -0.369 N 
HETATM    5  H   UNK N   1      27.465  18.145   8.294  0.00  0.00     0.159 HD
HETATM    6  H   UNK N   1      27.333  18.356   9.978  0.00  0.00     0.159 HD
HETATM    7  O   UNK N   1      29.754  18.775  10.263  0.00  0.00    -0.272 OA
ENDBRANCH   2   3
ENDBRANCH   1   2
BRANCH   1   8
HETATM    8  C   UNK N   1      32.290  18.176   8.034  0.00  0.00     0.382 C 
BRANCH   8   9
HETATM    9  C   UNK N   1      33.747  17.948   8.325  0.00  0.00     0.169 C 
HETATM   10  O   UNK N   1      34.597  18.129   7.470  0.00  0.00    -0.649 OA
BRANCH   9  11
HETATM   11  O   UNK N   1      34.115  17.528   9.550  0.00  0.00    -0.775 OA
HETATM   12  H   UNK N   1      33.597  17.716  10.307  0.00  0.00     0.167 HD
ENDBRANCH   9  11
ENDBRANCH   8   9
ENDBRANCH   1   8
BRANCH   1  13
HETATM   13  C   UNK N   1      31.685  15.902   8.029  0.00  0.00     0.382 C 
BRANCH  13  14
HETATM   14  C   UNK N   1      32.069  14.884   9.057  0.00  0.00     0.169 C 
HETATM   15  O   UNK N   1      32.304  13.737   8.716  0.00  0.00    -0.649 OA
BRANCH  14  16
HETATM   16  O   UNK N   1      32.193  15.233  10.351  0.00  0.00    -0.775 OA
HETATM   17  H   UNK N   1      32.386  16.082  10.695  0.00  0.00     0.167 HD
ENDBRANCH  14  16
ENDBRANCH  13  14
ENDBRANCH   1  13
TORSDOF 8
ENDMDL
MODEL 8
REMARK VINA RESULT:      -4.3     12.293     13.626
REMARK  8 active torsions:
REMARK  status: ('A' for Active; 'I' for Inactive)
REMARK       I    between atoms: N_1  and  C_2 
REMARK    1  A    between atoms: C_2  and  C_4 
REMARK    2  A    between atoms: C_4  and  N_5 
REMARK    3  A    between atoms: N_5  and  C_6 
REMARK    4  A    between atoms: N_5  and  C_10 
REMARK    5  A    between atoms: C_6  and  C_7 
REMARK    6  A    between atoms: C_7  and  O_8 
REMARK    7  A    between atoms: C_10  and  C_11 
REMARK    8  A    between atoms: C_11  and  O_12 
ROOT
HETATM    1  N   UNK N   1      43.757  23.398   1.981  0.00  0.00     0.117 N 
ENDROOT
BRANCH   1   2
HETATM    2  C   UNK N   1      42.713  23.176   0.981  0.00  0.00     0.375 C 
BRANCH   2   3
HETATM    3  C   UNK N   1      41.324  23.528   1.442  0.00  0.00     0.243 C 
HETATM    4  N   UNK N   1      40.828  24.748   1.164  0.00  0.00    -0.369 N 
HETATM    5  H   UNK N   1      41.431  25.503   0.977  0.00  0.00     0.159 HD
HETATM    6  H   UNK N   1      39.854  24.887   1.149  0.00  0.00     0.159 HD
HETATM    7  O   UNK N   1      40.641  22.724   2.056  0.00  0.00    -0.272 OA
ENDBRANCH   2   3
ENDBRANCH   1   2
BRANCH   1   8
HETATM    8  C   UNK N   1      44.827  24.060   1.237  0.00  0.00     0.382 C 
BRANCH   8   9
HETATM    9  C   UNK N   1      45.566  25.102   2.028  0.00  0.00     0.169 C 
HETATM   10  O   UNK N   1      45.211  26.269   2.021  0.00  0.00    -0.649 OA
BRANCH   9  11
HETATM   11  O   UNK N   1      46.642  24.739   2.750  0.00  0.00    -0.775 OA
HETATM   12  H   UNK N   1      46.865  23.838   2.876  0.00  0.00     0.167 HD
ENDBRANCH   9  11
ENDBRANCH   8   9
ENDBRANCH   1   8
BRANCH   1  13
HETATM   13  C   UNK N   1      44.261  22.084   2.382  0.00  0.00     0.382 C 
BRANCH  13  14
HETATM   14  C   UNK N   1      44.587  22.059   3.843  0.00  0.00     0.169 C 
HETATM   15  O   UNK N   1      43.710  21.825   4.656  0.00  0.00    -0.649 OA
BRANCH  14  16
HETATM   16  O   UNK N   1      45.850  22.255   4.264  0.00  0.00    -0.775 OA
HETATM   17  H   UNK N   1      46.543  21.625   4.298  0.00  0.00     0.167 HD
ENDBRANCH  14  16
ENDBRANCH  13  14
ENDBRANCH   1  13
TORSDOF 8
ENDMDL
MODEL 9
REMARK VINA RESULT:      -4.2      1.251      4.108
REMARK  8 active torsions:
REMARK  status: ('A' for Active; 'I' for Inactive)
REMARK       I    between atoms: N_1  and  C_2 
REMARK    1  A    between atoms: C_2  and  C_4 
REMARK    2  A    between atoms: C_4  and  N_5 
REMARK    3  A    between atoms: N_5  and  C_6 
REMARK    4  A    between atoms: N_5  and  C_10 
REMARK    5  A    between atoms: C_6  and  C_7 
REMARK    6  A    between atoms: C_7  and  O_8 
REMARK    7  A    between atoms: C_10  and  C_11 
REMARK    8  A    between atoms: C_11  and  O_12 
ROOT
HETATM    1  N   UNK N   1      34.872  15.985   8.990  0.00  0.00     0.117 N 
ENDROOT
BRANCH   1   2
HETATM    2  C   UNK N   1      34.865  15.525  10.379  0.00  0.00     0.375 C 
BRANCH   2   3
HETATM    3  C   UNK N   1      36.232  15.321  10.973  0.00  0.00     0.243 C 
HETATM    4  N   UNK N   1      36.354  15.154  12.303  0.00  0.00    -0.369 N 
HETATM    5  H   UNK N   1      35.655  15.481  12.915  0.00  0.00     0.159 HD
HETATM    6  H   UNK N   1      37.148  14.701  12.668  0.00  0.00     0.159 HD
HETATM    7  O   UNK N   1      37.230  15.300  10.270  0.00  0.00    -0.272 OA
ENDBRANCH   2   3
ENDBRANCH   1   2
BRANCH   1   8
HETATM    8  C   UNK N   1      34.094  17.222   9.021  0.00  0.00     0.382 C 
BRANCH   8   9
HETATM    9  C   UNK N   1      34.611  18.291   8.100  0.00  0.00     0.169 C 
HETATM   10  O   UNK N   1      35.249  19.238   8.528  0.00  0.00    -0.649 OA
BRANCH   9  11
HETATM   11  O   UNK N   1      34.356  18.203   6.782  0.00  0.00    -0.775 OA
HETATM   12  H   UNK N   1      34.688  18.836   6.176  0.00  0.00     0.167 HD
ENDBRANCH   9  11
ENDBRANCH   8   9
ENDBRANCH   1   8
BRANCH   1  13
HETATM   13  C   UNK N   1      34.106  15.015   8.208  0.00  0.00     0.382 C 
BRANCH  13  14
HETATM   14  C   UNK N   1      34.851  14.614   6.972  0.00  0.00     0.169 C 
HETATM   15  O   UNK N   1      35.498  15.446   6.358  0.00  0.00    -0.649 OA
BRANCH  14  16
HETATM   16  O   UNK N   1      34.842  13.335   6.554  0.00  0.00    -0.775 OA
HETATM   17  H   UNK N   1      35.333  12.963   5.849  0.00  0.00     0.167 HD
ENDBRANCH  14  16
ENDBRANCH  13  14
ENDBRANCH   1  13
TORSDOF 8
ENDMDL
