MODEL 1
REMARK VINA RESULT:      -7.5      0.000      0.000
REMARK  11 active torsions:
REMARK  status: ('A' for Active; 'I' for Inactive)
REMARK    1  A    between atoms: C_3  and  C_1 
REMARK    2  A    between atoms: O_27  and  C_1 
REMARK    3  A    between atoms: O_19  and  C_8 
REMARK    4  A    between atoms: C_9  and  N_18 
REMARK       I    between atoms: N_11  and  C_10 
REMARK    5  A    between atoms: P_32  and  O_20 
REMARK    6  A    between atoms: P_32  and  O_21 
REMARK    7  A    between atoms: P_33  and  O_23 
REMARK    8  A    between atoms: P_34  and  O_25 
REMARK    9  A    between atoms: P_33  and  O_27 
REMARK   10  A    between atoms: P_32  and  O_31 
REMARK   11  A    between atoms: P_33  and  O_31 
ROOT
HETATM    1  C   UNK N   1      23.453  16.175   5.887  0.00  0.00     0.180 C 
HETATM    2  C   UNK N   1      24.099  15.671   4.600  0.00  0.00     0.198 C 
HETATM    3  C   UNK N   1      24.721  16.866   4.018  0.00  0.00     0.215 C 
HETATM    4  C   UNK N   1      24.061  18.022   4.792  0.00  0.00     0.263 C 
HETATM    5  O   UNK N   1      27.604  15.538   4.308  0.00  0.00    -0.631 OA
HETATM    6  O   UNK N   1      23.039  17.482   5.604  0.00  0.00    -0.353 OA
HETATM    7  O   UNK N   1      25.092  14.714   4.767  0.00  0.00    -0.286 OA
HETATM    8  O   UNK N   1      26.103  16.796   4.216  0.00  0.00    -0.284 OA
HETATM    9  P   UNK N   1      26.503  15.550   5.403  0.00  0.00     0.394 P 
ENDROOT
BRANCH   4  10
HETATM   10  N   UNK N   1      23.519  19.055   3.903  0.00  0.00    -0.297 N 
HETATM   11  C   UNK N   1      24.161  20.177   3.483  0.00  0.00     0.188 A 
HETATM   12  N   UNK N   1      23.347  20.962   2.720  0.00  0.00    -0.346 N 
HETATM   13  C   UNK N   1      22.181  20.289   2.677  0.00  0.00     0.130 A 
ATOM     14  HN  UNK N   1      23.571  21.855   2.283  1.00  0.00     0.167 HD
HETATM   15  C   UNK N   1      22.287  19.145   3.376  0.00  0.00     0.157 A 
HETATM   16  C   UNK N   1      20.983  20.623   2.064  0.00  0.00     0.186 A 
HETATM   17  N   UNK N   1      21.258  18.270   3.499  0.00  0.00    -0.174 N 
HETATM   18  C   UNK N   1      20.074  18.575   2.884  0.00  0.00     0.679 A 
HETATM   19  H   UNK N   1      21.359  17.438   4.016  0.00  0.00     0.186 HD
HETATM   20  N   UNK N   1      19.086  17.767   2.970  0.00  0.00    -0.234 N 
HETATM   21  N   UNK N   1      19.940  19.747   2.179  0.00  0.00    -0.168 N 
HETATM   22  H   UNK N   1      19.190  16.884   3.393  0.00  0.00     0.174 HD
ATOM     23  HN  UNK N   1      18.179  18.041   2.595  1.00  0.00     0.174 HD
ATOM     24  HN  UNK N   1      19.048  19.967   1.734  1.00  0.00     0.186 HD
BRANCH  16  25
HETATM   25  O   UNK N   1      20.840  21.773   1.386  0.00  0.00    -0.344 OA
HETATM   26  H   UNK N   1      19.999  22.142   1.204  0.00  0.00     0.219 HD
ENDBRANCH  16  25
ENDBRANCH   4  10
BRANCH   1  27
HETATM   27  C   UNK N   1      22.247  15.340   6.291  0.00  0.00     0.215 C 
BRANCH  27  28
HETATM   28  O   UNK N   1      21.081  16.104   6.161  0.00  0.00    -0.294 OA
BRANCH  28  29
HETATM   29  P   UNK N   1      20.165  15.789   7.597  0.00  0.00     0.401 P 
HETATM   30  O   UNK N   1      20.810  16.626   8.738  0.00  0.00    -0.631 OA
BRANCH  29  31
HETATM   31  O   UNK N   1      18.531  16.357   7.436  0.00  0.00    -0.307 OA
HETATM   32  H   UNK N   1      18.274  17.290   7.494  0.00  0.00     0.222 HD
ENDBRANCH  29  31
BRANCH  29  33
HETATM   33  O   UNK N   1      20.225  14.080   7.977  0.00  0.00    -0.195 OA
BRANCH  33  34
HETATM   34  P   UNK N   1      20.915  13.892   9.570  0.00  0.00     0.399 P 
HETATM   35  O   UNK N   1      21.090  12.440   9.046  0.00  0.00    -0.631 OA
BRANCH  34  36
HETATM   36  O   UNK N   1      20.123  12.979  10.813  0.00  0.00    -0.307 OA
HETATM   37  H   UNK N   1      19.220  12.634  10.898  0.00  0.00     0.222 HD
ENDBRANCH  34  36
BRANCH  34  38
HETATM   38  O   UNK N   1      19.213  14.226   9.635  0.00  0.00    -0.307 OA
HETATM   39  H   UNK N   1      18.667  14.233  10.436  0.00  0.00     0.222 HD
ENDBRANCH  34  38
ENDBRANCH  33  34
ENDBRANCH  29  33
ENDBRANCH  28  29
ENDBRANCH  27  28
ENDBRANCH   1  27
BRANCH   9  40
HETATM   40  O   UNK N   1      26.993  13.919   5.067  0.00  0.00    -0.307 OA
HETATM   41  H   UNK N   1      26.839  13.369   4.283  0.00  0.00     0.222 HD
ENDBRANCH   9  40
TORSDOF 11
ENDMDL
MODEL 2
REMARK VINA RESULT:      -7.5      9.310     12.124
REMARK  11 active torsions:
REMARK  status: ('A' for Active; 'I' for Inactive)
REMARK    1  A    between atoms: C_3  and  C_1 
REMARK    2  A    between atoms: O_27  and  C_1 
REMARK    3  A    between atoms: O_19  and  C_8 
REMARK    4  A    between atoms: C_9  and  N_18 
REMARK       I    between atoms: N_11  and  C_10 
REMARK    5  A    between atoms: P_32  and  O_20 
REMARK    6  A    between atoms: P_32  and  O_21 
REMARK    7  A    between atoms: P_33  and  O_23 
REMARK    8  A    between atoms: P_34  and  O_25 
REMARK    9  A    between atoms: P_33  and  O_27 
REMARK   10  A    between atoms: P_32  and  O_31 
REMARK   11  A    between atoms: P_33  and  O_31 
ROOT
HETATM    1  C   UNK N   1      33.494  14.044   9.142  0.00  0.00     0.180 C 
HETATM    2  C   UNK N   1      34.590  14.926   8.550  0.00  0.00     0.198 C 
HETATM    3  C   UNK N   1      33.921  16.209   8.300  0.00  0.00     0.215 C 
HETATM    4  C   UNK N   1      32.426  15.854   8.393  0.00  0.00     0.263 C 
HETATM    5  O   UNK N   1      35.856  17.650  10.382  0.00  0.00    -0.631 OA
HETATM    6  O   UNK N   1      32.312  14.451   8.512  0.00  0.00    -0.353 OA
HETATM    7  O   UNK N   1      35.675  15.167   9.382  0.00  0.00    -0.286 OA
HETATM    8  O   UNK N   1      34.326  17.124   9.277  0.00  0.00    -0.284 OA
HETATM    9  P   UNK N   1      35.130  16.298  10.615  0.00  0.00     0.394 P 
ENDROOT
BRANCH   4  10
HETATM   10  N   UNK N   1      31.663  16.335   7.236  0.00  0.00    -0.297 N 
HETATM   11  C   UNK N   1      32.035  16.249   5.932  0.00  0.00     0.188 A 
HETATM   12  N   UNK N   1      31.129  16.858   5.113  0.00  0.00    -0.346 N 
HETATM   13  C   UNK N   1      30.181  17.320   5.951  0.00  0.00     0.130 A 
ATOM     14  HN  UNK N   1      31.162  16.943   4.098  1.00  0.00     0.167 HD
HETATM   15  C   UNK N   1      30.496  16.998   7.219  0.00  0.00     0.157 A 
HETATM   16  C   UNK N   1      29.030  18.043   5.681  0.00  0.00     0.186 A 
HETATM   17  N   UNK N   1      29.712  17.341   8.272  0.00  0.00    -0.174 N 
HETATM   18  C   UNK N   1      28.562  18.038   8.021  0.00  0.00     0.679 A 
HETATM   19  H   UNK N   1      29.963  17.095   9.191  0.00  0.00     0.186 HD
HETATM   20  N   UNK N   1      27.793  18.367   8.988  0.00  0.00    -0.234 N 
HETATM   21  N   UNK N   1      28.230  18.390   6.734  0.00  0.00    -0.168 N 
HETATM   22  H   UNK N   1      27.967  18.047   9.903  0.00  0.00     0.174 HD
ATOM     23  HN  UNK N   1      26.990  18.969   8.810  1.00  0.00     0.174 HD
ATOM     24  HN  UNK N   1      27.375  18.919   6.562  1.00  0.00     0.186 HD
BRANCH  16  25
HETATM   25  O   UNK N   1      28.707  18.403   4.428  0.00  0.00    -0.344 OA
HETATM   26  H   UNK N   1      29.339  18.756   3.834  0.00  0.00     0.219 HD
ENDBRANCH  16  25
ENDBRANCH   4  10
BRANCH   1  27
HETATM   27  C   UNK N   1      33.731  12.567   8.863  0.00  0.00     0.215 C 
BRANCH  27  28
HETATM   28  O   UNK N   1      35.035  12.222   9.240  0.00  0.00    -0.294 OA
BRANCH  28  29
HETATM   29  P   UNK N   1      34.872  11.419  10.766  0.00  0.00     0.401 P 
HETATM   30  O   UNK N   1      33.659  10.452  10.642  0.00  0.00    -0.631 OA
BRANCH  29  31
HETATM   31  O   UNK N   1      36.256  10.426  11.105  0.00  0.00    -0.307 OA
HETATM   32  H   UNK N   1      37.059  10.412  10.561  0.00  0.00     0.222 HD
ENDBRANCH  29  31
BRANCH  29  33
HETATM   33  O   UNK N   1      34.591  12.598  12.031  0.00  0.00    -0.195 OA
BRANCH  33  34
HETATM   34  P   UNK N   1      36.004  12.656  13.056  0.00  0.00     0.399 P 
HETATM   35  O   UNK N   1      35.143  13.747  13.750  0.00  0.00    -0.631 OA
BRANCH  34  36
HETATM   36  O   UNK N   1      37.090  14.008  13.049  0.00  0.00    -0.307 OA
HETATM   37  H   UNK N   1      38.024  14.098  13.296  0.00  0.00     0.222 HD
ENDBRANCH  34  36
BRANCH  34  38
HETATM   38  O   UNK N   1      36.348  13.203  11.445  0.00  0.00    -0.307 OA
HETATM   39  H   UNK N   1      35.714  13.245  10.712  0.00  0.00     0.222 HD
ENDBRANCH  34  38
ENDBRANCH  33  34
ENDBRANCH  29  33
ENDBRANCH  28  29
ENDBRANCH  27  28
ENDBRANCH   1  27
BRANCH   9  40
HETATM   40  O   UNK N   1      36.841  16.101  10.833  0.00  0.00    -0.307 OA
HETATM   41  H   UNK N   1      37.337  15.708  11.568  0.00  0.00     0.222 HD
ENDBRANCH   9  40
TORSDOF 11
ENDMDL
MODEL 3
REMARK VINA RESULT:      -7.4      6.681      9.383
REMARK  11 active torsions:
REMARK  status: ('A' for Active; 'I' for Inactive)
REMARK    1  A    between atoms: C_3  and  C_1 
REMARK    2  A    between atoms: O_27  and  C_1 
REMARK    3  A    between atoms: O_19  and  C_8 
REMARK    4  A    between atoms: C_9  and  N_18 
REMARK       I    between atoms: N_11  and  C_10 
REMARK    5  A    between atoms: P_32  and  O_20 
REMARK    6  A    between atoms: P_32  and  O_21 
REMARK    7  A    between atoms: P_33  and  O_23 
REMARK    8  A    between atoms: P_34  and  O_25 
REMARK    9  A    between atoms: P_33  and  O_27 
REMARK   10  A    between atoms: P_32  and  O_31 
REMARK   11  A    between atoms: P_33  and  O_31 
ROOT
HETATM    1  C   UNK N   1      31.842  16.330   5.131  0.00  0.00     0.180 C 
HETATM    2  C   UNK N   1      31.261  15.333   6.130  0.00  0.00     0.198 C 
HETATM    3  C   UNK N   1      29.824  15.632   6.142  0.00  0.00     0.215 C 
HETATM    4  C   UNK N   1      29.744  17.013   5.466  0.00  0.00     0.263 C 
HETATM    5  O   UNK N   1      29.182  12.719   5.021  0.00  0.00    -0.631 OA
HETATM    6  O   UNK N   1      31.060  17.484   5.266  0.00  0.00    -0.353 OA
HETATM    7  O   UNK N   1      31.413  13.994   5.792  0.00  0.00    -0.286 OA
HETATM    8  O   UNK N   1      29.152  14.635   5.429  0.00  0.00    -0.284 OA
HETATM    9  P   UNK N   1      30.285  13.669   4.481  0.00  0.00     0.394 P 
ENDROOT
BRANCH   4  10
HETATM   10  N   UNK N   1      28.967  17.978   6.251  0.00  0.00    -0.297 N 
HETATM   11  C   UNK N   1      28.919  18.063   7.606  0.00  0.00     0.188 A 
HETATM   12  N   UNK N   1      28.043  19.026   8.015  0.00  0.00    -0.346 N 
HETATM   13  C   UNK N   1      27.553  19.537   6.871  0.00  0.00     0.130 A 
ATOM     14  HN  UNK N   1      27.813  19.296   8.971  1.00  0.00     0.167 HD
HETATM   15  C   UNK N   1      28.112  18.917   5.816  0.00  0.00     0.157 A 
HETATM   16  C   UNK N   1      26.605  20.530   6.673  0.00  0.00     0.186 A 
HETATM   17  N   UNK N   1      27.799  19.236   4.535  0.00  0.00    -0.174 N 
HETATM   18  C   UNK N   1      26.880  20.227   4.322  0.00  0.00     0.679 A 
HETATM   19  H   UNK N   1      28.222  18.768   3.779  0.00  0.00     0.186 HD
HETATM   20  N   UNK N   1      26.570  20.561   3.127  0.00  0.00    -0.234 N 
HETATM   21  N   UNK N   1      26.284  20.862   5.386  0.00  0.00    -0.168 N 
HETATM   22  H   UNK N   1      27.050  20.182   2.355  0.00  0.00     0.174 HD
ATOM     23  HN  UNK N   1      25.815  21.228   2.971  1.00  0.00     0.174 HD
ATOM     24  HN  UNK N   1      25.593  21.591   5.213  1.00  0.00     0.186 HD
BRANCH  16  25
HETATM   25  O   UNK N   1      26.009  21.144   7.707  0.00  0.00    -0.344 OA
HETATM   26  H   UNK N   1      26.262  20.983   8.594  0.00  0.00     0.219 HD
ENDBRANCH  16  25
ENDBRANCH   4  10
BRANCH   1  27
HETATM   27  C   UNK N   1      33.295  16.666   5.433  0.00  0.00     0.215 C 
BRANCH  27  28
HETATM   28  O   UNK N   1      33.364  17.894   6.103  0.00  0.00    -0.294 OA
BRANCH  28  29
HETATM   29  P   UNK N   1      34.081  17.537   7.639  0.00  0.00     0.401 P 
HETATM   30  O   UNK N   1      35.162  16.446   7.392  0.00  0.00    -0.631 OA
BRANCH  29  31
HETATM   31  O   UNK N   1      34.916  18.918   8.278  0.00  0.00    -0.307 OA
HETATM   32  H   UNK N   1      35.196  19.678   7.744  0.00  0.00     0.222 HD
ENDBRANCH  29  31
BRANCH  29  33
HETATM   33  O   UNK N   1      32.855  16.949   8.744  0.00  0.00    -0.195 OA
BRANCH  33  34
HETATM   34  P   UNK N   1      33.341  15.375   9.323  0.00  0.00     0.399 P 
HETATM   35  O   UNK N   1      31.834  15.327   9.697  0.00  0.00    -0.631 OA
BRANCH  34  36
HETATM   36  O   UNK N   1      33.418  15.001  11.015  0.00  0.00    -0.307 OA
HETATM   37  H   UNK N   1      34.083  15.187  11.697  0.00  0.00     0.222 HD
ENDBRANCH  34  36
BRANCH  34  38
HETATM   38  O   UNK N   1      34.071  16.657  10.238  0.00  0.00    -0.307 OA
HETATM   39  H   UNK N   1      33.830  17.595  10.192  0.00  0.00     0.222 HD
ENDBRANCH  34  38
ENDBRANCH  33  34
ENDBRANCH  29  33
ENDBRANCH  28  29
ENDBRANCH  27  28
ENDBRANCH   1  27
BRANCH   9  40
HETATM   40  O   UNK N   1      30.981  12.145   4.938  0.00  0.00    -0.307 OA
HETATM   41  H   UNK N   1      31.484  11.504   4.412  0.00  0.00     0.222 HD
ENDBRANCH   9  40
TORSDOF 11
ENDMDL
MODEL 4
REMARK VINA RESULT:      -7.4      7.993     11.193
REMARK  11 active torsions:
REMARK  status: ('A' for Active; 'I' for Inactive)
REMARK    1  A    between atoms: C_3  and  C_1 
REMARK    2  A    between atoms: O_27  and  C_1 
REMARK    3  A    between atoms: O_19  and  C_8 
REMARK    4  A    between atoms: C_9  and  N_18 
REMARK       I    between atoms: N_11  and  C_10 
REMARK    5  A    between atoms: P_32  and  O_20 
REMARK    6  A    between atoms: P_32  and  O_21 
REMARK    7  A    between atoms: P_33  and  O_23 
REMARK    8  A    between atoms: P_34  and  O_25 
REMARK    9  A    between atoms: P_33  and  O_27 
REMARK   10  A    between atoms: P_32  and  O_31 
REMARK   11  A    between atoms: P_33  and  O_31 
ROOT
HETATM    1  C   UNK N   1      33.090  15.882   7.340  0.00  0.00     0.180 C 
HETATM    2  C   UNK N   1      32.033  14.823   7.644  0.00  0.00     0.198 C 
HETATM    3  C   UNK N   1      31.165  14.832   6.461  0.00  0.00     0.215 C 
HETATM    4  C   UNK N   1      31.543  16.146   5.753  0.00  0.00     0.263 C 
HETATM    5  O   UNK N   1      31.962  11.813   5.822  0.00  0.00    -0.631 OA
HETATM    6  O   UNK N   1      32.425  16.862   6.593  0.00  0.00    -0.353 OA
HETATM    7  O   UNK N   1      32.515  13.531   7.808  0.00  0.00    -0.286 OA
HETATM    8  O   UNK N   1      31.442  13.698   5.692  0.00  0.00    -0.284 OA
HETATM    9  P   UNK N   1      32.953  12.944   6.208  0.00  0.00     0.394 P 
ENDROOT
BRANCH   4  10
HETATM   10  N   UNK N   1      30.371  16.963   5.424  0.00  0.00    -0.297 N 
HETATM   11  C   UNK N   1      29.916  17.256   4.177  0.00  0.00     0.188 A 
HETATM   12  N   UNK N   1      28.844  18.099   4.223  0.00  0.00    -0.346 N 
HETATM   13  C   UNK N   1      28.646  18.316   5.537  0.00  0.00     0.130 A 
ATOM     14  HN  UNK N   1      28.313  18.478   3.440  1.00  0.00     0.167 HD
HETATM   15  C   UNK N   1      29.554  17.629   6.255  0.00  0.00     0.157 A 
HETATM   16  C   UNK N   1      27.710  19.113   6.177  0.00  0.00     0.186 A 
HETATM   17  N   UNK N   1      29.586  17.665   7.610  0.00  0.00    -0.174 N 
HETATM   18  C   UNK N   1      28.656  18.432   8.259  0.00  0.00     0.679 A 
HETATM   19  H   UNK N   1      30.260  17.154   8.114  0.00  0.00     0.186 HD
HETATM   20  N   UNK N   1      28.651  18.480   9.537  0.00  0.00    -0.234 N 
HETATM   21  N   UNK N   1      27.731  19.154   7.543  0.00  0.00    -0.168 N 
HETATM   22  H   UNK N   1      29.245  17.901  10.067  0.00  0.00     0.174 HD
ATOM     23  HN  UNK N   1      28.022  19.126  10.013  1.00  0.00     0.174 HD
ATOM     24  HN  UNK N   1      27.050  19.730   8.039  1.00  0.00     0.186 HD
BRANCH  16  25
HETATM   25  O   UNK N   1      26.813  19.833   5.484  0.00  0.00    -0.344 OA
HETATM   26  H   UNK N   1      26.231  19.439   4.865  0.00  0.00     0.219 HD
ENDBRANCH  16  25
ENDBRANCH   4  10
BRANCH   1  27
HETATM   27  C   UNK N   1      33.657  16.509   8.605  0.00  0.00     0.215 C 
BRANCH  27  28
HETATM   28  O   UNK N   1      34.866  15.886   8.937  0.00  0.00    -0.294 OA
BRANCH  28  29
HETATM   29  P   UNK N   1      34.786  15.617  10.646  0.00  0.00     0.401 P 
HETATM   30  O   UNK N   1      34.996  16.997  11.333  0.00  0.00    -0.631 OA
BRANCH  29  31
HETATM   31  O   UNK N   1      33.209  15.067  11.123  0.00  0.00    -0.307 OA
HETATM   32  H   UNK N   1      32.976  14.135  11.251  0.00  0.00     0.222 HD
ENDBRANCH  29  31
BRANCH  29  33
HETATM   33  O   UNK N   1      36.040  14.492  11.129  0.00  0.00    -0.195 OA
BRANCH  33  34
HETATM   34  P   UNK N   1      37.173  14.327   9.811  0.00  0.00     0.399 P 
HETATM   35  O   UNK N   1      37.728  13.229  10.760  0.00  0.00    -0.631 OA
BRANCH  34  36
HETATM   36  O   UNK N   1      38.833  14.807   9.959  0.00  0.00    -0.307 OA
HETATM   37  H   UNK N   1      39.613  14.646   9.405  0.00  0.00     0.222 HD
ENDBRANCH  34  36
BRANCH  34  38
HETATM   38  O   UNK N   1      37.336  15.854  10.620  0.00  0.00    -0.307 OA
HETATM   39  H   UNK N   1      36.978  16.075  11.493  0.00  0.00     0.222 HD
ENDBRANCH  34  38
ENDBRANCH  33  34
ENDBRANCH  29  33
ENDBRANCH  28  29
ENDBRANCH  27  28
ENDBRANCH   1  27
BRANCH   9  40
HETATM   40  O   UNK N   1      33.122  11.605   7.300  0.00  0.00    -0.307 OA
HETATM   41  H   UNK N   1      32.452  11.130   7.815  0.00  0.00     0.222 HD
ENDBRANCH   9  40
TORSDOF 11
ENDMDL
MODEL 5
REMARK VINA RESULT:      -7.4      3.340      5.504
REMARK  11 active torsions:
REMARK  status: ('A' for Active; 'I' for Inactive)
REMARK    1  A    between atoms: C_3  and  C_1 
REMARK    2  A    between atoms: O_27  and  C_1 
REMARK    3  A    between atoms: O_19  and  C_8 
REMARK    4  A    between atoms: C_9  and  N_18 
REMARK       I    between atoms: N_11  and  C_10 
REMARK    5  A    between atoms: P_32  and  O_20 
REMARK    6  A    between atoms: P_32  and  O_21 
REMARK    7  A    between atoms: P_33  and  O_23 
REMARK    8  A    between atoms: P_34  and  O_25 
REMARK    9  A    between atoms: P_33  and  O_27 
REMARK   10  A    between atoms: P_32  and  O_31 
REMARK   11  A    between atoms: P_33  and  O_31 
ROOT
HETATM    1  C   UNK N   1      20.629  18.061   4.810  0.00  0.00     0.180 C 
HETATM    2  C   UNK N   1      21.747  18.365   3.815  0.00  0.00     0.198 C 
HETATM    3  C   UNK N   1      21.227  17.877   2.532  0.00  0.00     0.215 C 
HETATM    4  C   UNK N   1      20.041  16.986   2.946  0.00  0.00     0.263 C 
HETATM    5  O   UNK N   1      21.302  20.835   1.348  0.00  0.00    -0.631 OA
HETATM    6  O   UNK N   1      20.042  16.876   4.354  0.00  0.00    -0.353 OA
HETATM    7  O   UNK N   1      22.060  19.709   3.663  0.00  0.00    -0.286 OA
HETATM    8  O   UNK N   1      20.841  18.974   1.757  0.00  0.00    -0.284 OA
HETATM    9  P   UNK N   1      20.748  20.437   2.743  0.00  0.00     0.394 P 
ENDROOT
BRANCH   4  10
HETATM   10  N   UNK N   1      20.094  15.658   2.326  0.00  0.00    -0.297 N 
HETATM   11  C   UNK N   1      19.724  15.344   1.057  0.00  0.00     0.188 A 
HETATM   12  N   UNK N   1      19.834  14.004   0.823  0.00  0.00    -0.346 N 
HETATM   13  C   UNK N   1      20.287  13.498   1.985  0.00  0.00     0.130 A 
ATOM     14  HN  UNK N   1      19.621  13.501  -0.038  1.00  0.00     0.167 HD
HETATM   15  C   UNK N   1      20.452  14.488   2.881  0.00  0.00     0.157 A 
HETATM   16  C   UNK N   1      20.559  12.186   2.339  0.00  0.00     0.186 A 
HETATM   17  N   UNK N   1      20.900  14.262   4.141  0.00  0.00    -0.174 N 
HETATM   18  C   UNK N   1      21.193  12.974   4.501  0.00  0.00     0.679 A 
HETATM   19  H   UNK N   1      21.013  15.003   4.779  0.00  0.00     0.186 HD
HETATM   20  N   UNK N   1      21.628  12.725   5.677  0.00  0.00    -0.234 N 
HETATM   21  N   UNK N   1      21.016  11.946   3.605  0.00  0.00    -0.168 N 
HETATM   22  H   UNK N   1      21.847  13.456   6.300  0.00  0.00     0.174 HD
ATOM     23  HN  UNK N   1      21.752  11.758   5.973  1.00  0.00     0.174 HD
ATOM     24  HN  UNK N   1      21.227  10.990   3.890  1.00  0.00     0.186 HD
BRANCH  16  25
HETATM   25  O   UNK N   1      20.375  11.175   1.475  0.00  0.00    -0.344 OA
HETATM   26  H   UNK N   1      21.082  10.804   0.986  0.00  0.00     0.219 HD
ENDBRANCH  16  25
ENDBRANCH   4  10
BRANCH   1  27
HETATM   27  C   UNK N   1      21.158  17.853   6.222  0.00  0.00     0.215 C 
BRANCH  27  28
HETATM   28  O   UNK N   1      21.430  16.495   6.425  0.00  0.00    -0.294 OA
BRANCH  28  29
HETATM   29  P   UNK N   1      20.301  15.978   7.633  0.00  0.00     0.401 P 
HETATM   30  O   UNK N   1      20.681  16.710   8.952  0.00  0.00    -0.631 OA
BRANCH  29  31
HETATM   31  O   UNK N   1      18.687  16.484   7.240  0.00  0.00    -0.307 OA
HETATM   32  H   UNK N   1      18.465  17.354   6.876  0.00  0.00     0.222 HD
ENDBRANCH  29  31
BRANCH  29  33
HETATM   33  O   UNK N   1      20.406  14.241   7.841  0.00  0.00    -0.195 OA
BRANCH  33  34
HETATM   34  P   UNK N   1      21.015  13.911   9.443  0.00  0.00     0.399 P 
HETATM   35  O   UNK N   1      21.108  12.483   8.839  0.00  0.00    -0.631 OA
BRANCH  34  36
HETATM   36  O   UNK N   1      20.110  12.989  10.599  0.00  0.00    -0.307 OA
HETATM   37  H   UNK N   1      19.257  12.529  10.546  0.00  0.00     0.222 HD
ENDBRANCH  34  36
BRANCH  34  38
HETATM   38  O   UNK N   1      19.341  14.366   9.466  0.00  0.00    -0.307 OA
HETATM   39  H   UNK N   1      18.664  14.010  10.062  0.00  0.00     0.222 HD
ENDBRANCH  34  38
ENDBRANCH  33  34
ENDBRANCH  29  33
ENDBRANCH  28  29
ENDBRANCH  27  28
ENDBRANCH   1  27
BRANCH   9  40
HETATM   40  O   UNK N   1      21.977  21.650   2.913  0.00  0.00    -0.307 OA
HETATM   41  H   UNK N   1      21.938  22.527   3.327  0.00  0.00     0.222 HD
ENDBRANCH   9  40
TORSDOF 11
ENDMDL
MODEL 6
REMARK VINA RESULT:      -7.3      1.501      2.211
REMARK  11 active torsions:
REMARK  status: ('A' for Active; 'I' for Inactive)
REMARK    1  A    between atoms: C_3  and  C_1 
REMARK    2  A    between atoms: O_27  and  C_1 
REMARK    3  A    between atoms: O_19  and  C_8 
REMARK    4  A    between atoms: C_9  and  N_18 
REMARK       I    between atoms: N_11  and  C_10 
REMARK    5  A    between atoms: P_32  and  O_20 
REMARK    6  A    between atoms: P_32  and  O_21 
REMARK    7  A    between atoms: P_33  and  O_23 
REMARK    8  A    between atoms: P_34  and  O_25 
REMARK    9  A    between atoms: P_33  and  O_27 
REMARK   10  A    between atoms: P_32  and  O_31 
REMARK   11  A    between atoms: P_33  and  O_31 
ROOT
HETATM    1  C   UNK N   1      24.047  15.698   5.724  0.00  0.00     0.180 C 
HETATM    2  C   UNK N   1      24.873  15.455   4.463  0.00  0.00     0.198 C 
HETATM    3  C   UNK N   1      25.346  16.791   4.081  0.00  0.00     0.215 C 
HETATM    4  C   UNK N   1      24.447  17.734   4.904  0.00  0.00     0.263 C 
HETATM    5  O   UNK N   1      28.366  15.875   4.522  0.00  0.00    -0.631 OA
HETATM    6  O   UNK N   1      23.458  16.955   5.542  0.00  0.00    -0.353 OA
HETATM    7  O   UNK N   1      25.986  14.641   4.627  0.00  0.00    -0.286 OA
HETATM    8  O   UNK N   1      26.699  16.900   4.413  0.00  0.00    -0.284 OA
HETATM    9  P   UNK N   1      27.188  15.591   5.493  0.00  0.00     0.394 P 
ENDROOT
BRANCH   4  10
HETATM   10  N   UNK N   1      23.827  18.777   4.080  0.00  0.00    -0.297 N 
HETATM   11  C   UNK N   1      24.424  19.914   3.634  0.00  0.00     0.188 A 
HETATM   12  N   UNK N   1      23.545  20.704   2.953  0.00  0.00    -0.346 N 
HETATM   13  C   UNK N   1      22.386  20.020   2.988  0.00  0.00     0.130 A 
ATOM     14  HN  UNK N   1      23.725  21.608   2.517  1.00  0.00     0.167 HD
HETATM   15  C   UNK N   1      22.557  18.864   3.654  0.00  0.00     0.157 A 
HETATM   16  C   UNK N   1      21.140  20.352   2.478  0.00  0.00     0.186 A 
HETATM   17  N   UNK N   1      21.549  17.976   3.840  0.00  0.00    -0.174 N 
HETATM   18  C   UNK N   1      20.318  18.279   3.326  0.00  0.00     0.679 A 
HETATM   19  H   UNK N   1      21.699  17.135   4.331  0.00  0.00     0.186 HD
HETATM   20  N   UNK N   1      19.347  17.459   3.473  0.00  0.00    -0.234 N 
HETATM   21  N   UNK N   1      20.118  19.463   2.657  0.00  0.00    -0.168 N 
HETATM   22  H   UNK N   1      19.493  16.569   3.869  0.00  0.00     0.174 HD
ATOM     23  HN  UNK N   1      18.411  17.730   3.177  1.00  0.00     0.174 HD
ATOM     24  HN  UNK N   1      19.192  19.681   2.288  1.00  0.00     0.186 HD
BRANCH  16  25
HETATM   25  O   UNK N   1      20.934  21.513   1.836  0.00  0.00    -0.344 OA
HETATM   26  H   UNK N   1      20.189  22.053   2.011  0.00  0.00     0.219 HD
ENDBRANCH  16  25
ENDBRANCH   4  10
BRANCH   1  27
HETATM   27  C   UNK N   1      22.958  14.651   5.908  0.00  0.00     0.215 C 
BRANCH  27  28
HETATM   28  O   UNK N   1      22.073  15.065   6.910  0.00  0.00    -0.294 OA
BRANCH  28  29
HETATM   29  P   UNK N   1      20.489  14.777   6.270  0.00  0.00     0.401 P 
HETATM   30  O   UNK N   1      20.559  15.063   4.742  0.00  0.00    -0.631 OA
BRANCH  29  31
HETATM   31  O   UNK N   1      20.040  13.107   6.435  0.00  0.00    -0.307 OA
HETATM   32  H   UNK N   1      19.502  12.760   7.162  0.00  0.00     0.222 HD
ENDBRANCH  29  31
BRANCH  29  33
HETATM   33  O   UNK N   1      19.332  15.841   7.043  0.00  0.00    -0.195 OA
BRANCH  33  34
HETATM   34  P   UNK N   1      20.179  16.821   8.214  0.00  0.00     0.399 P 
HETATM   35  O   UNK N   1      18.721  17.260   8.523  0.00  0.00    -0.631 OA
BRANCH  34  36
HETATM   36  O   UNK N   1      20.298  18.544   8.057  0.00  0.00    -0.307 OA
HETATM   37  H   UNK N   1      19.893  19.276   8.549  0.00  0.00     0.222 HD
ENDBRANCH  34  36
BRANCH  34  38
HETATM   38  O   UNK N   1      20.539  17.300   6.585  0.00  0.00    -0.307 OA
HETATM   39  H   UNK N   1      19.922  17.724   5.969  0.00  0.00     0.222 HD
ENDBRANCH  34  38
ENDBRANCH  33  34
ENDBRANCH  29  33
ENDBRANCH  28  29
ENDBRANCH  27  28
ENDBRANCH   1  27
BRANCH   9  40
HETATM   40  O   UNK N   1      27.956  14.103   5.034  0.00  0.00    -0.307 OA
HETATM   41  H   UNK N   1      27.573  13.283   4.687  0.00  0.00     0.222 HD
ENDBRANCH   9  40
TORSDOF 11
ENDMDL
MODEL 7
REMARK VINA RESULT:      -7.2     13.623     14.823
REMARK  11 active torsions:
REMARK  status: ('A' for Active; 'I' for Inactive)
REMARK    1  A    between atoms: C_3  and  C_1 
REMARK    2  A    between atoms: O_27  and  C_1 
REMARK    3  A    between atoms: O_19  and  C_8 
REMARK    4  A    between atoms: C_9  and  N_18 
REMARK       I    between atoms: N_11  and  C_10 
REMARK    5  A    between atoms: P_32  and  O_20 
REMARK    6  A    between atoms: P_32  and  O_21 
REMARK    7  A    between atoms: P_33  and  O_23 
REMARK    8  A    between atoms: P_34  and  O_25 
REMARK    9  A    between atoms: P_33  and  O_27 
REMARK   10  A    between atoms: P_32  and  O_31 
REMARK   11  A    between atoms: P_33  and  O_31 
ROOT
HETATM    1  C   UNK N   1      30.681  23.740  -4.334  0.00  0.00     0.180 C 
HETATM    2  C   UNK N   1      30.385  22.432  -3.605  0.00  0.00     0.198 C 
HETATM    3  C   UNK N   1      30.258  21.442  -4.682  0.00  0.00     0.215 C 
HETATM    4  C   UNK N   1      30.096  22.310  -5.944  0.00  0.00     0.263 C 
HETATM    5  O   UNK N   1      32.778  19.852  -3.552  0.00  0.00    -0.631 OA
HETATM    6  O   UNK N   1      29.975  23.658  -5.540  0.00  0.00    -0.353 OA
HETATM    7  O   UNK N   1      31.380  21.993  -2.741  0.00  0.00    -0.286 OA
HETATM    8  O   UNK N   1      31.412  20.654  -4.706  0.00  0.00    -0.284 OA
HETATM    9  P   UNK N   1      32.696  21.390  -3.742  0.00  0.00     0.394 P 
ENDROOT
BRANCH   4  10
HETATM   10  N   UNK N   1      28.941  21.910  -6.755  0.00  0.00    -0.297 N 
HETATM   11  C   UNK N   1      28.919  20.937  -7.703  0.00  0.00     0.188 A 
HETATM   12  N   UNK N   1      27.703  20.870  -8.319  0.00  0.00    -0.346 N 
HETATM   13  C   UNK N   1      26.973  21.829  -7.721  0.00  0.00     0.130 A 
ATOM     14  HN  UNK N   1      27.415  20.236  -9.064  1.00  0.00     0.167 HD
HETATM   15  C   UNK N   1      27.710  22.445  -6.779  0.00  0.00     0.157 A 
HETATM   16  C   UNK N   1      25.668  22.232  -7.958  0.00  0.00     0.186 A 
HETATM   17  N   UNK N   1      27.220  23.455  -6.018  0.00  0.00    -0.174 N 
HETATM   18  C   UNK N   1      25.928  23.852  -6.226  0.00  0.00     0.679 A 
HETATM   19  H   UNK N   1      27.779  23.891  -5.334  0.00  0.00     0.186 HD
HETATM   20  N   UNK N   1      25.430  24.795  -5.519  0.00  0.00    -0.234 N 
HETATM   21  N   UNK N   1      25.162  23.247  -7.194  0.00  0.00    -0.168 N 
HETATM   22  H   UNK N   1      25.931  25.178  -4.762  0.00  0.00     0.174 HD
ATOM     23  HN  UNK N   1      24.502  25.154  -5.741  1.00  0.00     0.174 HD
ATOM     24  HN  UNK N   1      24.204  23.561  -7.346  1.00  0.00     0.186 HD
BRANCH  16  25
HETATM   25  O   UNK N   1      24.919  21.655  -8.912  0.00  0.00    -0.344 OA
HETATM   26  H   UNK N   1      25.038  21.847  -9.821  0.00  0.00     0.219 HD
ENDBRANCH  16  25
ENDBRANCH   4  10
BRANCH   1  27
HETATM   27  C   UNK N   1      30.204  24.955  -3.551  0.00  0.00     0.215 C 
BRANCH  27  28
HETATM   28  O   UNK N   1      28.851  25.187  -3.823  0.00  0.00    -0.294 OA
BRANCH  28  29
HETATM   29  P   UNK N   1      28.799  26.738  -4.594  0.00  0.00     0.401 P 
HETATM   30  O   UNK N   1      30.252  27.071  -5.039  0.00  0.00    -0.631 OA
BRANCH  29  31
HETATM   31  O   UNK N   1      27.843  26.688  -6.043  0.00  0.00    -0.307 OA
HETATM   32  H   UNK N   1      27.522  27.476  -6.508  0.00  0.00     0.222 HD
ENDBRANCH  29  31
BRANCH  29  33
HETATM   33  O   UNK N   1      28.209  27.942  -3.466  0.00  0.00    -0.195 OA
BRANCH  33  34
HETATM   34  P   UNK N   1      26.640  28.484  -4.006  0.00  0.00     0.399 P 
HETATM   35  O   UNK N   1      26.787  29.364  -2.734  0.00  0.00    -0.631 OA
BRANCH  34  36
HETATM   36  O   UNK N   1      25.186  28.092  -3.145  0.00  0.00    -0.307 OA
HETATM   37  H   UNK N   1      24.927  28.197  -2.216  0.00  0.00     0.222 HD
ENDBRANCH  34  36
BRANCH  34  38
HETATM   38  O   UNK N   1      26.615  26.824  -3.497  0.00  0.00    -0.307 OA
HETATM   39  H   UNK N   1      26.432  26.509  -2.599  0.00  0.00     0.222 HD
ENDBRANCH  34  38
ENDBRANCH  33  34
ENDBRANCH  29  33
ENDBRANCH  28  29
ENDBRANCH  27  28
ENDBRANCH   1  27
BRANCH   9  40
HETATM   40  O   UNK N   1      33.101  21.013  -2.097  0.00  0.00    -0.307 OA
HETATM   41  H   UNK N   1      32.528  20.789  -1.347  0.00  0.00     0.222 HD
ENDBRANCH   9  40
TORSDOF 11
ENDMDL
MODEL 8
REMARK VINA RESULT:      -7.2      3.181      5.544
REMARK  11 active torsions:
REMARK  status: ('A' for Active; 'I' for Inactive)
REMARK    1  A    between atoms: C_3  and  C_1 
REMARK    2  A    between atoms: O_27  and  C_1 
REMARK    3  A    between atoms: O_19  and  C_8 
REMARK    4  A    between atoms: C_9  and  N_18 
REMARK       I    between atoms: N_11  and  C_10 
REMARK    5  A    between atoms: P_32  and  O_20 
REMARK    6  A    between atoms: P_32  and  O_21 
REMARK    7  A    between atoms: P_33  and  O_23 
REMARK    8  A    between atoms: P_34  and  O_25 
REMARK    9  A    between atoms: P_33  and  O_27 
REMARK   10  A    between atoms: P_32  and  O_31 
REMARK   11  A    between atoms: P_33  and  O_31 
ROOT
HETATM    1  C   UNK N   1      21.323  16.921   5.733  0.00  0.00     0.180 C 
HETATM    2  C   UNK N   1      21.849  18.344   5.903  0.00  0.00     0.198 C 
HETATM    3  C   UNK N   1      23.142  18.334   5.207  0.00  0.00     0.215 C 
HETATM    4  C   UNK N   1      23.442  16.833   5.037  0.00  0.00     0.263 C 
HETATM    5  O   UNK N   1      22.068  20.496   3.127  0.00  0.00    -0.631 OA
HETATM    6  O   UNK N   1      22.461  16.104   5.745  0.00  0.00    -0.353 OA
HETATM    7  O   UNK N   1      21.067  19.340   5.332  0.00  0.00    -0.286 OA
HETATM    8  O   UNK N   1      23.002  19.004   3.989  0.00  0.00    -0.284 OA
HETATM    9  P   UNK N   1      21.296  19.231   3.590  0.00  0.00     0.394 P 
ENDROOT
BRANCH   4  10
HETATM   10  N   UNK N   1      24.785  16.474   5.504  0.00  0.00    -0.297 N 
HETATM   11  C   UNK N   1      25.102  15.449   6.339  0.00  0.00     0.188 A 
HETATM   12  N   UNK N   1      26.435  15.436   6.629  0.00  0.00    -0.346 N 
HETATM   13  C   UNK N   1      26.935  16.482   5.945  0.00  0.00     0.130 A 
ATOM     14  HN  UNK N   1      26.938  14.782   7.228  1.00  0.00     0.167 HD
HETATM   15  C   UNK N   1      25.950  17.097   5.265  0.00  0.00     0.157 A 
HETATM   16  C   UNK N   1      28.232  16.968   5.884  0.00  0.00     0.186 A 
HETATM   17  N   UNK N   1      26.173  18.186   4.488  0.00  0.00    -0.174 N 
HETATM   18  C   UNK N   1      27.451  18.666   4.401  0.00  0.00     0.679 A 
HETATM   19  H   UNK N   1      25.435  18.619   3.999  0.00  0.00     0.186 HD
HETATM   20  N   UNK N   1      27.699  19.685   3.668  0.00  0.00    -0.234 N 
HETATM   21  N   UNK N   1      28.469  18.063   5.101  0.00  0.00    -0.168 N 
HETATM   22  H   UNK N   1      27.003  20.074   3.090  0.00  0.00     0.174 HD
ATOM     23  HN  UNK N   1      28.630  20.099   3.682  1.00  0.00     0.174 HD
ATOM     24  HN  UNK N   1      29.415  18.439   5.035  1.00  0.00     0.186 HD
BRANCH  16  25
HETATM   25  O   UNK N   1      29.228  16.393   6.576  0.00  0.00    -0.344 OA
HETATM   26  H   UNK N   1      29.826  16.892   7.096  0.00  0.00     0.219 HD
ENDBRANCH  16  25
ENDBRANCH   4  10
BRANCH   1  27
HETATM   27  C   UNK N   1      20.396  16.511   6.868  0.00  0.00     0.215 C 
BRANCH  27  28
HETATM   28  O   UNK N   1      21.139  16.331   8.040  0.00  0.00    -0.294 OA
BRANCH  28  29
HETATM   29  P   UNK N   1      20.575  14.838   8.714  0.00  0.00     0.401 P 
HETATM   30  O   UNK N   1      19.218  15.139   9.411  0.00  0.00    -0.631 OA
BRANCH  29  31
HETATM   31  O   UNK N   1      20.238  13.675   7.468  0.00  0.00    -0.307 OA
HETATM   32  H   UNK N   1      19.406  13.639   6.971  0.00  0.00     0.222 HD
ENDBRANCH  29  31
BRANCH  29  33
HETATM   33  O   UNK N   1      21.741  14.231   9.872  0.00  0.00    -0.195 OA
BRANCH  33  34
HETATM   34  P   UNK N   1      21.970  12.524   9.583  0.00  0.00     0.399 P 
HETATM   35  O   UNK N   1      20.611  12.473  10.333  0.00  0.00    -0.631 OA
BRANCH  34  36
HETATM   36  O   UNK N   1      22.326  11.414  10.867  0.00  0.00    -0.307 OA
HETATM   37  H   UNK N   1      22.934  11.460  11.622  0.00  0.00     0.222 HD
ENDBRANCH  34  36
BRANCH  34  38
HETATM   38  O   UNK N   1      23.153  13.161  10.682  0.00  0.00    -0.307 OA
HETATM   39  H   UNK N   1      23.049  13.953  11.232  0.00  0.00     0.222 HD
ENDBRANCH  34  38
ENDBRANCH  33  34
ENDBRANCH  29  33
ENDBRANCH  28  29
ENDBRANCH  27  28
ENDBRANCH   1  27
BRANCH   9  40
HETATM   40  O   UNK N   1      20.344  20.652   3.886  0.00  0.00    -0.307 OA
HETATM   41  H   UNK N   1      20.592  21.590   3.851  0.00  0.00     0.222 HD
ENDBRANCH   9  40
TORSDOF 11
ENDMDL
MODEL 9
REMARK VINA RESULT:      -7.0      9.460     12.568
REMARK  11 active torsions:
REMARK  status: ('A' for Active; 'I' for Inactive)
REMARK    1  A    between atoms: C_3  and  C_1 
REMARK    2  A    between atoms: O_27  and  C_1 
REMARK    3  A    between atoms: O_19  and  C_8 
REMARK    4  A    between atoms: C_9  and  N_18 
REMARK       I    between atoms: N_11  and  C_10 
REMARK    5  A    between atoms: P_32  and  O_20 
REMARK    6  A    between atoms: P_32  and  O_21 
REMARK    7  A    between atoms: P_33  and  O_23 
REMARK    8  A    between atoms: P_34  and  O_25 
REMARK    9  A    between atoms: P_33  and  O_27 
REMARK   10  A    between atoms: P_32  and  O_31 
REMARK   11  A    between atoms: P_33  and  O_31 
ROOT
HETATM    1  C   UNK N   1      33.406  14.112   8.926  0.00  0.00     0.180 C 
HETATM    2  C   UNK N   1      34.415  15.126   8.392  0.00  0.00     0.198 C 
HETATM    3  C   UNK N   1      33.710  16.412   8.476  0.00  0.00     0.215 C 
HETATM    4  C   UNK N   1      32.240  15.998   8.672  0.00  0.00     0.263 C 
HETATM    5  O   UNK N   1      35.870  17.488  10.558  0.00  0.00    -0.631 OA
HETATM    6  O   UNK N   1      32.153  14.596   8.530  0.00  0.00    -0.353 OA
HETATM    7  O   UNK N   1      35.590  15.238   9.123  0.00  0.00    -0.286 OA
HETATM    8  O   UNK N   1      34.222  17.135   9.557  0.00  0.00    -0.284 OA
HETATM    9  P   UNK N   1      35.189  16.094  10.607  0.00  0.00     0.394 P 
ENDROOT
BRANCH   4  10
HETATM   10  N   UNK N   1      31.339  16.667   7.728  0.00  0.00    -0.297 N 
HETATM   11  C   UNK N   1      30.339  17.532   8.042  0.00  0.00     0.188 A 
HETATM   12  N   UNK N   1      29.646  17.917   6.931  0.00  0.00    -0.346 N 
HETATM   13  C   UNK N   1      30.250  17.267   5.919  0.00  0.00     0.130 A 
ATOM     14  HN  UNK N   1      28.851  18.553   6.880  1.00  0.00     0.167 HD
HETATM   15  C   UNK N   1      31.269  16.527   6.395  0.00  0.00     0.157 A 
HETATM   16  C   UNK N   1      29.956  17.259   4.565  0.00  0.00     0.186 A 
HETATM   17  N   UNK N   1      32.053  15.767   5.590  0.00  0.00    -0.174 N 
HETATM   18  C   UNK N   1      31.788  15.763   4.248  0.00  0.00     0.679 A 
HETATM   19  H   UNK N   1      32.792  15.234   5.961  0.00  0.00     0.186 HD
HETATM   20  N   UNK N   1      32.514  15.066   3.458  0.00  0.00    -0.234 N 
HETATM   21  N   UNK N   1      30.742  16.499   3.744  0.00  0.00    -0.168 N 
HETATM   22  H   UNK N   1      33.320  14.606   3.787  0.00  0.00     0.174 HD
ATOM     23  HN  UNK N   1      32.255  14.987   2.475  1.00  0.00     0.174 HD
ATOM     24  HN  UNK N   1      30.549  16.478   2.742  1.00  0.00     0.186 HD
BRANCH  16  25
HETATM   25  O   UNK N   1      28.927  17.964   4.068  0.00  0.00    -0.344 OA
HETATM   26  H   UNK N   1      28.262  18.328   4.617  0.00  0.00     0.219 HD
ENDBRANCH  16  25
ENDBRANCH   4  10
BRANCH   1  27
HETATM   27  C   UNK N   1      33.621  12.725   8.340  0.00  0.00     0.215 C 
BRANCH  27  28
HETATM   28  O   UNK N   1      34.987  12.419   8.344  0.00  0.00    -0.294 OA
BRANCH  28  29
HETATM   29  P   UNK N   1      35.241  11.484   9.780  0.00  0.00     0.401 P 
HETATM   30  O   UNK N   1      33.902  10.756  10.090  0.00  0.00    -0.631 OA
BRANCH  29  31
HETATM   31  O   UNK N   1      36.426  10.241   9.519  0.00  0.00    -0.307 OA
HETATM   32  H   UNK N   1      37.357  10.415   9.314  0.00  0.00     0.222 HD
ENDBRANCH  29  31
BRANCH  29  33
HETATM   33  O   UNK N   1      35.688  12.540  11.105  0.00  0.00    -0.195 OA
BRANCH  33  34
HETATM   34  P   UNK N   1      37.381  12.298  11.459  0.00  0.00     0.399 P 
HETATM   35  O   UNK N   1      37.062  13.408  12.498  0.00  0.00    -0.631 OA
BRANCH  34  36
HETATM   36  O   UNK N   1      38.580  13.489  11.070  0.00  0.00    -0.307 OA
HETATM   37  H   UNK N   1      39.526  13.557  11.277  0.00  0.00     0.222 HD
ENDBRANCH  34  36
BRANCH  34  38
HETATM   38  O   UNK N   1      37.138  12.972   9.878  0.00  0.00    -0.307 OA
HETATM   39  H   UNK N   1      36.989  12.469   9.063  0.00  0.00     0.222 HD
ENDBRANCH  34  38
ENDBRANCH  33  34
ENDBRANCH  29  33
ENDBRANCH  28  29
ENDBRANCH  27  28
ENDBRANCH   1  27
BRANCH   9  40
HETATM   40  O   UNK N   1      36.915  15.913  10.580  0.00  0.00    -0.307 OA
HETATM   41  H   UNK N   1      37.541  15.987   9.843  0.00  0.00     0.222 HD
ENDBRANCH   9  40
TORSDOF 11
ENDMDL
