MODEL 1
REMARK VINA RESULT:      -4.0      0.000      0.000
REMARK  4 active torsions:
REMARK  status: ('A' for Active; 'I' for Inactive)
REMARK    1  A    between atoms: C_2  and  O_3 
REMARK    2  A    between atoms: O_3  and  P_4 
REMARK    3  A    between atoms: P_4  and  O_6 
REMARK    4  A    between atoms: O_6  and  C_7 
ROOT
HETATM    1  P   UNK N   1      34.219  17.766   8.013  0.00  0.00     0.320 P 
HETATM    2  O   UNK N   1      35.006  19.067   8.351  0.00  0.00    -0.262 OA
HETATM    3  H   UNK N   1      34.748  18.777   7.235  0.00  0.00     0.160 HD
ENDROOT
BRANCH   1   4
HETATM    4  O   UNK N   1      32.662  18.511   8.231  0.00  0.00    -0.316 OA
BRANCH   4   5
HETATM    5  C   UNK N   1      31.808  17.472   8.610  0.00  0.00     0.173 C 
HETATM    6  C   UNK N   1      30.707  17.311   7.584  0.00  0.00     0.034 C 
ENDBRANCH   4   5
ENDBRANCH   1   4
BRANCH   1   7
HETATM    7  O   UNK N   1      34.250  18.054   6.296  0.00  0.00    -0.316 OA
BRANCH   7   8
HETATM    8  C   UNK N   1      33.930  16.827   5.712  0.00  0.00     0.173 C 
HETATM    9  C   UNK N   1      33.053  17.047   4.498  0.00  0.00     0.034 C 
ENDBRANCH   7   8
ENDBRANCH   1   7
TORSDOF 4
ENDMDL
MODEL 2
REMARK VINA RESULT:      -3.9      2.098      3.378
REMARK  4 active torsions:
REMARK  status: ('A' for Active; 'I' for Inactive)
REMARK    1  A    between atoms: C_2  and  O_3 
REMARK    2  A    between atoms: O_3  and  P_4 
REMARK    3  A    between atoms: P_4  and  O_6 
REMARK    4  A    between atoms: O_6  and  C_7 
ROOT
HETATM    1  P   UNK N   1      33.985  18.009   8.097  0.00  0.00     0.320 P 
HETATM    2  O   UNK N   1      35.027  19.136   8.358  0.00  0.00    -0.262 OA
HETATM    3  H   UNK N   1      35.213  18.030   8.727  0.00  0.00     0.160 HD
ENDROOT
BRANCH   1   4
HETATM    4  O   UNK N   1      34.608  17.638   6.515  0.00  0.00    -0.316 OA
BRANCH   4   5
HETATM    5  C   UNK N   1      33.480  17.455   5.710  0.00  0.00     0.173 C 
HETATM    6  C   UNK N   1      32.257  17.251   6.577  0.00  0.00     0.034 C 
ENDBRANCH   4   5
ENDBRANCH   1   4
BRANCH   1   7
HETATM    7  O   UNK N   1      34.936  16.785   8.890  0.00  0.00    -0.316 OA
BRANCH   7   8
HETATM    8  C   UNK N   1      34.011  15.969   9.545  0.00  0.00     0.173 C 
HETATM    9  C   UNK N   1      34.647  15.354  10.773  0.00  0.00     0.034 C 
ENDBRANCH   7   8
ENDBRANCH   1   7
TORSDOF 4
ENDMDL
MODEL 3
REMARK VINA RESULT:      -3.8      2.159      3.482
REMARK  4 active torsions:
REMARK  status: ('A' for Active; 'I' for Inactive)
REMARK    1  A    between atoms: C_2  and  O_3 
REMARK    2  A    between atoms: O_3  and  P_4 
REMARK    3  A    between atoms: P_4  and  O_6 
REMARK    4  A    between atoms: O_6  and  C_7 
ROOT
HETATM    1  P   UNK N   1      33.977  17.202   8.089  0.00  0.00     0.320 P 
HETATM    2  O   UNK N   1      34.644  18.043   6.961  0.00  0.00    -0.262 OA
HETATM    3  H   UNK N   1      33.682  18.428   7.526  0.00  0.00     0.160 HD
ENDROOT
BRANCH   1   4
HETATM    4  O   UNK N   1      35.019  17.828   9.334  0.00  0.00    -0.316 OA
BRANCH   4   5
HETATM    5  C   UNK N   1      35.213  16.765  10.219  0.00  0.00     0.173 C 
HETATM    6  C   UNK N   1      34.408  15.565   9.767  0.00  0.00     0.034 C 
ENDBRANCH   4   5
ENDBRANCH   1   4
BRANCH   1   7
HETATM    7  O   UNK N   1      32.723  18.373   8.381  0.00  0.00    -0.316 OA
BRANCH   7   8
HETATM    8  C   UNK N   1      31.540  17.634   8.449  0.00  0.00     0.173 C 
HETATM    9  C   UNK N   1      30.430  18.491   9.020  0.00  0.00     0.034 C 
ENDBRANCH   7   8
ENDBRANCH   1   7
TORSDOF 4
ENDMDL
MODEL 4
REMARK VINA RESULT:      -3.6     14.899     15.795
REMARK  4 active torsions:
REMARK  status: ('A' for Active; 'I' for Inactive)
REMARK    1  A    between atoms: C_2  and  O_3 
REMARK    2  A    between atoms: O_3  and  P_4 
REMARK    3  A    between atoms: P_4  and  O_6 
REMARK    4  A    between atoms: O_6  and  C_7 
ROOT
HETATM    1  P   UNK N   1      27.113  24.844  -3.780  0.00  0.00     0.320 P 
HETATM    2  O   UNK N   1      26.892  23.865  -2.590  0.00  0.00    -0.262 OA
HETATM    3  H   UNK N   1      26.481  24.971  -2.559  0.00  0.00     0.160 HD
ENDROOT
BRANCH   1   4
HETATM    4  O   UNK N   1      25.708  24.295  -4.647  0.00  0.00    -0.316 OA
BRANCH   4   5
HETATM    5  C   UNK N   1      26.058  24.370  -5.998  0.00  0.00     0.173 C 
HETATM    6  C   UNK N   1      25.622  25.702  -6.569  0.00  0.00     0.034 C 
ENDBRANCH   4   5
ENDBRANCH   1   4
BRANCH   1   7
HETATM    7  O   UNK N   1      26.272  26.158  -3.008  0.00  0.00    -0.316 OA
BRANCH   7   8
HETATM    8  C   UNK N   1      26.877  27.318  -3.494  0.00  0.00     0.173 C 
HETATM    9  C   UNK N   1      25.823  28.363  -3.793  0.00  0.00     0.034 C 
ENDBRANCH   7   8
ENDBRANCH   1   7
TORSDOF 4
ENDMDL
MODEL 5
REMARK VINA RESULT:      -3.6      4.144      5.342
REMARK  4 active torsions:
REMARK  status: ('A' for Active; 'I' for Inactive)
REMARK    1  A    between atoms: C_2  and  O_3 
REMARK    2  A    between atoms: O_3  and  P_4 
REMARK    3  A    between atoms: P_4  and  O_6 
REMARK    4  A    between atoms: O_6  and  C_7 
ROOT
HETATM    1  P   UNK N   1      28.294  17.892   8.054  0.00  0.00     0.320 P 
HETATM    2  O   UNK N   1      27.517  18.074   9.391  0.00  0.00    -0.262 OA
HETATM    3  H   UNK N   1      28.687  18.218   9.337  0.00  0.00     0.160 HD
ENDROOT
BRANCH   1   4
HETATM    4  O   UNK N   1      28.019  19.530   7.535  0.00  0.00    -0.316 OA
BRANCH   4   5
HETATM    5  C   UNK N   1      27.730  19.440   6.171  0.00  0.00     0.173 C 
HETATM    6  C   UNK N   1      27.444  20.817   5.613  0.00  0.00     0.034 C 
ENDBRANCH   4   5
ENDBRANCH   1   4
BRANCH   1   7
HETATM    7  O   UNK N   1      29.840  18.250   8.768  0.00  0.00    -0.316 OA
BRANCH   7   8
HETATM    8  C   UNK N   1      30.746  17.405   8.124  0.00  0.00     0.173 C 
HETATM    9  C   UNK N   1      32.163  17.856   8.409  0.00  0.00     0.034 C 
ENDBRANCH   7   8
ENDBRANCH   1   7
TORSDOF 4
ENDMDL
MODEL 6
REMARK VINA RESULT:      -3.5     12.083     13.052
REMARK  4 active torsions:
REMARK  status: ('A' for Active; 'I' for Inactive)
REMARK    1  A    between atoms: C_2  and  O_3 
REMARK    2  A    between atoms: O_3  and  P_4 
REMARK    3  A    between atoms: P_4  and  O_6 
REMARK    4  A    between atoms: O_6  and  C_7 
ROOT
HETATM    1  P   UNK N   1      43.938  23.005   3.056  0.00  0.00     0.320 P 
HETATM    2  O   UNK N   1      43.521  23.128   4.552  0.00  0.00    -0.262 OA
HETATM    3  H   UNK N   1      44.042  24.023   3.984  0.00  0.00     0.160 HD
ENDROOT
BRANCH   1   4
HETATM    4  O   UNK N   1      42.372  23.474   2.459  0.00  0.00    -0.316 OA
BRANCH   4   5
HETATM    5  C   UNK N   1      41.989  22.449   1.590  0.00  0.00     0.173 C 
HETATM    6  C   UNK N   1      40.663  21.868   2.032  0.00  0.00     0.034 C 
ENDBRANCH   4   5
ENDBRANCH   1   4
BRANCH   1   7
HETATM    7  O   UNK N   1      44.583  24.621   2.983  0.00  0.00    -0.316 OA
BRANCH   7   8
HETATM    8  C   UNK N   1      45.672  24.542   2.113  0.00  0.00     0.173 C 
HETATM    9  C   UNK N   1      46.341  25.896   2.001  0.00  0.00     0.034 C 
ENDBRANCH   7   8
ENDBRANCH   1   7
TORSDOF 4
ENDMDL
MODEL 7
REMARK VINA RESULT:      -3.5     11.633     12.725
REMARK  4 active torsions:
REMARK  status: ('A' for Active; 'I' for Inactive)
REMARK    1  A    between atoms: C_2  and  O_3 
REMARK    2  A    between atoms: O_3  and  P_4 
REMARK    3  A    between atoms: P_4  and  O_6 
REMARK    4  A    between atoms: O_6  and  C_7 
ROOT
HETATM    1  P   UNK N   1      30.304  23.121  -2.943  0.00  0.00     0.320 P 
HETATM    2  O   UNK N   1      30.547  22.975  -1.411  0.00  0.00    -0.262 OA
HETATM    3  H   UNK N   1      29.462  23.141  -1.848  0.00  0.00     0.160 HD
ENDROOT
BRANCH   1   4
HETATM    4  O   UNK N   1      30.202  21.404  -3.209  0.00  0.00    -0.316 OA
BRANCH   4   5
HETATM    5  C   UNK N   1      30.900  21.175  -4.397  0.00  0.00     0.173 C 
HETATM    6  C   UNK N   1      29.967  21.323  -5.580  0.00  0.00     0.034 C 
ENDBRANCH   4   5
ENDBRANCH   1   4
BRANCH   1   7
HETATM    7  O   UNK N   1      28.583  23.318  -2.770  0.00  0.00    -0.316 OA
BRANCH   7   8
HETATM    8  C   UNK N   1      28.214  24.216  -3.773  0.00  0.00     0.173 C 
HETATM    9  C   UNK N   1      26.708  24.363  -3.805  0.00  0.00     0.034 C 
ENDBRANCH   7   8
ENDBRANCH   1   7
TORSDOF 4
ENDMDL
MODEL 8
REMARK VINA RESULT:      -3.5     11.760     12.636
REMARK  4 active torsions:
REMARK  status: ('A' for Active; 'I' for Inactive)
REMARK    1  A    between atoms: C_2  and  O_3 
REMARK    2  A    between atoms: O_3  and  P_4 
REMARK    3  A    between atoms: P_4  and  O_6 
REMARK    4  A    between atoms: O_6  and  C_7 
ROOT
HETATM    1  P   UNK N   1      44.463  23.440   2.587  0.00  0.00     0.320 P 
HETATM    2  O   UNK N   1      45.063  24.869   2.741  0.00  0.00    -0.262 OA
HETATM    3  H   UNK N   1      43.997  24.699   2.263  0.00  0.00     0.160 HD
ENDROOT
BRANCH   1   4
HETATM    4  O   UNK N   1      43.800  23.418   4.195  0.00  0.00    -0.316 OA
BRANCH   4   5
HETATM    5  C   UNK N   1      43.857  22.081   4.597  0.00  0.00     0.173 C 
HETATM    6  C   UNK N   1      44.923  21.352   3.809  0.00  0.00     0.034 C 
ENDBRANCH   4   5
ENDBRANCH   1   4
BRANCH   1   7
HETATM    7  O   UNK N   1      42.989  24.012   1.858  0.00  0.00    -0.316 OA
BRANCH   7   8
HETATM    8  C   UNK N   1      42.444  22.900   1.212  0.00  0.00     0.173 C 
HETATM    9  C   UNK N   1      40.991  22.738   1.604  0.00  0.00     0.034 C 
ENDBRANCH   7   8
ENDBRANCH   1   7
TORSDOF 4
ENDMDL
MODEL 9
REMARK VINA RESULT:      -3.4     12.766     13.990
REMARK  4 active torsions:
REMARK  status: ('A' for Active; 'I' for Inactive)
REMARK    1  A    between atoms: C_2  and  O_3 
REMARK    2  A    between atoms: O_3  and  P_4 
REMARK    3  A    between atoms: P_4  and  O_6 
REMARK    4  A    between atoms: O_6  and  C_7 
ROOT
HETATM    1  P   UNK N   1      44.056  23.115   2.994  0.00  0.00     0.320 P 
HETATM    2  O   UNK N   1      43.456  23.782   4.267  0.00  0.00    -0.262 OA
HETATM    3  H   UNK N   1      44.053  22.765   4.330  0.00  0.00     0.160 HD
ENDROOT
BRANCH   1   4
HETATM    4  O   UNK N   1      45.528  24.041   3.060  0.00  0.00    -0.316 OA
BRANCH   4   5
HETATM    5  C   UNK N   1      45.656  24.616   1.793  0.00  0.00     0.173 C 
HETATM    6  C   UNK N   1      46.820  25.583   1.783  0.00  0.00     0.034 C 
ENDBRANCH   4   5
ENDBRANCH   1   4
BRANCH   1   7
HETATM    7  O   UNK N   1      44.722  21.768   3.872  0.00  0.00    -0.316 OA
BRANCH   7   8
HETATM    8  C   UNK N   1      44.554  20.663   3.034  0.00  0.00     0.173 C 
HETATM    9  C   UNK N   1      45.651  19.652   3.288  0.00  0.00     0.034 C 
ENDBRANCH   7   8
ENDBRANCH   1   7
TORSDOF 4
ENDMDL
