REMARK  15 active torsions:
REMARK  status: ('A' for Active; 'I' for Inactive)
REMARK    1  A    between atoms: C_6  and  C_3 
REMARK    2  A    between atoms: O_21  and  C_3 
REMARK    3  A    between atoms: C_8  and  C_4 
REMARK    4  A    between atoms: O_22  and  C_4 
REMARK    5  A    between atoms: C_7  and  N_20 
REMARK    6  A    between atoms: C_9  and  N_20 
REMARK    7  A    between atoms: C_10  and  O_23 
REMARK    8  A    between atoms: C_11  and  O_24 
REMARK    9  A    between atoms: C_12  and  O_25 
REMARK   10  A    between atoms: C_13  and  O_26 
REMARK   11  A    between atoms: C_14  and  O_27 
REMARK   12  A    between atoms: C_15  and  O_28 
REMARK   13  A    between atoms: C_16  and  O_29 
REMARK   14  A    between atoms: C_17  and  O_33 
REMARK   15  A    between atoms: C_19  and  O_33 
ROOT
HETATM    1  C   UNK N   1       1.246  -3.930  -0.176  0.00  0.00     0.180 C 
HETATM    2  C   UNK N   1       1.765  -6.452   0.483  0.00  0.00     0.183 C 
HETATM    3  C   UNK N   1       3.173  -6.036   0.037  0.00  0.00     0.204 C 
HETATM    4  C   UNK N   1       0.824  -5.201   0.635  0.00  0.00     0.187 C 
HETATM    5  C   UNK N   1       3.505  -4.596   0.411  0.00  0.00     0.288 C 
HETATM    6  O   UNK N   1       3.468  -4.376   1.791  0.00  0.00    -0.369 OA
HETATM    7  O   UNK N   1       2.654  -3.693  -0.278  0.00  0.00    -0.349 OA
HETATM    8  H   UNK N   1       3.588  -4.278   2.748  0.00  0.00     0.212 HD
ENDROOT
BRANCH   3   9
HETATM    9  O   UNK N   1       4.126  -6.928   0.535  0.00  0.00    -0.388 OA
HETATM   10  H   UNK N   1       3.920  -7.811   0.881  0.00  0.00     0.210 HD
ENDBRANCH   3   9
BRANCH   2  11
HETATM   11  O   UNK N   1       1.344  -7.437  -0.407  0.00  0.00    -0.390 OA
HETATM   12  H   UNK N   1       0.603  -7.526  -1.027  0.00  0.00     0.210 HD
ENDBRANCH   2  11
BRANCH   1  13
HETATM   13  C   UNK N   1       0.689  -2.647   0.467  0.00  0.00     0.198 C 
BRANCH  13  14
HETATM   14  O   UNK N   1      -0.629  -2.764   0.902  0.00  0.00    -0.398 OA
HETATM   15  H   UNK N   1      -1.159  -2.009   1.205  0.00  0.00     0.209 HD
ENDBRANCH  13  14
ENDBRANCH   1  13
BRANCH   4  16
HETATM   16  O   UNK N   1      -0.595  -5.425   0.723  0.00  0.00    -0.348 OA
BRANCH  16  17
HETATM   17  C   UNK N   1      -1.234  -5.960  -0.440  0.00  0.00     0.292 C 
HETATM   18  C   UNK N   1      -2.626  -6.579  -0.097  0.00  0.00     0.204 C 
HETATM   19  C   UNK N   1      -3.802  -5.685  -0.518  0.00  0.00     0.176 C 
HETATM   20  C   UNK N   1      -3.396  -4.228  -0.376  0.00  0.00     0.137 C 
HETATM   21  C   UNK N   1      -2.246  -3.988  -1.408  0.00  0.00     0.145 C 
HETATM   22  C   UNK N   1      -2.816  -3.821  -2.812  0.00  0.00     0.042 C 
HETATM   23  O   UNK N   1      -1.271  -5.027  -1.509  0.00  0.00    -0.352 OA
BRANCH  18  24
HETATM   24  O   UNK N   1      -2.674  -6.858   1.274  0.00  0.00    -0.388 OA
HETATM   25  H   UNK N   1      -2.859  -6.926   2.224  0.00  0.00     0.210 HD
ENDBRANCH  18  24
BRANCH  19  26
HETATM   26  O   UNK N   1      -4.943  -5.986   0.233  0.00  0.00    -0.391 OA
HETATM   27  H   UNK N   1      -5.520  -5.405   0.754  0.00  0.00     0.210 HD
ENDBRANCH  19  26
BRANCH  20  28
HETATM   28  N   UNK N   1      -4.550  -3.364  -0.681  0.00  0.00    -0.402 N 
HETATM   29  H   UNK N   1      -5.208  -3.573  -1.432  0.00  0.00     0.154 HD
BRANCH  28  30
HETATM   30  C   UNK N   1      -4.683  -2.181   0.177  0.00  0.00     0.132 C 
HETATM   31  C   UNK N   1      -3.476  -1.274   0.058  0.00  0.00     0.008 C 
HETATM   32  C   UNK N   1      -3.556   0.071  -0.020  0.00  0.00    -0.027 C 
HETATM   33  C   UNK N   1      -4.890   0.793   0.050  0.00  0.00     0.180 C 
HETATM   34  C   UNK N   1      -6.050  -0.114   0.504  0.00  0.00     0.182 C 
HETATM   35  C   UNK N   1      -5.977  -1.448  -0.231  0.00  0.00     0.175 C 
BRANCH  32  36
HETATM   36  C   UNK N   1      -2.313   0.889  -0.251  0.00  0.00     0.201 C 
BRANCH  36  37
HETATM   37  O   UNK N   1      -1.162   0.098  -0.314  0.00  0.00    -0.397 OA
HETATM   38  H   UNK N   1      -1.239  -0.868  -0.359  0.00  0.00     0.209 HD
ENDBRANCH  36  37
ENDBRANCH  32  36
BRANCH  33  39
HETATM   39  O   UNK N   1      -4.803   1.876   0.928  0.00  0.00    -0.388 OA
HETATM   40  H   UNK N   1      -4.121   2.200   1.538  0.00  0.00     0.210 HD
ENDBRANCH  33  39
BRANCH  34  41
HETATM   41  O   UNK N   1      -7.267   0.525   0.251  0.00  0.00    -0.390 OA
HETATM   42  H   UNK N   1      -7.305   1.478   0.075  0.00  0.00     0.210 HD
ENDBRANCH  34  41
BRANCH  35  43
HETATM   43  O   UNK N   1      -7.084  -2.240   0.088  0.00  0.00    -0.391 OA
HETATM   44  H   UNK N   1      -7.944  -1.850   0.309  0.00  0.00     0.210 HD
ENDBRANCH  35  43
ENDBRANCH  28  30
ENDBRANCH  20  28
ENDBRANCH  16  17
ENDBRANCH   4  16
TORSDOF 15
