MODEL 1
REMARK VINA RESULT:      -5.6      0.000      0.000
REMARK  5 active torsions:
REMARK  status: ('A' for Active; 'I' for Inactive)
REMARK    1  A    between atoms: C_2  and  N_1 
REMARK    2  A    between atoms: C_2  and  C_3 
REMARK    3  A    between atoms: C_2  and  C_11 
REMARK    4  A    between atoms: C_3  and  N_4 
REMARK    5  A    between atoms: C_11  and  O_12 
ROOT
HETATM    1  C   UNK N   1      35.314  13.776  11.991  0.00  0.00     0.197 C 
ENDROOT
BRANCH   1   2
HETATM    2  C   UNK N   1      34.753  15.013  11.269  0.00  0.00     0.194 C 
BRANCH   2   3
HETATM    3  N   UNK N   1      33.373  15.137  10.849  0.00  0.00    -0.416 N 
HETATM    4  H   UNK N   1      33.113  15.832  10.149  0.00  0.00     0.150 HD
HETATM    5  H   UNK N   1      32.660  14.530  11.253  0.00  0.00     0.150 HD
ENDBRANCH   2   3
BRANCH   2   6
HETATM    6  C   UNK N   1      35.641  16.176  10.961  0.00  0.00     0.164 C 
HETATM    7  O   UNK N   1      35.160  17.256  10.660  0.00  0.00    -0.648 OA
BRANCH   6   8
HETATM    8  O   UNK N   1      36.978  16.031  11.015  0.00  0.00    -0.775 OA
HETATM    9  H   UNK N   1      37.371  15.216  10.772  0.00  0.00     0.167 HD
ENDBRANCH   6   8
ENDBRANCH   2   6
ENDBRANCH   1   2
BRANCH   1  10
HETATM   10  N   UNK N   1      35.668  13.802  13.419  0.00  0.00    -0.194 N 
HETATM   11  O   UNK N   1      36.638  14.560  13.835  0.00  0.00    -0.174 OA
HETATM   12  C   UNK N   1      36.776  14.424  15.132  0.00  0.00     0.391 A 
HETATM   13  O   UNK N   1      37.607  15.013  15.797  0.00  0.00    -0.236 OA
HETATM   14  N   UNK N   1      35.877  13.546  15.646  0.00  0.00    -0.251 N 
HETATM   15  C   UNK N   1      35.192  13.171  14.538  0.00  0.00     0.351 A 
HETATM   16  H   UNK N   1      35.756  13.257  16.580  0.00  0.00     0.176 HD
HETATM   17  O   UNK N   1      34.278  12.374  14.570  0.00  0.00    -0.244 OA
ENDBRANCH   1  10
TORSDOF 5
ENDMDL
MODEL 2
REMARK VINA RESULT:      -5.6      2.715      4.300
REMARK  5 active torsions:
REMARK  status: ('A' for Active; 'I' for Inactive)
REMARK    1  A    between atoms: C_2  and  N_1 
REMARK    2  A    between atoms: C_2  and  C_3 
REMARK    3  A    between atoms: C_2  and  C_11 
REMARK    4  A    between atoms: C_3  and  N_4 
REMARK    5  A    between atoms: C_11  and  O_12 
ROOT
HETATM    1  C   UNK N   1      33.797  15.850   8.971  0.00  0.00     0.197 C 
ENDROOT
BRANCH   1   2
HETATM    2  C   UNK N   1      33.346  17.258   8.544  0.00  0.00     0.194 C 
BRANCH   2   3
HETATM    3  N   UNK N   1      32.045  17.810   8.856  0.00  0.00    -0.416 N 
HETATM    4  H   UNK N   1      31.971  18.644   9.439  0.00  0.00     0.150 HD
HETATM    5  H   UNK N   1      31.201  17.365   8.494  0.00  0.00     0.150 HD
ENDBRANCH   2   3
BRANCH   2   6
HETATM    6  C   UNK N   1      34.265  18.141   7.763  0.00  0.00     0.164 C 
HETATM    7  O   UNK N   1      34.361  18.015   6.553  0.00  0.00    -0.648 OA
BRANCH   6   8
HETATM    8  O   UNK N   1      34.990  19.082   8.397  0.00  0.00    -0.775 OA
HETATM    9  H   UNK N   1      35.500  19.693   7.902  0.00  0.00     0.167 HD
ENDBRANCH   6   8
ENDBRANCH   2   6
ENDBRANCH   1   2
BRANCH   1  10
HETATM   10  N   UNK N   1      34.541  15.616  10.218  0.00  0.00    -0.194 N 
HETATM   11  O   UNK N   1      34.277  14.573  10.947  0.00  0.00    -0.174 OA
HETATM   12  C   UNK N   1      35.055  14.566  12.003  0.00  0.00     0.391 A 
HETATM   13  O   UNK N   1      35.031  13.708  12.864  0.00  0.00    -0.236 OA
HETATM   14  N   UNK N   1      35.892  15.635  12.020  0.00  0.00    -0.251 N 
HETATM   15  C   UNK N   1      35.542  16.278  10.878  0.00  0.00     0.351 A 
HETATM   16  H   UNK N   1      36.574  15.878  12.687  0.00  0.00     0.176 HD
HETATM   17  O   UNK N   1      36.071  17.309  10.518  0.00  0.00    -0.244 OA
ENDBRANCH   1  10
TORSDOF 5
ENDMDL
MODEL 3
REMARK VINA RESULT:      -5.3      3.082      6.509
REMARK  5 active torsions:
REMARK  status: ('A' for Active; 'I' for Inactive)
REMARK    1  A    between atoms: C_2  and  N_1 
REMARK    2  A    between atoms: C_2  and  C_3 
REMARK    3  A    between atoms: C_2  and  C_11 
REMARK    4  A    between atoms: C_3  and  N_4 
REMARK    5  A    between atoms: C_11  and  O_12 
ROOT
HETATM    1  C   UNK N   1      35.363  16.908  10.494  0.00  0.00     0.197 C 
ENDROOT
BRANCH   1   2
HETATM    2  C   UNK N   1      35.650  15.477  10.980  0.00  0.00     0.194 C 
BRANCH   2   3
HETATM    3  N   UNK N   1      36.936  14.828  10.843  0.00  0.00    -0.416 N 
HETATM    4  H   UNK N   1      37.784  15.390  10.752  0.00  0.00     0.150 HD
HETATM    5  H   UNK N   1      36.997  13.811  10.837  0.00  0.00     0.150 HD
ENDBRANCH   2   3
BRANCH   2   6
HETATM    6  C   UNK N   1      34.574  14.672  11.637  0.00  0.00     0.164 C 
HETATM    7  O   UNK N   1      34.845  13.910  12.551  0.00  0.00    -0.648 OA
BRANCH   6   8
HETATM    8  O   UNK N   1      33.300  14.788  11.218  0.00  0.00    -0.775 OA
HETATM    9  H   UNK N   1      32.626  14.274  11.619  0.00  0.00     0.167 HD
ENDBRANCH   6   8
ENDBRANCH   2   6
ENDBRANCH   1   2
BRANCH   1  10
HETATM   10  N   UNK N   1      34.707  17.175   9.205  0.00  0.00    -0.194 N 
HETATM   11  O   UNK N   1      33.944  16.274   8.663  0.00  0.00    -0.174 OA
HETATM   12  C   UNK N   1      33.469  16.724   7.527  0.00  0.00     0.391 A 
HETATM   13  O   UNK N   1      32.724  16.095   6.800  0.00  0.00    -0.236 OA
HETATM   14  N   UNK N   1      33.909  17.980   7.259  0.00  0.00    -0.251 N 
HETATM   15  C   UNK N   1      34.689  18.236   8.338  0.00  0.00     0.351 A 
HETATM   16  H   UNK N   1      33.713  18.554   6.483  0.00  0.00     0.176 HD
HETATM   17  O   UNK N   1      35.283  19.284   8.484  0.00  0.00    -0.244 OA
ENDBRANCH   1  10
TORSDOF 5
ENDMDL
MODEL 4
REMARK VINA RESULT:      -5.3      5.779      7.656
REMARK  5 active torsions:
REMARK  status: ('A' for Active; 'I' for Inactive)
REMARK    1  A    between atoms: C_2  and  N_1 
REMARK    2  A    between atoms: C_2  and  C_3 
REMARK    3  A    between atoms: C_2  and  C_11 
REMARK    4  A    between atoms: C_3  and  N_4 
REMARK    5  A    between atoms: C_11  and  O_12 
ROOT
HETATM    1  C   UNK N   1      32.868  16.243   8.631  0.00  0.00     0.197 C 
ENDROOT
BRANCH   1   2
HETATM    2  C   UNK N   1      34.045  17.161   9.002  0.00  0.00     0.194 C 
BRANCH   2   3
HETATM    3  N   UNK N   1      34.736  17.103  10.273  0.00  0.00    -0.416 N 
HETATM    4  H   UNK N   1      35.664  16.682  10.330  0.00  0.00     0.150 HD
HETATM    5  H   UNK N   1      34.295  17.482  11.111  0.00  0.00     0.150 HD
ENDBRANCH   2   3
BRANCH   2   6
HETATM    6  C   UNK N   1      34.539  18.185   8.031  0.00  0.00     0.164 C 
HETATM    7  O   UNK N   1      35.076  19.206   8.431  0.00  0.00    -0.648 OA
BRANCH   6   8
HETATM    8  O   UNK N   1      34.393  17.981   6.709  0.00  0.00    -0.775 OA
HETATM    9  H   UNK N   1      33.805  17.320   6.399  0.00  0.00     0.167 HD
ENDBRANCH   6   8
ENDBRANCH   2   6
ENDBRANCH   1   2
BRANCH   1  10
HETATM   10  N   UNK N   1      31.547  16.779   8.266  0.00  0.00    -0.194 N 
HETATM   11  O   UNK N   1      30.624  16.906   9.170  0.00  0.00    -0.174 OA
HETATM   12  C   UNK N   1      29.538  17.399   8.624  0.00  0.00     0.391 A 
HETATM   13  O   UNK N   1      28.509  17.625   9.232  0.00  0.00    -0.236 OA
HETATM   14  N   UNK N   1      29.701  17.626   7.296  0.00  0.00    -0.251 N 
HETATM   15  C   UNK N   1      30.981  17.224   7.101  0.00  0.00     0.351 A 
HETATM   16  H   UNK N   1      29.056  17.988   6.645  0.00  0.00     0.176 HD
HETATM   17  O   UNK N   1      31.524  17.267   6.016  0.00  0.00    -0.244 OA
ENDBRANCH   1  10
TORSDOF 5
ENDMDL
MODEL 5
REMARK VINA RESULT:      -5.2     18.856     19.646
REMARK  5 active torsions:
REMARK  status: ('A' for Active; 'I' for Inactive)
REMARK    1  A    between atoms: C_2  and  N_1 
REMARK    2  A    between atoms: C_2  and  C_3 
REMARK    3  A    between atoms: C_2  and  C_11 
REMARK    4  A    between atoms: C_3  and  N_4 
REMARK    5  A    between atoms: C_11  and  O_12 
ROOT
HETATM    1  C   UNK N   1      20.291  17.538   2.503  0.00  0.00     0.197 C 
ENDROOT
BRANCH   1   2
HETATM    2  C   UNK N   1      19.978  16.509   1.404  0.00  0.00     0.194 C 
BRANCH   2   3
HETATM    3  N   UNK N   1      19.054  16.755   0.317  0.00  0.00    -0.416 N 
HETATM    4  H   UNK N   1      18.721  15.978  -0.255  0.00  0.00     0.150 HD
HETATM    5  H   UNK N   1      18.735  17.704   0.124  0.00  0.00     0.150 HD
ENDBRANCH   2   3
BRANCH   2   6
HETATM    6  C   UNK N   1      20.640  15.168   1.414  0.00  0.00     0.164 C 
HETATM    7  O   UNK N   1      20.171  14.254   2.073  0.00  0.00    -0.648 OA
BRANCH   6   8
HETATM    8  O   UNK N   1      21.758  14.966   0.693  0.00  0.00    -0.775 OA
HETATM    9  H   UNK N   1      21.989  15.564   0.009  0.00  0.00     0.167 HD
ENDBRANCH   6   8
ENDBRANCH   2   6
ENDBRANCH   1   2
BRANCH   1  10
HETATM   10  N   UNK N   1      20.559  18.951   2.194  0.00  0.00    -0.194 N 
HETATM   11  O   UNK N   1      20.751  19.323   0.964  0.00  0.00    -0.174 OA
HETATM   12  C   UNK N   1      20.970  20.616   0.924  0.00  0.00     0.391 A 
HETATM   13  O   UNK N   1      21.182  21.242  -0.097  0.00  0.00    -0.236 OA
HETATM   14  N   UNK N   1      20.931  21.172   2.161  0.00  0.00    -0.251 N 
HETATM   15  C   UNK N   1      20.669  20.094   2.941  0.00  0.00     0.351 A 
HETATM   16  H   UNK N   1      21.059  22.112   2.423  0.00  0.00     0.176 HD
HETATM   17  O   UNK N   1      20.554  20.169   4.147  0.00  0.00    -0.244 OA
ENDBRANCH   1  10
TORSDOF 5
ENDMDL
MODEL 6
REMARK VINA RESULT:      -5.1      2.512      5.735
REMARK  5 active torsions:
REMARK  status: ('A' for Active; 'I' for Inactive)
REMARK    1  A    between atoms: C_2  and  N_1 
REMARK    2  A    between atoms: C_2  and  C_3 
REMARK    3  A    between atoms: C_2  and  C_11 
REMARK    4  A    between atoms: C_3  and  N_4 
REMARK    5  A    between atoms: C_11  and  O_12 
ROOT
HETATM    1  C   UNK N   1      34.464  15.400  10.747  0.00  0.00     0.197 C 
ENDROOT
BRANCH   1   2
HETATM    2  C   UNK N   1      35.793  15.049  11.438  0.00  0.00     0.194 C 
BRANCH   2   3
HETATM    3  N   UNK N   1      37.091  15.308  10.854  0.00  0.00    -0.416 N 
HETATM    4  H   UNK N   1      37.399  16.269  10.700  0.00  0.00     0.150 HD
HETATM    5  H   UNK N   1      37.699  14.531  10.597  0.00  0.00     0.150 HD
ENDBRANCH   2   3
BRANCH   2   6
HETATM    6  C   UNK N   1      35.795  14.404  12.787  0.00  0.00     0.164 C 
HETATM    7  O   UNK N   1      34.866  13.691  13.132  0.00  0.00    -0.648 OA
BRANCH   6   8
HETATM    8  O   UNK N   1      36.827  14.610  13.627  0.00  0.00    -0.775 OA
HETATM    9  H   UNK N   1      37.596  14.078  13.564  0.00  0.00     0.167 HD
ENDBRANCH   6   8
ENDBRANCH   2   6
ENDBRANCH   1   2
BRANCH   1  10
HETATM   10  N   UNK N   1      34.388  16.394   9.666  0.00  0.00    -0.194 N 
HETATM   11  O   UNK N   1      35.082  17.490   9.739  0.00  0.00    -0.174 OA
HETATM   12  C   UNK N   1      34.861  18.223   8.674  0.00  0.00     0.391 A 
HETATM   13  O   UNK N   1      35.376  19.305   8.470  0.00  0.00    -0.236 OA
HETATM   14  N   UNK N   1      33.986  17.627   7.825  0.00  0.00    -0.251 N 
HETATM   15  C   UNK N   1      33.706  16.473   8.480  0.00  0.00     0.351 A 
HETATM   16  H   UNK N   1      33.644  17.949   6.959  0.00  0.00     0.176 HD
HETATM   17  O   UNK N   1      32.942  15.639   8.042  0.00  0.00    -0.244 OA
ENDBRANCH   1  10
TORSDOF 5
ENDMDL
MODEL 7
REMARK VINA RESULT:      -5.1      3.031      6.128
REMARK  5 active torsions:
REMARK  status: ('A' for Active; 'I' for Inactive)
REMARK    1  A    between atoms: C_2  and  N_1 
REMARK    2  A    between atoms: C_2  and  C_3 
REMARK    3  A    between atoms: C_2  and  C_11 
REMARK    4  A    between atoms: C_3  and  N_4 
REMARK    5  A    between atoms: C_11  and  O_12 
ROOT
HETATM    1  C   UNK N   1      35.292  12.838  16.786  0.00  0.00     0.197 C 
ENDROOT
BRANCH   1   2
HETATM    2  C   UNK N   1      35.350  13.575  18.136  0.00  0.00     0.194 C 
BRANCH   2   3
HETATM    3  N   UNK N   1      35.568  15.000  18.260  0.00  0.00    -0.416 N 
HETATM    4  H   UNK N   1      35.066  15.648  17.653  0.00  0.00     0.150 HD
HETATM    5  H   UNK N   1      36.224  15.357  18.955  0.00  0.00     0.150 HD
ENDBRANCH   2   3
BRANCH   2   6
HETATM    6  C   UNK N   1      35.177  12.821  19.415  0.00  0.00     0.164 C 
HETATM    7  O   UNK N   1      35.528  11.655  19.497  0.00  0.00    -0.648 OA
BRANCH   6   8
HETATM    8  O   UNK N   1      34.632  13.431  20.484  0.00  0.00    -0.775 OA
HETATM    9  H   UNK N   1      34.470  12.945  21.269  0.00  0.00     0.167 HD
ENDBRANCH   6   8
ENDBRANCH   2   6
ENDBRANCH   1   2
BRANCH   1  10
HETATM   10  N   UNK N   1      35.704  13.482  15.529  0.00  0.00    -0.194 N 
HETATM   11  O   UNK N   1      35.013  13.294  14.445  0.00  0.00    -0.174 OA
HETATM   12  C   UNK N   1      35.559  13.959  13.455  0.00  0.00     0.391 A 
HETATM   13  O   UNK N   1      35.127  13.969  12.318  0.00  0.00    -0.236 OA
HETATM   14  N   UNK N   1      36.666  14.636  13.852  0.00  0.00    -0.251 N 
HETATM   15  C   UNK N   1      36.730  14.314  15.168  0.00  0.00     0.351 A 
HETATM   16  H   UNK N   1      37.265  15.210  13.322  0.00  0.00     0.176 HD
HETATM   17  O   UNK N   1      37.602  14.729  15.903  0.00  0.00    -0.244 OA
ENDBRANCH   1  10
TORSDOF 5
ENDMDL
MODEL 8
REMARK VINA RESULT:      -5.1      6.164      7.775
REMARK  5 active torsions:
REMARK  status: ('A' for Active; 'I' for Inactive)
REMARK    1  A    between atoms: C_2  and  N_1 
REMARK    2  A    between atoms: C_2  and  C_3 
REMARK    3  A    between atoms: C_2  and  C_11 
REMARK    4  A    between atoms: C_3  and  N_4 
REMARK    5  A    between atoms: C_11  and  O_12 
ROOT
HETATM    1  C   UNK N   1      33.124  16.705   5.643  0.00  0.00     0.197 C 
ENDROOT
BRANCH   1   2
HETATM    2  C   UNK N   1      31.818  17.166   4.975  0.00  0.00     0.194 C 
BRANCH   2   3
HETATM    3  N   UNK N   1      31.768  17.837   3.693  0.00  0.00    -0.416 N 
HETATM    4  H   UNK N   1      31.538  17.309   2.850  0.00  0.00     0.150 HD
HETATM    5  H   UNK N   1      31.964  18.835   3.632  0.00  0.00     0.150 HD
ENDBRANCH   2   3
BRANCH   2   6
HETATM    6  C   UNK N   1      30.502  16.933   5.646  0.00  0.00     0.164 C 
HETATM    7  O   UNK N   1      29.556  17.670   5.422  0.00  0.00    -0.648 OA
BRANCH   6   8
HETATM    8  O   UNK N   1      30.360  15.904   6.503  0.00  0.00    -0.775 OA
HETATM    9  H   UNK N   1      31.095  15.360   6.709  0.00  0.00     0.167 HD
ENDBRANCH   6   8
ENDBRANCH   2   6
ENDBRANCH   1   2
BRANCH   1  10
HETATM   10  N   UNK N   1      33.559  17.228   6.947  0.00  0.00    -0.194 N 
HETATM   11  O   UNK N   1      34.436  18.185   7.005  0.00  0.00    -0.174 OA
HETATM   12  C   UNK N   1      34.672  18.491   8.258  0.00  0.00     0.391 A 
HETATM   13  O   UNK N   1      35.451  19.353   8.616  0.00  0.00    -0.236 OA
HETATM   14  N   UNK N   1      33.941  17.727   9.109  0.00  0.00    -0.251 N 
HETATM   15  C   UNK N   1      33.249  16.940   8.250  0.00  0.00     0.351 A 
HETATM   16  H   UNK N   1      33.920  17.742  10.094  0.00  0.00     0.176 HD
HETATM   17  O   UNK N   1      32.460  16.096   8.623  0.00  0.00    -0.244 OA
ENDBRANCH   1  10
TORSDOF 5
ENDMDL
MODEL 9
REMARK VINA RESULT:      -5.0     16.497     18.230
REMARK  5 active torsions:
REMARK  status: ('A' for Active; 'I' for Inactive)
REMARK    1  A    between atoms: C_2  and  N_1 
REMARK    2  A    between atoms: C_2  and  C_3 
REMARK    3  A    between atoms: C_2  and  C_11 
REMARK    4  A    between atoms: C_3  and  N_4 
REMARK    5  A    between atoms: C_11  and  O_12 
ROOT
HETATM    1  C   UNK N   1      21.261  18.428   3.444  0.00  0.00     0.197 C 
ENDROOT
BRANCH   1   2
HETATM    2  C   UNK N   1      20.305  19.069   2.423  0.00  0.00     0.194 C 
BRANCH   2   3
HETATM    3  N   UNK N   1      18.909  18.709   2.299  0.00  0.00    -0.416 N 
HETATM    4  H   UNK N   1      18.207  19.433   2.140  0.00  0.00     0.150 HD
HETATM    5  H   UNK N   1      18.625  17.732   2.371  0.00  0.00     0.150 HD
ENDBRANCH   2   3
BRANCH   2   6
HETATM    6  C   UNK N   1      20.798  20.125   1.487  0.00  0.00     0.164 C 
HETATM    7  O   UNK N   1      21.338  21.130   1.920  0.00  0.00    -0.648 OA
BRANCH   6   8
HETATM    8  O   UNK N   1      20.645  19.968   0.158  0.00  0.00    -0.775 OA
HETATM    9  H   UNK N   1      19.786  19.967  -0.218  0.00  0.00     0.167 HD
ENDBRANCH   6   8
ENDBRANCH   2   6
ENDBRANCH   1   2
BRANCH   1  10
HETATM   10  N   UNK N   1      20.767  17.652   4.592  0.00  0.00    -0.194 N 
HETATM   11  O   UNK N   1      19.912  16.691   4.409  0.00  0.00    -0.174 OA
HETATM   12  C   UNK N   1      19.614  16.141   5.561  0.00  0.00     0.391 A 
HETATM   13  O   UNK N   1      18.838  15.215   5.697  0.00  0.00    -0.236 OA
HETATM   14  N   UNK N   1      20.279  16.730   6.588  0.00  0.00    -0.251 N 
HETATM   15  C   UNK N   1      20.999  17.681   5.942  0.00  0.00     0.351 A 
HETATM   16  H   UNK N   1      20.246  16.522   7.550  0.00  0.00     0.176 HD
HETATM   17  O   UNK N   1      21.744  18.444   6.520  0.00  0.00    -0.244 OA
ENDBRANCH   1  10
TORSDOF 5
ENDMDL
