REMARK  9 active torsions:
REMARK  status: ('A' for Active; 'I' for Inactive)
REMARK    1  A    between atoms: C_42  and  C_6 
REMARK    2  A    between atoms: C_43  and  C_7 
REMARK    3  A    between atoms: C_20  and  C_16 
REMARK    4  A    between atoms: N_52  and  C_20 
REMARK    5  A    between atoms: C_45  and  C_32 
REMARK    6  A    between atoms: O_57  and  C_35 
REMARK    7  A    between atoms: C_45  and  C_40 
REMARK    8  A    between atoms: O_58  and  C_40 
REMARK    9  A    between atoms: C_43  and  O_56 
ROOT
HETATM    1  C   UNK N   1       5.725  -0.195   1.140  0.00  0.00     0.150 C 
HETATM    2  C   UNK N   1       5.386   7.205   1.890  0.00  0.00    -0.000 C 
HETATM    3  C   UNK N   1       6.412   6.447   1.507  0.00  0.00    -0.017 C 
HETATM    4  C   UNK N   1       4.413   3.394   2.637  0.00  0.00     0.049 C 
HETATM    5  C   UNK N   1       3.989   6.853   1.498  0.00  0.00     0.300 C 
HETATM    6  C   UNK N   1       3.845   4.803   2.816  0.00  0.00     0.274 C 
HETATM    7  C   UNK N   1       2.113   2.856   0.074  0.00  0.00     0.022 A 
HETATM    8  C   UNK N   1       3.078   0.252  -0.406  0.00  0.00     0.067 A 
HETATM    9  C   UNK N   1       7.202   4.106   1.439  0.00  0.00     0.067 C 
HETATM   10  C   UNK N   1       3.343   2.431   0.575  0.00  0.00    -0.018 A 
HETATM   11  C   UNK N   1       1.326   1.963  -0.710  0.00  0.00     0.000 A 
HETATM   12  C   UNK N   1       3.769   1.147   0.357  0.00  0.00     0.040 A 
HETATM   13  C   UNK N   1       1.883   0.659  -1.002  0.00  0.00     0.078 A 
HETATM   14  C   UNK N   1       4.718   4.673   0.635  0.00  0.00     0.250 C 
HETATM   15  C   UNK N   1       5.651   2.341   0.602  0.00  0.00     0.144 C 
HETATM   16  C   UNK N   1       7.959   2.288  -0.268  0.00  0.00     0.266 A 
HETATM   17  C   UNK N   1       8.586   0.975   1.297  0.00  0.00     0.370 A 
HETATM   18  C   UNK N   1       6.257   5.149   0.743  0.00  0.00     0.012 C 
HETATM   19  C   UNK N   1       4.520   3.243   1.128  0.00  0.00     0.046 C 
HETATM   20  C   UNK N   1       7.102   2.639   0.945  0.00  0.00     0.175 A 
HETATM   21  N   UNK N   1       5.104   1.019   0.671  0.00  0.00    -0.375 N 
HETATM   22  N   UNK N   1       3.776   5.409   1.484  0.00  0.00     0.098 N 
HETATM   23  N   UNK N   1       8.778   1.281   0.011  0.00  0.00    -0.260 N 
HETATM   24  O   UNK N   1       7.883   2.803  -1.377  0.00  0.00    -0.269 OA
HETATM   25  O   UNK N   1       9.177   0.074   1.875  0.00  0.00    -0.238 OA
HETATM   26  O   UNK N   1       7.633   1.744   1.883  0.00  0.00    -0.280 OA
ENDROOT
BRANCH  11  27
HETATM   27  C   UNK N   1       0.028   2.518  -1.372  0.00  0.00     0.121 C 
HETATM   28  C   UNK N   1      -0.832   1.424  -2.101  0.00  0.00     0.038 C 
HETATM   29  C   UNK N   1      -1.299   0.109  -1.401  0.00  0.00     0.018 C 
HETATM   30  C   UNK N   1      -0.826  -0.078   0.050  0.00  0.00     0.046 C 
HETATM   31  C   UNK N   1      -2.798  -0.168  -1.559  0.00  0.00     0.277 C 
HETATM   32  C   UNK N   1      -1.569  -1.229   0.725  0.00  0.00     0.084 C 
HETATM   33  C   UNK N   1      -3.064  -0.867   0.795  0.00  0.00     0.310 C 
HETATM   34  N   UNK N   1      -3.554  -0.003  -0.302  0.00  0.00     0.092 N 
HETATM   35  C   UNK N   1      -3.606   1.375   0.195  0.00  0.00     0.277 C 
HETATM   36  C   UNK N   1      -3.268   2.425  -0.858  0.00  0.00     0.072 C 
HETATM   37  C   UNK N   1      -2.258   3.342  -0.273  0.00  0.00    -0.020 A 
HETATM   38  C   UNK N   1      -2.580   4.417   0.509  0.00  0.00    -0.001 A 
HETATM   39  C   UNK N   1      -0.858   3.379  -0.439  0.00  0.00     0.040 A 
HETATM   40  C   UNK N   1      -3.822   4.887   0.934  0.00  0.00     0.014 A 
HETATM   41  C   UNK N   1      -1.418   5.061   0.812  0.00  0.00     0.043 A 
HETATM   42  C   UNK N   1      -3.849   6.066   1.697  0.00  0.00     0.001 A 
HETATM   43  C   UNK N   1      -2.645   6.736   2.014  0.00  0.00     0.002 A 
HETATM   44  C   UNK N   1      -1.407   6.231   1.567  0.00  0.00     0.030 A 
HETATM   45  N   UNK N   1      -0.359   4.446   0.248  0.00  0.00    -0.357 N 
HETATM   46  H   UNK N   1       0.585   4.715   0.318  0.00  0.00     0.166 HD
BRANCH  32  47
HETATM   47  C   UNK N   1      -1.409  -2.558  -0.026  0.00  0.00     0.035 C 
HETATM   48  C   UNK N   1       0.037  -3.027  -0.097  0.00  0.00     0.008 C 
ENDBRANCH  32  47
BRANCH  32  49
HETATM   49  O   UNK N   1      -1.082  -1.384   2.026  0.00  0.00    -0.388 OA
HETATM   50  H   UNK N   1      -1.006  -1.730   2.929  0.00  0.00     0.210 HD
ENDBRANCH  32  49
BRANCH  27  51
HETATM   51  C   UNK N   1       0.512   3.520  -2.424  0.00  0.00     0.278 C 
HETATM   52  O   UNK N   1       1.197   4.480  -2.083  0.00  0.00    -0.264 OA
BRANCH  51  53
HETATM   53  O   UNK N   1       0.174   3.370  -3.728  0.00  0.00    -0.325 OA
HETATM   54  C   UNK N   1       0.547   4.285  -4.686  0.00  0.00     0.213 C 
ENDBRANCH  51  53
ENDBRANCH  27  51
ENDBRANCH  11  27
BRANCH  13  55
HETATM   55  O   UNK N   1       1.335  -0.149  -1.935  0.00  0.00    -0.355 OA
HETATM   56  C   UNK N   1       1.915  -1.318  -2.383  0.00  0.00     0.210 C 
ENDBRANCH  13  55
BRANCH  18  57
HETATM   57  C   UNK N   1       6.781   5.407  -0.683  0.00  0.00     0.011 C 
HETATM   58  C   UNK N   1       8.215   5.928  -0.738  0.00  0.00     0.006 C 
ENDBRANCH  18  57
BRANCH  23  59
HETATM   59  C   UNK N   1       9.698   0.678  -0.933  0.00  0.00     0.152 C 
BRANCH  59  60
HETATM   60  C   UNK N   1       9.719  -0.837  -0.848  0.00  0.00     0.135 C 
HETATM   61 Cl   UNK N   1      11.332  -1.295  -0.252  0.00  0.00    -0.129 Cl
ENDBRANCH  59  60
ENDBRANCH  23  59
TORSDOF 9
