MODEL 1
REMARK VINA RESULT:      -5.6      0.000      0.000
REMARK  9 active torsions:
REMARK  status: ('A' for Active; 'I' for Inactive)
REMARK    1  A    between atoms: C_2  and  N_1 
REMARK    2  A    between atoms: C_3  and  O_4 
REMARK    3  A    between atoms: C_6  and  C_7 
REMARK    4  A    between atoms: C_7  and  O_8 
REMARK    5  A    between atoms: C_9  and  O_10 
REMARK    6  A    between atoms: O_10  and  P_11 
REMARK    7  A    between atoms: P_11  and  O_12 
REMARK    8  A    between atoms: P_11  and  O_13 
REMARK    9  A    between atoms: C_15  and  O_16 
ROOT
HETATM    1  C   UNK N   1      34.493  15.411  11.018  0.00  0.00     0.161 C 
HETATM    2  C   UNK N   1      35.723  15.954  10.289  0.00  0.00     0.282 C 
HETATM    3  O   UNK N   1      35.442  17.258   9.850  0.00  0.00    -0.349 OA
HETATM    4  C   UNK N   1      34.567  17.139   8.753  0.00  0.00     0.180 C 
HETATM    5  C   UNK N   1      33.182  16.662   9.242  0.00  0.00     0.195 C 
HETATM    6  C   UNK N   1      33.347  15.342  10.005  0.00  0.00     0.177 C 
ENDROOT
BRANCH   5   7
HETATM    7  O   UNK N   1      32.336  16.444   8.147  0.00  0.00    -0.286 OA
BRANCH   7   8
HETATM    8  P   UNK N   1      30.841  17.264   8.496  0.00  0.00     0.391 P 
HETATM    9  O   UNK N   1      31.204  18.753   8.739  0.00  0.00    -0.632 OA
BRANCH   8  10
HETATM   10  O   UNK N   1      30.089  16.700   9.956  0.00  0.00    -0.307 OA
HETATM   11  H   UNK N   1      29.515  16.757  10.737  0.00  0.00     0.222 HD
ENDBRANCH   8  10
BRANCH   8  12
HETATM   12  O   UNK N   1      29.749  17.232   7.147  0.00  0.00    -0.307 OA
HETATM   13  H   UNK N   1      30.090  17.094   6.249  0.00  0.00     0.222 HD
ENDBRANCH   8  12
ENDBRANCH   7   8
ENDBRANCH   5   7
BRANCH   4  14
HETATM   14  C   UNK N   1      34.488  18.493   8.060  0.00  0.00     0.198 C 
BRANCH  14  15
HETATM   15  O   UNK N   1      35.418  19.382   8.598  0.00  0.00    -0.398 OA
HETATM   16  H   UNK N   1      35.693  20.295   8.421  0.00  0.00     0.209 HD
ENDBRANCH  14  15
ENDBRANCH   4  14
BRANCH   6  17
HETATM   17  O   UNK N   1      32.156  14.999  10.647  0.00  0.00    -0.391 OA
HETATM   18  H   UNK N   1      31.300  15.289  10.296  0.00  0.00     0.210 HD
ENDBRANCH   6  17
BRANCH   1  19
HETATM   19  N   UNK N   1      34.763  14.080  11.538  0.00  0.00    -0.420 N 
HETATM   20  H   UNK N   1      34.156  13.267  11.428  0.00  0.00     0.150 HD
HETATM   21  H   UNK N   1      35.631  13.949  12.056  0.00  0.00     0.150 HD
ENDBRANCH   1  19
BRANCH   2  22
HETATM   22  O   UNK N   1      36.825  15.983  11.147  0.00  0.00    -0.369 OA
HETATM   23  H   UNK N   1      37.590  16.575  11.080  0.00  0.00     0.212 HD
ENDBRANCH   2  22
TORSDOF 9
ENDMDL
MODEL 2
REMARK VINA RESULT:      -5.6     13.301     14.852
REMARK  9 active torsions:
REMARK  status: ('A' for Active; 'I' for Inactive)
REMARK    1  A    between atoms: C_2  and  N_1 
REMARK    2  A    between atoms: C_3  and  O_4 
REMARK    3  A    between atoms: C_6  and  C_7 
REMARK    4  A    between atoms: C_7  and  O_8 
REMARK    5  A    between atoms: C_9  and  O_10 
REMARK    6  A    between atoms: O_10  and  P_11 
REMARK    7  A    between atoms: P_11  and  O_12 
REMARK    8  A    between atoms: P_11  and  O_13 
REMARK    9  A    between atoms: C_15  and  O_16 
ROOT
HETATM    1  C   UNK N   1      20.961  19.949   1.661  0.00  0.00     0.161 C 
HETATM    2  C   UNK N   1      21.283  20.703   2.951  0.00  0.00     0.282 C 
HETATM    3  O   UNK N   1      21.997  19.846   3.803  0.00  0.00    -0.349 OA
HETATM    4  C   UNK N   1      21.072  18.915   4.314  0.00  0.00     0.180 C 
HETATM    5  C   UNK N   1      20.630  17.952   3.190  0.00  0.00     0.195 C 
HETATM    6  C   UNK N   1      20.056  18.770   2.026  0.00  0.00     0.177 C 
ENDROOT
BRANCH   5   7
HETATM    7  O   UNK N   1      19.634  17.088   3.664  0.00  0.00    -0.286 OA
BRANCH   7   8
HETATM    8  P   UNK N   1      20.168  15.468   3.315  0.00  0.00     0.391 P 
HETATM    9  O   UNK N   1      21.312  15.598   2.274  0.00  0.00    -0.632 OA
BRANCH   8  10
HETATM   10  O   UNK N   1      18.935  14.499   2.569  0.00  0.00    -0.307 OA
HETATM   11  H   UNK N   1      18.051  14.111   2.470  0.00  0.00     0.222 HD
ENDBRANCH   8  10
BRANCH   8  12
HETATM   12  O   UNK N   1      20.851  14.691   4.710  0.00  0.00    -0.307 OA
HETATM   13  H   UNK N   1      21.445  15.184   5.297  0.00  0.00     0.222 HD
ENDBRANCH   8  12
ENDBRANCH   7   8
ENDBRANCH   5   7
BRANCH   4  14
HETATM   14  C   UNK N   1      21.733  18.172   5.468  0.00  0.00     0.198 C 
BRANCH  14  15
HETATM   15  O   UNK N   1      21.262  18.641   6.695  0.00  0.00    -0.398 OA
HETATM   16  H   UNK N   1      20.727  19.392   6.995  0.00  0.00     0.209 HD
ENDBRANCH  14  15
ENDBRANCH   4  14
BRANCH   6  17
HETATM   17  O   UNK N   1      19.853  17.953   0.912  0.00  0.00    -0.391 OA
HETATM   18  H   UNK N   1      18.965  17.645   0.675  0.00  0.00     0.210 HD
ENDBRANCH   6  17
BRANCH   1  19
HETATM   19  N   UNK N   1      20.268  20.821   0.726  0.00  0.00    -0.420 N 
HETATM   20  H   UNK N   1      20.020  20.583  -0.234  0.00  0.00     0.150 HD
HETATM   21  H   UNK N   1      20.009  21.750   1.060  0.00  0.00     0.150 HD
ENDBRANCH   1  19
BRANCH   2  22
HETATM   22  O   UNK N   1      22.058  21.832   2.676  0.00  0.00    -0.369 OA
HETATM   23  H   UNK N   1      21.968  22.706   3.088  0.00  0.00     0.212 HD
ENDBRANCH   2  22
TORSDOF 9
ENDMDL
MODEL 3
REMARK VINA RESULT:      -5.4      2.296      3.506
REMARK  9 active torsions:
REMARK  status: ('A' for Active; 'I' for Inactive)
REMARK    1  A    between atoms: C_2  and  N_1 
REMARK    2  A    between atoms: C_3  and  O_4 
REMARK    3  A    between atoms: C_6  and  C_7 
REMARK    4  A    between atoms: C_7  and  O_8 
REMARK    5  A    between atoms: C_9  and  O_10 
REMARK    6  A    between atoms: O_10  and  P_11 
REMARK    7  A    between atoms: P_11  and  O_12 
REMARK    8  A    between atoms: P_11  and  O_13 
REMARK    9  A    between atoms: C_15  and  O_16 
ROOT
HETATM    1  C   UNK N   1      36.497  15.377  11.417  0.00  0.00     0.161 C 
HETATM    2  C   UNK N   1      36.761  14.041  10.722  0.00  0.00     0.282 C 
HETATM    3  O   UNK N   1      37.003  14.286   9.361  0.00  0.00    -0.349 OA
HETATM    4  C   UNK N   1      35.761  14.599   8.777  0.00  0.00     0.180 C 
HETATM    5  C   UNK N   1      35.289  15.984   9.271  0.00  0.00     0.195 C 
HETATM    6  C   UNK N   1      35.229  15.976  10.804  0.00  0.00     0.177 C 
ENDROOT
BRANCH   5   7
HETATM    7  O   UNK N   1      34.007  16.258   8.774  0.00  0.00    -0.286 OA
BRANCH   7   8
HETATM    8  P   UNK N   1      34.102  17.797   7.965  0.00  0.00     0.391 P 
HETATM    9  O   UNK N   1      32.707  18.460   8.119  0.00  0.00    -0.632 OA
BRANCH   8  10
HETATM   10  O   UNK N   1      34.385  17.645   6.259  0.00  0.00    -0.307 OA
HETATM   11  H   UNK N   1      34.202  17.777   5.315  0.00  0.00     0.222 HD
ENDBRANCH   8  10
BRANCH   8  12
HETATM   12  O   UNK N   1      35.245  18.863   8.722  0.00  0.00    -0.307 OA
HETATM   13  H   UNK N   1      34.948  19.489   9.402  0.00  0.00     0.222 HD
ENDBRANCH   8  12
ENDBRANCH   7   8
ENDBRANCH   5   7
BRANCH   4  14
HETATM   14  C   UNK N   1      35.926  14.564   7.262  0.00  0.00     0.198 C 
BRANCH  14  15
HETATM   15  O   UNK N   1      34.685  14.501   6.629  0.00  0.00    -0.398 OA
HETATM   16  H   UNK N   1      33.855  15.001   6.670  0.00  0.00     0.209 HD
ENDBRANCH  14  15
ENDBRANCH   4  14
BRANCH   6  17
HETATM   17  O   UNK N   1      35.022  17.268  11.289  0.00  0.00    -0.391 OA
HETATM   18  H   UNK N   1      35.758  17.895  11.369  0.00  0.00     0.210 HD
ENDBRANCH   6  17
BRANCH   1  19
HETATM   19  N   UNK N   1      36.296  15.172  12.843  0.00  0.00    -0.420 N 
HETATM   20  H   UNK N   1      35.480  14.734  13.269  0.00  0.00     0.150 HD
HETATM   21  H   UNK N   1      37.035  15.494  13.469  0.00  0.00     0.150 HD
ENDBRANCH   1  19
BRANCH   2  22
HETATM   22  O   UNK N   1      37.875  13.411  11.283  0.00  0.00    -0.369 OA
HETATM   23  H   UNK N   1      38.779  13.422  10.932  0.00  0.00     0.212 HD
ENDBRANCH   2  22
TORSDOF 9
ENDMDL
MODEL 4
REMARK VINA RESULT:      -5.4      3.138      4.283
REMARK  9 active torsions:
REMARK  status: ('A' for Active; 'I' for Inactive)
REMARK    1  A    between atoms: C_2  and  N_1 
REMARK    2  A    between atoms: C_3  and  O_4 
REMARK    3  A    between atoms: C_6  and  C_7 
REMARK    4  A    between atoms: C_7  and  O_8 
REMARK    5  A    between atoms: C_9  and  O_10 
REMARK    6  A    between atoms: O_10  and  P_11 
REMARK    7  A    between atoms: P_11  and  O_12 
REMARK    8  A    between atoms: P_11  and  O_13 
REMARK    9  A    between atoms: C_15  and  O_16 
ROOT
HETATM    1  C   UNK N   1      32.775  17.911   8.068  0.00  0.00     0.161 C 
HETATM    2  C   UNK N   1      33.295  17.220   6.806  0.00  0.00     0.282 C 
HETATM    3  O   UNK N   1      32.460  17.566   5.732  0.00  0.00    -0.349 OA
HETATM    4  C   UNK N   1      31.260  16.848   5.901  0.00  0.00     0.180 C 
HETATM    5  C   UNK N   1      30.480  17.416   7.106  0.00  0.00     0.195 C 
HETATM    6  C   UNK N   1      31.374  17.364   8.352  0.00  0.00     0.177 C 
ENDROOT
BRANCH   5   7
HETATM    7  O   UNK N   1      29.335  16.643   7.343  0.00  0.00    -0.286 OA
BRANCH   7   8
HETATM    8  P   UNK N   1      28.027  17.757   7.625  0.00  0.00     0.391 P 
HETATM    9  O   UNK N   1      28.554  19.162   7.226  0.00  0.00    -0.632 OA
BRANCH   8  10
HETATM   10  O   UNK N   1      27.580  17.861   9.299  0.00  0.00    -0.307 OA
HETATM   11  H   UNK N   1      27.715  18.040  10.243  0.00  0.00     0.222 HD
ENDBRANCH   8  10
BRANCH   8  12
HETATM   12  O   UNK N   1      26.661  17.430   6.605  0.00  0.00    -0.307 OA
HETATM   13  H   UNK N   1      26.752  17.482   5.640  0.00  0.00     0.222 HD
ENDBRANCH   8  12
ENDBRANCH   7   8
ENDBRANCH   5   7
BRANCH   4  14
HETATM   14  C   UNK N   1      30.460  16.951   4.608  0.00  0.00     0.198 C 
BRANCH  14  15
HETATM   15  O   UNK N   1      29.740  18.144   4.564  0.00  0.00    -0.398 OA
HETATM   16  H   UNK N   1      29.956  19.090   4.582  0.00  0.00     0.209 HD
ENDBRANCH  14  15
ENDBRANCH   4  14
BRANCH   6  17
HETATM   17  O   UNK N   1      30.784  18.068   9.403  0.00  0.00    -0.391 OA
HETATM   18  H   UNK N   1      31.218  18.846   9.787  0.00  0.00     0.210 HD
ENDBRANCH   6  17
BRANCH   1  19
HETATM   19  N   UNK N   1      33.646  17.622   9.196  0.00  0.00    -0.420 N 
HETATM   20  H   UNK N   1      34.555  17.163   9.140  0.00  0.00     0.150 HD
HETATM   21  H   UNK N   1      33.320  17.903  10.120  0.00  0.00     0.150 HD
ENDBRANCH   1  19
BRANCH   2  22
HETATM   22  O   UNK N   1      34.601  17.631   6.528  0.00  0.00    -0.369 OA
HETATM   23  H   UNK N   1      35.244  17.165   5.972  0.00  0.00     0.212 HD
ENDBRANCH   2  22
TORSDOF 9
ENDMDL
MODEL 5
REMARK VINA RESULT:      -5.3      2.108      3.761
REMARK  9 active torsions:
REMARK  status: ('A' for Active; 'I' for Inactive)
REMARK    1  A    between atoms: C_2  and  N_1 
REMARK    2  A    between atoms: C_3  and  O_4 
REMARK    3  A    between atoms: C_6  and  C_7 
REMARK    4  A    between atoms: C_7  and  O_8 
REMARK    5  A    between atoms: C_9  and  O_10 
REMARK    6  A    between atoms: O_10  and  P_11 
REMARK    7  A    between atoms: P_11  and  O_12 
REMARK    8  A    between atoms: P_11  and  O_13 
REMARK    9  A    between atoms: C_15  and  O_16 
ROOT
HETATM    1  C   UNK N   1      36.219  13.979  11.112  0.00  0.00     0.161 C 
HETATM    2  C   UNK N   1      34.875  13.267  11.278  0.00  0.00     0.282 C 
HETATM    3  O   UNK N   1      34.112  13.479  10.119  0.00  0.00    -0.349 OA
HETATM    4  C   UNK N   1      33.664  14.813  10.165  0.00  0.00     0.180 C 
HETATM    5  C   UNK N   1      34.856  15.769   9.941  0.00  0.00     0.195 C 
HETATM    6  C   UNK N   1      35.937  15.478  10.989  0.00  0.00     0.177 C 
ENDROOT
BRANCH   5   7
HETATM    7  O   UNK N   1      34.437  17.099  10.085  0.00  0.00    -0.286 OA
BRANCH   7   8
HETATM    8  P   UNK N   1      34.368  17.780   8.485  0.00  0.00     0.391 P 
HETATM    9  O   UNK N   1      35.284  19.033   8.501  0.00  0.00    -0.632 OA
BRANCH   8  10
HETATM   10  O   UNK N   1      32.780  18.341   8.060  0.00  0.00    -0.307 OA
HETATM   11  H   UNK N   1      32.019  18.942   8.077  0.00  0.00     0.222 HD
ENDBRANCH   8  10
BRANCH   8  12
HETATM   12  O   UNK N   1      35.019  16.704   7.289  0.00  0.00    -0.307 OA
HETATM   13  H   UNK N   1      34.458  16.386   6.564  0.00  0.00     0.222 HD
ENDBRANCH   8  12
ENDBRANCH   7   8
ENDBRANCH   5   7
BRANCH   4  14
HETATM   14  C   UNK N   1      32.588  14.990   9.101  0.00  0.00     0.198 C 
BRANCH  14  15
HETATM   15  O   UNK N   1      31.596  15.868   9.538  0.00  0.00    -0.398 OA
HETATM   16  H   UNK N   1      31.517  16.828   9.651  0.00  0.00     0.209 HD
ENDBRANCH  14  15
ENDBRANCH   4  14
BRANCH   6  17
HETATM   17  O   UNK N   1      37.111  16.167  10.681  0.00  0.00    -0.391 OA
HETATM   18  H   UNK N   1      37.230  17.092  10.945  0.00  0.00     0.210 HD
ENDBRANCH   6  17
BRANCH   1  19
HETATM   19  N   UNK N   1      37.063  13.737  12.270  0.00  0.00    -0.420 N 
HETATM   20  H   UNK N   1      38.068  13.561  12.245  0.00  0.00     0.150 HD
HETATM   21  H   UNK N   1      36.613  13.744  13.186  0.00  0.00     0.150 HD
ENDBRANCH   1  19
BRANCH   2  22
HETATM   22  O   UNK N   1      35.070  11.895  11.459  0.00  0.00    -0.369 OA
HETATM   23  H   UNK N   1      35.797  11.365  11.097  0.00  0.00     0.212 HD
ENDBRANCH   2  22
TORSDOF 9
ENDMDL
MODEL 6
REMARK VINA RESULT:      -5.1     13.043     14.414
REMARK  9 active torsions:
REMARK  status: ('A' for Active; 'I' for Inactive)
REMARK    1  A    between atoms: C_2  and  N_1 
REMARK    2  A    between atoms: C_3  and  O_4 
REMARK    3  A    between atoms: C_6  and  C_7 
REMARK    4  A    between atoms: C_7  and  O_8 
REMARK    5  A    between atoms: C_9  and  O_10 
REMARK    6  A    between atoms: O_10  and  P_11 
REMARK    7  A    between atoms: P_11  and  O_12 
REMARK    8  A    between atoms: P_11  and  O_13 
REMARK    9  A    between atoms: C_15  and  O_16 
ROOT
HETATM    1  C   UNK N   1      19.461  15.788   3.737  0.00  0.00     0.161 C 
HETATM    2  C   UNK N   1      20.268  15.364   4.965  0.00  0.00     0.282 C 
HETATM    3  O   UNK N   1      20.501  16.498   5.759  0.00  0.00    -0.349 OA
HETATM    4  C   UNK N   1      21.484  17.261   5.100  0.00  0.00     0.180 C 
HETATM    5  C   UNK N   1      20.884  17.886   3.821  0.00  0.00     0.195 C 
HETATM    6  C   UNK N   1      20.319  16.769   2.935  0.00  0.00     0.177 C 
ENDROOT
BRANCH   5   7
HETATM    7  O   UNK N   1      21.881  18.564   3.106  0.00  0.00    -0.286 OA
BRANCH   7   8
HETATM    8  P   UNK N   1      21.251  20.145   2.743  0.00  0.00     0.391 P 
HETATM    9  O   UNK N   1      20.272  20.502   3.893  0.00  0.00    -0.632 OA
BRANCH   8  10
HETATM   10  O   UNK N   1      20.317  20.179   1.279  0.00  0.00    -0.307 OA
HETATM   11  H   UNK N   1      20.174  20.209   0.320  0.00  0.00     0.222 HD
ENDBRANCH   8  10
BRANCH   8  12
HETATM   12  O   UNK N   1      22.492  21.360   2.751  0.00  0.00    -0.307 OA
HETATM   13  H   UNK N   1      23.344  21.185   2.322  0.00  0.00     0.222 HD
ENDBRANCH   8  12
ENDBRANCH   7   8
ENDBRANCH   5   7
BRANCH   4  14
HETATM   14  C   UNK N   1      21.987  18.326   6.067  0.00  0.00     0.198 C 
BRANCH  14  15
HETATM   15  O   UNK N   1      21.062  18.546   7.088  0.00  0.00    -0.398 OA
HETATM   16  H   UNK N   1      20.201  18.986   7.165  0.00  0.00     0.209 HD
ENDBRANCH  14  15
ENDBRANCH   4  14
BRANCH   6  17
HETATM   17  O   UNK N   1      19.578  17.311   1.883  0.00  0.00    -0.391 OA
HETATM   18  H   UNK N   1      20.017  17.683   1.103  0.00  0.00     0.210 HD
ENDBRANCH   6  17
BRANCH   1  19
HETATM   19  N   UNK N   1      19.149  14.630   2.915  0.00  0.00    -0.420 N 
HETATM   20  H   UNK N   1      19.738  14.257   2.170  0.00  0.00     0.150 HD
HETATM   21  H   UNK N   1      18.268  14.151   3.098  0.00  0.00     0.150 HD
ENDBRANCH   1  19
BRANCH   2  22
HETATM   22  O   UNK N   1      19.562  14.416   5.709  0.00  0.00    -0.369 OA
HETATM   23  H   UNK N   1      18.703  14.028   5.478  0.00  0.00     0.212 HD
ENDBRANCH   2  22
TORSDOF 9
ENDMDL
MODEL 7
REMARK VINA RESULT:      -5.1      2.424      3.557
REMARK  9 active torsions:
REMARK  status: ('A' for Active; 'I' for Inactive)
REMARK    1  A    between atoms: C_2  and  N_1 
REMARK    2  A    between atoms: C_3  and  O_4 
REMARK    3  A    between atoms: C_6  and  C_7 
REMARK    4  A    between atoms: C_7  and  O_8 
REMARK    5  A    between atoms: C_9  and  O_10 
REMARK    6  A    between atoms: O_10  and  P_11 
REMARK    7  A    between atoms: P_11  and  O_12 
REMARK    8  A    between atoms: P_11  and  O_13 
REMARK    9  A    between atoms: C_15  and  O_16 
ROOT
HETATM    1  C   UNK N   1      33.350  13.163   9.122  0.00  0.00     0.161 C 
HETATM    2  C   UNK N   1      34.501  12.904  10.095  0.00  0.00     0.282 C 
HETATM    3  O   UNK N   1      34.763  14.087  10.803  0.00  0.00    -0.349 OA
HETATM    4  C   UNK N   1      35.417  14.959   9.911  0.00  0.00     0.180 C 
HETATM    5  C   UNK N   1      34.421  15.444   8.834  0.00  0.00     0.195 C 
HETATM    6  C   UNK N   1      33.817  14.226   8.125  0.00  0.00     0.177 C 
ENDROOT
BRANCH   5   7
HETATM    7  O   UNK N   1      35.088  16.231   7.885  0.00  0.00    -0.286 OA
BRANCH   7   8
HETATM    8  P   UNK N   1      34.189  17.714   7.742  0.00  0.00     0.391 P 
HETATM    9  O   UNK N   1      34.073  18.011   6.223  0.00  0.00    -0.632 OA
BRANCH   8  10
HETATM   10  O   UNK N   1      35.013  19.072   8.443  0.00  0.00    -0.307 OA
HETATM   11  H   UNK N   1      35.138  20.003   8.689  0.00  0.00     0.222 HD
ENDBRANCH   8  10
BRANCH   8  12
HETATM   12  O   UNK N   1      32.568  17.555   8.342  0.00  0.00    -0.307 OA
HETATM   13  H   UNK N   1      31.814  17.759   7.766  0.00  0.00     0.222 HD
ENDBRANCH   8  12
ENDBRANCH   7   8
ENDBRANCH   5   7
BRANCH   4  14
HETATM   14  C   UNK N   1      35.992  16.119  10.715  0.00  0.00     0.198 C 
BRANCH  14  15
HETATM   15  O   UNK N   1      35.022  17.096  10.939  0.00  0.00    -0.398 OA
HETATM   16  H   UNK N   1      34.995  18.066  10.931  0.00  0.00     0.209 HD
ENDBRANCH  14  15
ENDBRANCH   4  14
BRANCH   6  17
HETATM   17  O   UNK N   1      32.757  14.618   7.306  0.00  0.00    -0.391 OA
HETATM   18  H   UNK N   1      31.844  14.367   7.516  0.00  0.00     0.210 HD
ENDBRANCH   6  17
BRANCH   1  19
HETATM   19  N   UNK N   1      33.010  11.943   8.408  0.00  0.00    -0.420 N 
HETATM   20  H   UNK N   1      32.178  11.375   8.568  0.00  0.00     0.150 HD
HETATM   21  H   UNK N   1      33.659  11.630   7.685  0.00  0.00     0.150 HD
ENDBRANCH   1  19
BRANCH   2  22
HETATM   22  O   UNK N   1      34.159  11.892  10.997  0.00  0.00    -0.369 OA
HETATM   23  H   UNK N   1      34.684  11.102  11.199  0.00  0.00     0.212 HD
ENDBRANCH   2  22
TORSDOF 9
ENDMDL
MODEL 8
REMARK VINA RESULT:      -5.0      3.900      5.652
REMARK  9 active torsions:
REMARK  status: ('A' for Active; 'I' for Inactive)
REMARK    1  A    between atoms: C_2  and  N_1 
REMARK    2  A    between atoms: C_3  and  O_4 
REMARK    3  A    between atoms: C_6  and  C_7 
REMARK    4  A    between atoms: C_7  and  O_8 
REMARK    5  A    between atoms: C_9  and  O_10 
REMARK    6  A    between atoms: O_10  and  P_11 
REMARK    7  A    between atoms: P_11  and  O_12 
REMARK    8  A    between atoms: P_11  and  O_13 
REMARK    9  A    between atoms: C_15  and  O_16 
ROOT
HETATM    1  C   UNK N   1      36.622  12.782  14.025  0.00  0.00     0.161 C 
HETATM    2  C   UNK N   1      35.873  11.499  13.663  0.00  0.00     0.282 C 
HETATM    3  O   UNK N   1      35.861  11.368  12.266  0.00  0.00    -0.349 OA
HETATM    4  C   UNK N   1      34.937  12.310  11.776  0.00  0.00     0.180 C 
HETATM    5  C   UNK N   1      35.504  13.736  11.957  0.00  0.00     0.195 C 
HETATM    6  C   UNK N   1      35.838  13.958  13.437  0.00  0.00     0.177 C 
ENDROOT
BRANCH   5   7
HETATM    7  O   UNK N   1      34.549  14.684  11.565  0.00  0.00    -0.286 OA
BRANCH   7   8
HETATM    8  P   UNK N   1      35.336  15.753  10.440  0.00  0.00     0.391 P 
HETATM    9  O   UNK N   1      35.384  15.003   9.082  0.00  0.00    -0.632 OA
BRANCH   8  10
HETATM   10  O   UNK N   1      36.985  16.090  10.870  0.00  0.00    -0.307 OA
HETATM   11  H   UNK N   1      37.871  15.887  11.208  0.00  0.00     0.222 HD
ENDBRANCH   8  10
BRANCH   8  12
HETATM   12  O   UNK N   1      34.424  17.206  10.173  0.00  0.00    -0.307 OA
HETATM   13  H   UNK N   1      34.052  17.691  10.927  0.00  0.00     0.222 HD
ENDBRANCH   8  12
ENDBRANCH   7   8
ENDBRANCH   5   7
BRANCH   4  14
HETATM   14  C   UNK N   1      34.664  11.991  10.311  0.00  0.00     0.198 C 
BRANCH  14  15
HETATM   15  O   UNK N   1      33.513  12.641   9.867  0.00  0.00    -0.398 OA
HETATM   16  H   UNK N   1      32.999  12.665   9.045  0.00  0.00     0.209 HD
ENDBRANCH  14  15
ENDBRANCH   4  14
BRANCH   6  17
HETATM   17  O   UNK N   1      36.553  15.146  13.601  0.00  0.00    -0.391 OA
HETATM   18  H   UNK N   1      36.614  15.794  12.882  0.00  0.00     0.210 HD
ENDBRANCH   6  17
BRANCH   1  19
HETATM   19  N   UNK N   1      36.706  12.928  15.469  0.00  0.00    -0.420 N 
HETATM   20  H   UNK N   1      36.448  12.216  16.152  0.00  0.00     0.150 HD
HETATM   21  H   UNK N   1      37.052  13.818  15.829  0.00  0.00     0.150 HD
ENDBRANCH   1  19
BRANCH   2  22
HETATM   22  O   UNK N   1      36.508  10.389  14.227  0.00  0.00    -0.369 OA
HETATM   23  H   UNK N   1      37.434  10.340  14.511  0.00  0.00     0.212 HD
ENDBRANCH   2  22
TORSDOF 9
ENDMDL
MODEL 9
REMARK VINA RESULT:      -5.0     10.190     11.587
REMARK  9 active torsions:
REMARK  status: ('A' for Active; 'I' for Inactive)
REMARK    1  A    between atoms: C_2  and  N_1 
REMARK    2  A    between atoms: C_3  and  O_4 
REMARK    3  A    between atoms: C_6  and  C_7 
REMARK    4  A    between atoms: C_7  and  O_8 
REMARK    5  A    between atoms: C_9  and  O_10 
REMARK    6  A    between atoms: O_10  and  P_11 
REMARK    7  A    between atoms: P_11  and  O_12 
REMARK    8  A    between atoms: P_11  and  O_13 
REMARK    9  A    between atoms: C_15  and  O_16 
ROOT
HETATM    1  C   UNK N   1      22.826  12.499  11.044  0.00  0.00     0.161 C 
HETATM    2  C   UNK N   1      24.265  12.258  10.585  0.00  0.00     0.282 C 
HETATM    3  O   UNK N   1      24.619  13.266   9.676  0.00  0.00    -0.349 OA
HETATM    4  C   UNK N   1      23.949  12.981   8.470  0.00  0.00     0.180 C 
HETATM    5  C   UNK N   1      22.435  13.227   8.646  0.00  0.00     0.195 C 
HETATM    6  C   UNK N   1      21.921  12.379   9.816  0.00  0.00     0.177 C 
ENDROOT
BRANCH   5   7
HETATM    7  O   UNK N   1      21.750  12.849   7.483  0.00  0.00    -0.286 OA
BRANCH   7   8
HETATM    8  P   UNK N   1      20.802  14.224   6.990  0.00  0.00     0.391 P 
HETATM    9  O   UNK N   1      19.788  13.702   5.937  0.00  0.00    -0.632 OA
BRANCH   8  10
HETATM   10  O   UNK N   1      21.748  15.444   6.194  0.00  0.00    -0.307 OA
HETATM   11  H   UNK N   1      22.087  15.950   5.439  0.00  0.00     0.222 HD
ENDBRANCH   8  10
BRANCH   8  12
HETATM   12  O   UNK N   1      19.868  14.876   8.300  0.00  0.00    -0.307 OA
HETATM   13  H   UNK N   1      19.111  15.454   8.115  0.00  0.00     0.222 HD
ENDBRANCH   8  12
ENDBRANCH   7   8
ENDBRANCH   5   7
BRANCH   4  14
HETATM   14  C   UNK N   1      24.543  13.861   7.377  0.00  0.00     0.198 C 
BRANCH  14  15
HETATM   15  O   UNK N   1      24.183  13.394   6.113  0.00  0.00    -0.398 OA
HETATM   16  H   UNK N   1      23.658  12.656   5.766  0.00  0.00     0.209 HD
ENDBRANCH  14  15
ENDBRANCH   4  14
BRANCH   6  17
HETATM   17  O   UNK N   1      20.613  12.742  10.142  0.00  0.00    -0.391 OA
HETATM   18  H   UNK N   1      20.436  13.411  10.821  0.00  0.00     0.210 HD
ENDBRANCH   6  17
BRANCH   1  19
HETATM   19  N   UNK N   1      22.439  11.506  12.032  0.00  0.00    -0.420 N 
HETATM   20  H   UNK N   1      21.910  11.692  12.884  0.00  0.00     0.150 HD
HETATM   21  H   UNK N   1      22.720  10.541  11.858  0.00  0.00     0.150 HD
ENDBRANCH   1  19
BRANCH   2  22
HETATM   22  O   UNK N   1      25.137  12.292  11.676  0.00  0.00    -0.369 OA
HETATM   23  H   UNK N   1      25.249  13.027  12.299  0.00  0.00     0.212 HD
ENDBRANCH   2  22
TORSDOF 9
ENDMDL
