MODEL 1
REMARK VINA RESULT:      -4.6      0.000      0.000
REMARK  13 active torsions:
REMARK  status: ('A' for Active; 'I' for Inactive)
REMARK    1  A    between atoms: C_3  and  C_2 
REMARK    2  A    between atoms: C_4  and  C_3 
REMARK    3  A    between atoms: C_6  and  C_5 
REMARK    4  A    between atoms: C_8  and  C_7 
REMARK    5  A    between atoms: C_9  and  C_8 
REMARK    6  A    between atoms: C_10  and  C_9 
REMARK    7  A    between atoms: C_11  and  C_10 
REMARK    8  A    between atoms: C_12  and  C_11 
REMARK    9  A    between atoms: C_13  and  C_12 
REMARK   10  A    between atoms: C_14  and  C_13 
REMARK   11  A    between atoms: C_15  and  C_14 
REMARK   12  A    between atoms: C_16  and  C_15 
REMARK   13  A    between atoms: O_17  and  C_16 
ROOT
HETATM    1  C   UNK N   1      25.919  21.596  -7.494  0.00  0.00     0.004 C 
ENDROOT
BRANCH   1   2
HETATM    2  C   UNK N   1      26.118  23.100  -7.358  0.00  0.00     0.027 C 
BRANCH   2   3
HETATM    3  C   UNK N   1      25.857  23.561  -5.954  0.00  0.00    -0.027 C 
HETATM    4  C   UNK N   1      26.847  24.055  -5.202  0.00  0.00    -0.004 C 
BRANCH   4   5
HETATM    5  C   UNK N   1      26.620  24.536  -3.821  0.00  0.00    -0.004 C 
HETATM    6  C   UNK N   1      26.603  25.844  -3.517  0.00  0.00    -0.027 C 
BRANCH   6   7
HETATM    7  C   UNK N   1      26.830  26.900  -4.563  0.00  0.00     0.027 C 
BRANCH   7   8
HETATM    8  C   UNK N   1      25.614  27.781  -4.754  0.00  0.00    -0.001 C 
HETATM    9  C   UNK N   1      24.660  27.099  -5.714  0.00  0.00     0.005 C 
ENDBRANCH   7   8
ENDBRANCH   6   7
ENDBRANCH   4   5
ENDBRANCH   2   3
ENDBRANCH   1   2
BRANCH   1  10
HETATM   10  C   UNK N   1      27.023  20.986  -8.346  0.00  0.00     0.000 C 
BRANCH  10  11
HETATM   11  C   UNK N   1      28.322  21.766  -8.195  0.00  0.00     0.000 C 
BRANCH  11  12
HETATM   12  C   UNK N   1      29.193  21.157  -7.116  0.00  0.00     0.000 C 
BRANCH  12  13
HETATM   13  C   UNK N   1      29.689  22.249  -6.189  0.00  0.00     0.000 C 
BRANCH  13  14
HETATM   14  C   UNK N   1      30.110  21.633  -4.875  0.00  0.00     0.002 C 
BRANCH  14  15
HETATM   15  C   UNK N   1      29.907  22.628  -3.756  0.00  0.00     0.026 C 
BRANCH  15  16
HETATM   16  C   UNK N   1      30.949  22.382  -2.686  0.00  0.00     0.164 C 
BRANCH  16  17
HETATM   17  O   UNK N   1      30.546  22.988  -1.498  0.00  0.00    -0.401 OA
HETATM   18  H   UNK N   1      30.709  22.554  -0.646  0.00  0.00     0.209 HD
ENDBRANCH  16  17
ENDBRANCH  15  16
ENDBRANCH  14  15
ENDBRANCH  13  14
ENDBRANCH  12  13
ENDBRANCH  11  12
ENDBRANCH  10  11
ENDBRANCH   1  10
TORSDOF 13
ENDMDL
MODEL 2
REMARK VINA RESULT:      -4.5      2.595      6.127
REMARK  13 active torsions:
REMARK  status: ('A' for Active; 'I' for Inactive)
REMARK    1  A    between atoms: C_3  and  C_2 
REMARK    2  A    between atoms: C_4  and  C_3 
REMARK    3  A    between atoms: C_6  and  C_5 
REMARK    4  A    between atoms: C_8  and  C_7 
REMARK    5  A    between atoms: C_9  and  C_8 
REMARK    6  A    between atoms: C_10  and  C_9 
REMARK    7  A    between atoms: C_11  and  C_10 
REMARK    8  A    between atoms: C_12  and  C_11 
REMARK    9  A    between atoms: C_13  and  C_12 
REMARK   10  A    between atoms: C_14  and  C_13 
REMARK   11  A    between atoms: C_15  and  C_14 
REMARK   12  A    between atoms: C_16  and  C_15 
REMARK   13  A    between atoms: O_17  and  C_16 
ROOT
HETATM    1  C   UNK N   1      27.013  24.369  -3.920  0.00  0.00     0.004 C 
ENDROOT
BRANCH   1   2
HETATM    2  C   UNK N   1      28.152  25.354  -4.153  0.00  0.00     0.027 C 
BRANCH   2   3
HETATM    3  C   UNK N   1      29.479  24.746  -3.806  0.00  0.00    -0.027 C 
HETATM    4  C   UNK N   1      29.559  23.726  -2.943  0.00  0.00    -0.004 C 
BRANCH   4   5
HETATM    5  C   UNK N   1      30.849  23.091  -2.595  0.00  0.00    -0.004 C 
HETATM    6  C   UNK N   1      31.179  21.864  -3.029  0.00  0.00    -0.027 C 
BRANCH   6   7
HETATM    7  C   UNK N   1      30.246  21.054  -3.887  0.00  0.00     0.027 C 
BRANCH   7   8
HETATM    8  C   UNK N   1      30.645  21.086  -5.347  0.00  0.00    -0.001 C 
HETATM    9  C   UNK N   1      29.531  21.733  -6.145  0.00  0.00     0.005 C 
ENDBRANCH   7   8
ENDBRANCH   6   7
ENDBRANCH   4   5
ENDBRANCH   2   3
ENDBRANCH   1   2
BRANCH   1  10
HETATM   10  C   UNK N   1      26.562  23.752  -5.237  0.00  0.00     0.000 C 
BRANCH  10  11
HETATM   11  C   UNK N   1      26.961  24.631  -6.415  0.00  0.00     0.000 C 
BRANCH  11  12
HETATM   12  C   UNK N   1      25.745  25.291  -7.030  0.00  0.00     0.000 C 
BRANCH  12  13
HETATM   13  C   UNK N   1      25.769  26.776  -6.728  0.00  0.00     0.000 C 
BRANCH  13  14
HETATM   14  C   UNK N   1      24.803  27.070  -5.603  0.00  0.00     0.002 C 
BRANCH  14  15
HETATM   15  C   UNK N   1      25.458  27.984  -4.593  0.00  0.00     0.026 C 
BRANCH  15  16
HETATM   16  C   UNK N   1      26.699  28.590  -5.213  0.00  0.00     0.164 C 
BRANCH  16  17
HETATM   17  O   UNK N   1      26.895  29.871  -4.702  0.00  0.00    -0.401 OA
HETATM   18  H   UNK N   1      26.488  30.638  -5.133  0.00  0.00     0.209 HD
ENDBRANCH  16  17
ENDBRANCH  15  16
ENDBRANCH  14  15
ENDBRANCH  13  14
ENDBRANCH  12  13
ENDBRANCH  11  12
ENDBRANCH  10  11
ENDBRANCH   1  10
TORSDOF 13
ENDMDL
MODEL 3
REMARK VINA RESULT:      -4.3      2.488      4.379
REMARK  13 active torsions:
REMARK  status: ('A' for Active; 'I' for Inactive)
REMARK    1  A    between atoms: C_3  and  C_2 
REMARK    2  A    between atoms: C_4  and  C_3 
REMARK    3  A    between atoms: C_6  and  C_5 
REMARK    4  A    between atoms: C_8  and  C_7 
REMARK    5  A    between atoms: C_9  and  C_8 
REMARK    6  A    between atoms: C_10  and  C_9 
REMARK    7  A    between atoms: C_11  and  C_10 
REMARK    8  A    between atoms: C_12  and  C_11 
REMARK    9  A    between atoms: C_13  and  C_12 
REMARK   10  A    between atoms: C_14  and  C_13 
REMARK   11  A    between atoms: C_15  and  C_14 
REMARK   12  A    between atoms: C_16  and  C_15 
REMARK   13  A    between atoms: O_17  and  C_16 
ROOT
HETATM    1  C   UNK N   1      25.529  26.555  -6.582  0.00  0.00     0.004 C 
ENDROOT
BRANCH   1   2
HETATM    2  C   UNK N   1      24.883  27.390  -5.483  0.00  0.00     0.027 C 
BRANCH   2   3
HETATM    3  C   UNK N   1      25.909  27.918  -4.525  0.00  0.00    -0.027 C 
HETATM    4  C   UNK N   1      26.765  28.877  -4.899  0.00  0.00    -0.004 C 
BRANCH   4   5
HETATM    5  C   UNK N   1      27.776  29.433  -3.973  0.00  0.00    -0.004 C 
HETATM    6  C   UNK N   1      29.037  28.972  -3.936  0.00  0.00    -0.027 C 
BRANCH   6   7
HETATM    7  C   UNK N   1      29.493  27.849  -4.826  0.00  0.00     0.027 C 
BRANCH   7   8
HETATM    8  C   UNK N   1      30.891  27.381  -4.480  0.00  0.00    -0.001 C 
HETATM    9  C   UNK N   1      31.097  27.517  -2.985  0.00  0.00     0.005 C 
ENDBRANCH   7   8
ENDBRANCH   6   7
ENDBRANCH   4   5
ENDBRANCH   2   3
ENDBRANCH   1   2
BRANCH   1  10
HETATM   10  C   UNK N   1      26.515  25.559  -5.987  0.00  0.00     0.000 C 
BRANCH  10  11
HETATM   11  C   UNK N   1      25.783  24.426  -5.278  0.00  0.00     0.000 C 
BRANCH  11  12
HETATM   12  C   UNK N   1      26.268  24.283  -3.851  0.00  0.00     0.000 C 
BRANCH  12  13
HETATM   13  C   UNK N   1      27.688  24.803  -3.744  0.00  0.00     0.000 C 
BRANCH  13  14
HETATM   14  C   UNK N   1      28.557  23.746  -3.101  0.00  0.00     0.002 C 
BRANCH  14  15
HETATM   15  C   UNK N   1      29.915  23.730  -3.763  0.00  0.00     0.026 C 
BRANCH  15  16
HETATM   16  C   UNK N   1      30.927  23.158  -2.793  0.00  0.00     0.164 C 
BRANCH  16  17
HETATM   17  O   UNK N   1      30.344  23.034  -1.534  0.00  0.00    -0.401 OA
HETATM   18  H   UNK N   1      29.534  22.514  -1.417  0.00  0.00     0.209 HD
ENDBRANCH  16  17
ENDBRANCH  15  16
ENDBRANCH  14  15
ENDBRANCH  13  14
ENDBRANCH  12  13
ENDBRANCH  11  12
ENDBRANCH  10  11
ENDBRANCH   1  10
TORSDOF 13
ENDMDL
MODEL 4
REMARK VINA RESULT:      -4.3      1.750      2.617
REMARK  13 active torsions:
REMARK  status: ('A' for Active; 'I' for Inactive)
REMARK    1  A    between atoms: C_3  and  C_2 
REMARK    2  A    between atoms: C_4  and  C_3 
REMARK    3  A    between atoms: C_6  and  C_5 
REMARK    4  A    between atoms: C_8  and  C_7 
REMARK    5  A    between atoms: C_9  and  C_8 
REMARK    6  A    between atoms: C_10  and  C_9 
REMARK    7  A    between atoms: C_11  and  C_10 
REMARK    8  A    between atoms: C_12  and  C_11 
REMARK    9  A    between atoms: C_13  and  C_12 
REMARK   10  A    between atoms: C_14  and  C_13 
REMARK   11  A    between atoms: C_15  and  C_14 
REMARK   12  A    between atoms: C_16  and  C_15 
REMARK   13  A    between atoms: O_17  and  C_16 
ROOT
HETATM    1  C   UNK N   1      26.460  23.489  -7.305  0.00  0.00     0.004 C 
ENDROOT
BRANCH   1   2
HETATM    2  C   UNK N   1      25.852  23.299  -5.920  0.00  0.00     0.027 C 
BRANCH   2   3
HETATM    3  C   UNK N   1      25.399  24.606  -5.338  0.00  0.00    -0.027 C 
HETATM    4  C   UNK N   1      25.449  25.730  -6.063  0.00  0.00    -0.004 C 
BRANCH   4   5
HETATM    5  C   UNK N   1      24.992  27.031  -5.526  0.00  0.00    -0.004 C 
HETATM    6  C   UNK N   1      25.855  28.005  -5.193  0.00  0.00    -0.027 C 
BRANCH   6   7
HETATM    7  C   UNK N   1      27.341  27.825  -5.332  0.00  0.00     0.027 C 
BRANCH   7   8
HETATM    8  C   UNK N   1      27.882  28.502  -6.574  0.00  0.00    -0.001 C 
HETATM    9  C   UNK N   1      28.411  29.870  -6.195  0.00  0.00     0.005 C 
ENDBRANCH   7   8
ENDBRANCH   6   7
ENDBRANCH   4   5
ENDBRANCH   2   3
ENDBRANCH   1   2
BRANCH   1  10
HETATM   10  C   UNK N   1      27.917  23.051  -7.313  0.00  0.00     0.000 C 
BRANCH  10  11
HETATM   11  C   UNK N   1      28.524  23.149  -5.920  0.00  0.00     0.000 C 
BRANCH  11  12
HETATM   12  C   UNK N   1      29.173  24.501  -5.710  0.00  0.00     0.000 C 
BRANCH  12  13
HETATM   13  C   UNK N   1      29.521  24.675  -4.245  0.00  0.00     0.000 C 
BRANCH  13  14
HETATM   14  C   UNK N   1      28.613  23.798  -3.412  0.00  0.00     0.002 C 
BRANCH  14  15
HETATM   15  C   UNK N   1      29.415  23.118  -2.327  0.00  0.00     0.026 C 
BRANCH  15  16
HETATM   16  C   UNK N   1      30.880  23.157  -2.702  0.00  0.00     0.164 C 
BRANCH  16  17
HETATM   17  O   UNK N   1      31.524  22.039  -2.177  0.00  0.00    -0.401 OA
HETATM   18  H   UNK N   1      31.056  21.193  -2.105  0.00  0.00     0.209 HD
ENDBRANCH  16  17
ENDBRANCH  15  16
ENDBRANCH  14  15
ENDBRANCH  13  14
ENDBRANCH  12  13
ENDBRANCH  11  12
ENDBRANCH  10  11
ENDBRANCH   1  10
TORSDOF 13
ENDMDL
MODEL 5
REMARK VINA RESULT:      -4.3     11.162     13.753
REMARK  13 active torsions:
REMARK  status: ('A' for Active; 'I' for Inactive)
REMARK    1  A    between atoms: C_3  and  C_2 
REMARK    2  A    between atoms: C_4  and  C_3 
REMARK    3  A    between atoms: C_6  and  C_5 
REMARK    4  A    between atoms: C_8  and  C_7 
REMARK    5  A    between atoms: C_9  and  C_8 
REMARK    6  A    between atoms: C_10  and  C_9 
REMARK    7  A    between atoms: C_11  and  C_10 
REMARK    8  A    between atoms: C_12  and  C_11 
REMARK    9  A    between atoms: C_13  and  C_12 
REMARK   10  A    between atoms: C_14  and  C_13 
REMARK   11  A    between atoms: C_15  and  C_14 
REMARK   12  A    between atoms: C_16  and  C_15 
REMARK   13  A    between atoms: O_17  and  C_16 
ROOT
HETATM    1  C   UNK N   1      30.798  16.683   3.717  0.00  0.00     0.004 C 
ENDROOT
BRANCH   1   2
HETATM    2  C   UNK N   1      32.247  17.097   3.492  0.00  0.00     0.027 C 
BRANCH   2   3
HETATM    3  C   UNK N   1      32.813  17.782   4.701  0.00  0.00    -0.027 C 
HETATM    4  C   UNK N   1      33.309  17.071   5.720  0.00  0.00    -0.004 C 
BRANCH   4   5
HETATM    5  C   UNK N   1      33.892  17.715   6.918  0.00  0.00    -0.004 C 
HETATM    6  C   UNK N   1      33.225  17.790   8.082  0.00  0.00    -0.027 C 
BRANCH   6   7
HETATM    7  C   UNK N   1      31.836  17.233   8.232  0.00  0.00     0.027 C 
BRANCH   7   8
HETATM    8  C   UNK N   1      30.855  18.278   8.721  0.00  0.00    -0.001 C 
HETATM    9  C   UNK N   1      29.453  17.853   8.334  0.00  0.00     0.005 C 
ENDBRANCH   7   8
ENDBRANCH   6   7
ENDBRANCH   4   5
ENDBRANCH   2   3
ENDBRANCH   1   2
BRANCH   1  10
HETATM   10  C   UNK N   1      30.126  17.613   4.718  0.00  0.00     0.000 C 
BRANCH  10  11
HETATM   11  C   UNK N   1      28.625  17.360   4.775  0.00  0.00     0.000 C 
BRANCH  11  12
HETATM   12  C   UNK N   1      27.870  18.429   4.014  0.00  0.00     0.000 C 
BRANCH  12  13
HETATM   13  C   UNK N   1      26.607  18.791   4.768  0.00  0.00     0.000 C 
BRANCH  13  14
HETATM   14  C   UNK N   1      26.500  20.296   4.865  0.00  0.00     0.002 C 
BRANCH  14  15
HETATM   15  C   UNK N   1      27.317  20.791   6.036  0.00  0.00     0.026 C 
BRANCH  15  16
HETATM   16  C   UNK N   1      26.416  21.576   6.966  0.00  0.00     0.164 C 
BRANCH  16  17
HETATM   17  O   UNK N   1      26.050  20.773   8.044  0.00  0.00    -0.401 OA
HETATM   18  H   UNK N   1      26.491  20.872   8.902  0.00  0.00     0.209 HD
ENDBRANCH  16  17
ENDBRANCH  15  16
ENDBRANCH  14  15
ENDBRANCH  13  14
ENDBRANCH  12  13
ENDBRANCH  11  12
ENDBRANCH  10  11
ENDBRANCH   1  10
TORSDOF 13
ENDMDL
MODEL 6
REMARK VINA RESULT:      -4.3     11.287     14.159
REMARK  13 active torsions:
REMARK  status: ('A' for Active; 'I' for Inactive)
REMARK    1  A    between atoms: C_3  and  C_2 
REMARK    2  A    between atoms: C_4  and  C_3 
REMARK    3  A    between atoms: C_6  and  C_5 
REMARK    4  A    between atoms: C_8  and  C_7 
REMARK    5  A    between atoms: C_9  and  C_8 
REMARK    6  A    between atoms: C_10  and  C_9 
REMARK    7  A    between atoms: C_11  and  C_10 
REMARK    8  A    between atoms: C_12  and  C_11 
REMARK    9  A    between atoms: C_13  and  C_12 
REMARK   10  A    between atoms: C_14  and  C_13 
REMARK   11  A    between atoms: C_15  and  C_14 
REMARK   12  A    between atoms: C_16  and  C_15 
REMARK   13  A    between atoms: O_17  and  C_16 
ROOT
HETATM    1  C   UNK N   1      31.618  15.929   5.562  0.00  0.00     0.004 C 
ENDROOT
BRANCH   1   2
HETATM    2  C   UNK N   1      30.129  16.111   5.293  0.00  0.00     0.027 C 
BRANCH   2   3
HETATM    3  C   UNK N   1      29.470  16.900   6.386  0.00  0.00    -0.027 C 
HETATM    4  C   UNK N   1      28.847  18.053   6.116  0.00  0.00    -0.004 C 
BRANCH   4   5
HETATM    5  C   UNK N   1      28.171  18.846   7.167  0.00  0.00    -0.004 C 
HETATM    6  C   UNK N   1      27.606  20.037   6.907  0.00  0.00    -0.027 C 
BRANCH   6   7
HETATM    7  C   UNK N   1      27.642  20.644   5.532  0.00  0.00     0.027 C 
BRANCH   7   8
HETATM    8  C   UNK N   1      26.284  20.618   4.864  0.00  0.00    -0.001 C 
HETATM    9  C   UNK N   1      26.468  20.324   3.389  0.00  0.00     0.005 C 
ENDBRANCH   7   8
ENDBRANCH   6   7
ENDBRANCH   4   5
ENDBRANCH   2   3
ENDBRANCH   1   2
BRANCH   1  10
HETATM   10  C   UNK N   1      32.422  17.030   4.884  0.00  0.00     0.000 C 
BRANCH  10  11
HETATM   11  C   UNK N   1      33.520  17.549   5.803  0.00  0.00     0.000 C 
BRANCH  11  12
HETATM   12  C   UNK N   1      33.022  17.654   7.229  0.00  0.00     0.000 C 
BRANCH  12  13
HETATM   13  C   UNK N   1      34.090  18.297   8.092  0.00  0.00     0.000 C 
BRANCH  13  14
HETATM   14  C   UNK N   1      34.732  17.239   8.959  0.00  0.00     0.002 C 
BRANCH  14  15
HETATM   15  C   UNK N   1      33.754  16.110   9.196  0.00  0.00     0.026 C 
BRANCH  15  16
HETATM   16  C   UNK N   1      34.249  15.266  10.350  0.00  0.00     0.164 C 
BRANCH  16  17
HETATM   17  O   UNK N   1      33.176  14.923  11.169  0.00  0.00    -0.401 OA
HETATM   18  H   UNK N   1      33.222  14.138  11.736  0.00  0.00     0.209 HD
ENDBRANCH  16  17
ENDBRANCH  15  16
ENDBRANCH  14  15
ENDBRANCH  13  14
ENDBRANCH  12  13
ENDBRANCH  11  12
ENDBRANCH  10  11
ENDBRANCH   1  10
TORSDOF 13
ENDMDL
MODEL 7
REMARK VINA RESULT:      -4.3     11.338     14.683
REMARK  13 active torsions:
REMARK  status: ('A' for Active; 'I' for Inactive)
REMARK    1  A    between atoms: C_3  and  C_2 
REMARK    2  A    between atoms: C_4  and  C_3 
REMARK    3  A    between atoms: C_6  and  C_5 
REMARK    4  A    between atoms: C_8  and  C_7 
REMARK    5  A    between atoms: C_9  and  C_8 
REMARK    6  A    between atoms: C_10  and  C_9 
REMARK    7  A    between atoms: C_11  and  C_10 
REMARK    8  A    between atoms: C_12  and  C_11 
REMARK    9  A    between atoms: C_13  and  C_12 
REMARK   10  A    between atoms: C_14  and  C_13 
REMARK   11  A    between atoms: C_15  and  C_14 
REMARK   12  A    between atoms: C_16  and  C_15 
REMARK   13  A    between atoms: O_17  and  C_16 
ROOT
HETATM    1  C   UNK N   1      28.278  17.971   8.391  0.00  0.00     0.004 C 
ENDROOT
BRANCH   1   2
HETATM    2  C   UNK N   1      29.392  18.042   9.427  0.00  0.00     0.027 C 
BRANCH   2   3
HETATM    3  C   UNK N   1      30.696  18.443   8.800  0.00  0.00    -0.027 C 
HETATM    4  C   UNK N   1      31.718  17.581   8.740  0.00  0.00    -0.004 C 
BRANCH   4   5
HETATM    5  C   UNK N   1      33.010  17.937   8.112  0.00  0.00    -0.004 C 
HETATM    6  C   UNK N   1      33.260  17.698   6.814  0.00  0.00    -0.027 C 
BRANCH   6   7
HETATM    7  C   UNK N   1      32.244  17.037   5.924  0.00  0.00     0.027 C 
BRANCH   7   8
HETATM    8  C   UNK N   1      32.556  15.574   5.694  0.00  0.00    -0.001 C 
HETATM    9  C   UNK N   1      31.469  14.734   6.334  0.00  0.00     0.005 C 
ENDBRANCH   7   8
ENDBRANCH   6   7
ENDBRANCH   4   5
ENDBRANCH   2   3
ENDBRANCH   1   2
BRANCH   1  10
HETATM   10  C   UNK N   1      28.677  17.060   7.238  0.00  0.00     0.000 C 
BRANCH  10  11
HETATM   11  C   UNK N   1      27.913  17.418   5.970  0.00  0.00     0.000 C 
BRANCH  11  12
HETATM   12  C   UNK N   1      28.720  18.360   5.103  0.00  0.00     0.000 C 
BRANCH  12  13
HETATM   13  C   UNK N   1      27.795  19.371   4.455  0.00  0.00     0.000 C 
BRANCH  13  14
HETATM   14  C   UNK N   1      26.524  19.472   5.267  0.00  0.00     0.002 C 
BRANCH  14  15
HETATM   15  C   UNK N   1      26.278  20.912   5.653  0.00  0.00     0.026 C 
BRANCH  15  16
HETATM   16  C   UNK N   1      26.861  21.158   7.028  0.00  0.00     0.164 C 
BRANCH  16  17
HETATM   17  O   UNK N   1      25.901  20.876   7.997  0.00  0.00    -0.401 OA
HETATM   18  H   UNK N   1      24.958  20.888   7.771  0.00  0.00     0.209 HD
ENDBRANCH  16  17
ENDBRANCH  15  16
ENDBRANCH  14  15
ENDBRANCH  13  14
ENDBRANCH  12  13
ENDBRANCH  11  12
ENDBRANCH  10  11
ENDBRANCH   1  10
TORSDOF 13
ENDMDL
MODEL 8
REMARK VINA RESULT:      -4.3      9.896     13.375
REMARK  13 active torsions:
REMARK  status: ('A' for Active; 'I' for Inactive)
REMARK    1  A    between atoms: C_3  and  C_2 
REMARK    2  A    between atoms: C_4  and  C_3 
REMARK    3  A    between atoms: C_6  and  C_5 
REMARK    4  A    between atoms: C_8  and  C_7 
REMARK    5  A    between atoms: C_9  and  C_8 
REMARK    6  A    between atoms: C_10  and  C_9 
REMARK    7  A    between atoms: C_11  and  C_10 
REMARK    8  A    between atoms: C_12  and  C_11 
REMARK    9  A    between atoms: C_13  and  C_12 
REMARK   10  A    between atoms: C_14  and  C_13 
REMARK   11  A    between atoms: C_15  and  C_14 
REMARK   12  A    between atoms: C_16  and  C_15 
REMARK   13  A    between atoms: O_17  and  C_16 
ROOT
HETATM    1  C   UNK N   1      28.548  18.177   6.493  0.00  0.00     0.004 C 
ENDROOT
BRANCH   1   2
HETATM    2  C   UNK N   1      29.337  17.339   7.491  0.00  0.00     0.027 C 
BRANCH   2   3
HETATM    3  C   UNK N   1      30.591  16.792   6.873  0.00  0.00    -0.027 C 
HETATM    4  C   UNK N   1      31.762  17.420   7.032  0.00  0.00    -0.004 C 
BRANCH   4   5
HETATM    5  C   UNK N   1      33.019  16.898   6.453  0.00  0.00    -0.004 C 
HETATM    6  C   UNK N   1      33.317  17.042   5.151  0.00  0.00    -0.027 C 
BRANCH   6   7
HETATM    7  C   UNK N   1      32.379  17.733   4.199  0.00  0.00     0.027 C 
BRANCH   7   8
HETATM    8  C   UNK N   1      32.031  16.861   3.011  0.00  0.00    -0.001 C 
HETATM    9  C   UNK N   1      30.542  16.581   3.028  0.00  0.00     0.005 C 
ENDBRANCH   7   8
ENDBRANCH   6   7
ENDBRANCH   4   5
ENDBRANCH   2   3
ENDBRANCH   1   2
BRANCH   1  10
HETATM   10  C   UNK N   1      28.003  19.431   7.162  0.00  0.00     0.000 C 
BRANCH  10  11
HETATM   11  C   UNK N   1      27.326  20.341   6.145  0.00  0.00     0.000 C 
BRANCH  11  12
HETATM   12  C   UNK N   1      27.831  20.054   4.747  0.00  0.00     0.000 C 
BRANCH  12  13
HETATM   13  C   UNK N   1      26.655  19.935   3.798  0.00  0.00     0.000 C 
BRANCH  13  14
HETATM   14  C   UNK N   1      25.548  19.158   4.475  0.00  0.00     0.002 C 
BRANCH  14  15
HETATM   15  C   UNK N   1      24.248  19.372   3.735  0.00  0.00     0.026 C 
BRANCH  15  16
HETATM   16  C   UNK N   1      24.394  20.571   2.823  0.00  0.00     0.164 C 
BRANCH  16  17
HETATM   17  O   UNK N   1      23.229  21.332   2.868  0.00  0.00    -0.401 OA
HETATM   18  H   UNK N   1      22.942  21.743   3.698  0.00  0.00     0.209 HD
ENDBRANCH  16  17
ENDBRANCH  15  16
ENDBRANCH  14  15
ENDBRANCH  13  14
ENDBRANCH  12  13
ENDBRANCH  11  12
ENDBRANCH  10  11
ENDBRANCH   1  10
TORSDOF 13
ENDMDL
MODEL 9
REMARK VINA RESULT:      -4.2      2.463      6.815
REMARK  13 active torsions:
REMARK  status: ('A' for Active; 'I' for Inactive)
REMARK    1  A    between atoms: C_3  and  C_2 
REMARK    2  A    between atoms: C_4  and  C_3 
REMARK    3  A    between atoms: C_6  and  C_5 
REMARK    4  A    between atoms: C_8  and  C_7 
REMARK    5  A    between atoms: C_9  and  C_8 
REMARK    6  A    between atoms: C_10  and  C_9 
REMARK    7  A    between atoms: C_11  and  C_10 
REMARK    8  A    between atoms: C_12  and  C_11 
REMARK    9  A    between atoms: C_13  and  C_12 
REMARK   10  A    between atoms: C_14  and  C_13 
REMARK   11  A    between atoms: C_15  and  C_14 
REMARK   12  A    between atoms: C_16  and  C_15 
REMARK   13  A    between atoms: O_17  and  C_16 
ROOT
HETATM    1  C   UNK N   1      28.791  23.928  -3.338  0.00  0.00     0.004 C 
ENDROOT
BRANCH   1   2
HETATM    2  C   UNK N   1      29.580  23.080  -2.348  0.00  0.00     0.027 C 
BRANCH   2   3
HETATM    3  C   UNK N   1      30.365  22.010  -3.050  0.00  0.00    -0.027 C 
HETATM    4  C   UNK N   1      30.138  21.732  -4.340  0.00  0.00    -0.004 C 
BRANCH   4   5
HETATM    5  C   UNK N   1      30.907  20.697  -5.066  0.00  0.00    -0.004 C 
HETATM    6  C   UNK N   1      30.596  20.328  -6.320  0.00  0.00    -0.027 C 
BRANCH   6   7
HETATM    7  C   UNK N   1      29.434  20.937  -7.056  0.00  0.00     0.027 C 
BRANCH   7   8
HETATM    8  C   UNK N   1      28.708  19.921  -7.911  0.00  0.00    -0.001 C 
HETATM    9  C   UNK N   1      29.463  18.609  -7.862  0.00  0.00     0.005 C 
ENDBRANCH   7   8
ENDBRANCH   6   7
ENDBRANCH   4   5
ENDBRANCH   2   3
ENDBRANCH   1   2
BRANCH   1  10
HETATM   10  C   UNK N   1      27.305  23.886  -3.011  0.00  0.00     0.000 C 
BRANCH  10  11
HETATM   11  C   UNK N   1      26.562  25.022  -3.702  0.00  0.00     0.000 C 
BRANCH  11  12
HETATM   12  C   UNK N   1      26.048  24.583  -5.057  0.00  0.00     0.000 C 
BRANCH  12  13
HETATM   13  C   UNK N   1      25.391  25.757  -5.754  0.00  0.00     0.000 C 
BRANCH  13  14
HETATM   14  C   UNK N   1      25.568  26.999  -4.910  0.00  0.00     0.002 C 
BRANCH  14  15
HETATM   15  C   UNK N   1      26.452  27.987  -5.635  0.00  0.00     0.026 C 
BRANCH  15  16
HETATM   16  C   UNK N   1      26.712  29.170  -4.727  0.00  0.00     0.164 C 
BRANCH  16  17
HETATM   17  O   UNK N   1      25.803  29.155  -3.672  0.00  0.00    -0.401 OA
HETATM   18  H   UNK N   1      25.373  28.327  -3.407  0.00  0.00     0.209 HD
ENDBRANCH  16  17
ENDBRANCH  15  16
ENDBRANCH  14  15
ENDBRANCH  13  14
ENDBRANCH  12  13
ENDBRANCH  11  12
ENDBRANCH  10  11
ENDBRANCH   1  10
TORSDOF 13
ENDMDL
