MODEL 1
REMARK VINA RESULT:      -7.4      0.000      0.000
REMARK  8 active torsions:
REMARK  status: ('A' for Active; 'I' for Inactive)
REMARK    1  A    between atoms: C_18  and  C_17 
REMARK    2  A    between atoms: O_31  and  C_17 
REMARK    3  A    between atoms: N_28  and  C_18 
REMARK    4  A    between atoms: C_26  and  C_19 
REMARK    5  A    between atoms: C_27  and  C_20 
REMARK    6  A    between atoms: O_29  and  C_21 
REMARK    7  A    between atoms: O_30  and  C_22 
REMARK    8  A    between atoms: O_31  and  C_23 
ROOT
HETATM    1  C   UNK N   1      27.382  22.026  -9.123  0.00  0.00     0.039 A 
HETATM    2  C   UNK N   1      28.259  22.935  -8.538  0.00  0.00     0.041 A 
HETATM    3  C   UNK N   1      25.515  23.179  -8.103  0.00  0.00     0.057 A 
HETATM    4  C   UNK N   1      26.010  22.148  -8.910  0.00  0.00     0.067 A 
HETATM    5  C   UNK N   1      27.777  23.972  -7.732  0.00  0.00     0.086 A 
HETATM    6  C   UNK N   1      26.390  24.094  -7.508  0.00  0.00     0.037 A 
HETATM    7  C   UNK N   1      28.426  25.899  -6.372  0.00  0.00     0.180 C 
HETATM    8  C   UNK N   1      27.049  26.577  -6.626  0.00  0.00     0.119 C 
HETATM    9  O   UNK N   1      28.677  24.812  -7.187  0.00  0.00    -0.338 OA
HETATM   10  S   UNK N   1      25.703  25.356  -6.422  0.00  0.00    -0.114 SA
ENDROOT
BRANCH   7  11
HETATM   11  C   UNK N   1      28.897  25.608  -4.963  0.00  0.00    -0.027 C 
HETATM   12  C   UNK N   1      30.239  25.845  -4.655  0.00  0.00     0.012 C 
HETATM   13  C   UNK N   1      30.906  25.069  -3.728  0.00  0.00     0.037 C 
HETATM   14  C   UNK N   1      30.240  24.019  -3.093  0.00  0.00     0.068 C 
HETATM   15  C   UNK N   1      28.869  23.847  -3.286  0.00  0.00     0.037 C 
HETATM   16  C   UNK N   1      28.208  24.618  -4.241  0.00  0.00     0.012 C 
BRANCH  14  17
HETATM   17  O   UNK N   1      30.931  23.087  -2.415  0.00  0.00    -0.349 OA
BRANCH  17  18
HETATM   18  C   UNK N   1      30.680  21.744  -2.626  0.00  0.00     0.211 C 
BRANCH  18  19
HETATM   19  C   UNK N   1      31.677  21.155  -3.612  0.00  0.00     0.243 C 
HETATM   20  C   UNK N   1      33.059  21.369  -3.020  0.00  0.00     0.045 C 
BRANCH  19  21
HETATM   21  N   UNK N   1      31.644  21.778  -4.959  0.00  0.00     0.094 N 
HETATM   22  C   UNK N   1      32.680  21.171  -5.792  0.00  0.00     0.273 C 
HETATM   23  C   UNK N   1      32.042  20.023  -6.557  0.00  0.00     0.032 C 
HETATM   24  C   UNK N   1      30.554  20.262  -6.477  0.00  0.00     0.032 C 
HETATM   25  C   UNK N   1      30.405  21.551  -5.702  0.00  0.00     0.273 C 
ENDBRANCH  19  21
ENDBRANCH  18  19
ENDBRANCH  17  18
ENDBRANCH  14  17
ENDBRANCH   7  11
BRANCH   8  26
HETATM   26  C   UNK N   1      26.849  27.815  -5.747  0.00  0.00    -0.041 A 
HETATM   27  C   UNK N   1      25.967  27.799  -4.652  0.00  0.00     0.011 A 
HETATM   28  C   UNK N   1      25.874  28.897  -3.792  0.00  0.00     0.037 A 
HETATM   29  C   UNK N   1      26.671  30.022  -4.006  0.00  0.00     0.065 A 
HETATM   30  C   UNK N   1      27.539  30.064  -5.101  0.00  0.00     0.037 A 
HETATM   31  C   UNK N   1      27.622  28.972  -5.974  0.00  0.00     0.011 A 
BRANCH  29  32
HETATM   32  O   UNK N   1      26.604  31.062  -3.160  0.00  0.00    -0.361 OA
HETATM   33  H   UNK N   1      25.982  31.064  -2.458  0.00  0.00     0.217 HD
ENDBRANCH  29  32
ENDBRANCH   8  26
BRANCH   4  34
HETATM   34  O   UNK N   1      25.165  21.271  -9.474  0.00  0.00    -0.361 OA
HETATM   35  H   UNK N   1      24.310  21.509  -9.775  0.00  0.00     0.217 HD
ENDBRANCH   4  34
TORSDOF 8
ENDMDL
MODEL 2
REMARK VINA RESULT:      -7.2      2.437      6.824
REMARK  8 active torsions:
REMARK  status: ('A' for Active; 'I' for Inactive)
REMARK    1  A    between atoms: C_18  and  C_17 
REMARK    2  A    between atoms: O_31  and  C_17 
REMARK    3  A    between atoms: N_28  and  C_18 
REMARK    4  A    between atoms: C_26  and  C_19 
REMARK    5  A    between atoms: C_27  and  C_20 
REMARK    6  A    between atoms: O_29  and  C_21 
REMARK    7  A    between atoms: O_30  and  C_22 
REMARK    8  A    between atoms: O_31  and  C_23 
ROOT
HETATM    1  C   UNK N   1      25.166  22.462  -7.960  0.00  0.00     0.039 A 
HETATM    2  C   UNK N   1      25.794  22.932  -6.810  0.00  0.00     0.041 A 
HETATM    3  C   UNK N   1      27.266  21.525  -8.716  0.00  0.00     0.057 A 
HETATM    4  C   UNK N   1      25.899  21.755  -8.913  0.00  0.00     0.067 A 
HETATM    5  C   UNK N   1      27.159  22.705  -6.600  0.00  0.00     0.086 A 
HETATM    6  C   UNK N   1      27.905  21.997  -7.566  0.00  0.00     0.037 A 
HETATM    7  C   UNK N   1      29.024  23.084  -5.063  0.00  0.00     0.180 C 
HETATM    8  C   UNK N   1      29.741  21.801  -5.573  0.00  0.00     0.119 C 
HETATM    9  O   UNK N   1      27.709  23.194  -5.474  0.00  0.00    -0.338 OA
HETATM   10  S   UNK N   1      29.678  21.734  -7.400  0.00  0.00    -0.114 SA
ENDROOT
BRANCH   7  11
HETATM   11  C   UNK N   1      29.705  24.433  -5.140  0.00  0.00    -0.027 C 
HETATM   12  C   UNK N   1      30.215  24.982  -3.961  0.00  0.00     0.012 C 
HETATM   13  C   UNK N   1      30.241  26.348  -3.762  0.00  0.00     0.037 C 
HETATM   14  C   UNK N   1      29.737  27.202  -4.745  0.00  0.00     0.068 C 
HETATM   15  C   UNK N   1      29.345  26.687  -5.981  0.00  0.00     0.037 C 
HETATM   16  C   UNK N   1      29.299  25.306  -6.166  0.00  0.00     0.012 C 
BRANCH  14  17
HETATM   17  O   UNK N   1      29.491  28.493  -4.463  0.00  0.00    -0.349 OA
BRANCH  17  18
HETATM   18  C   UNK N   1      28.446  28.834  -3.624  0.00  0.00     0.211 C 
BRANCH  18  19
HETATM   19  C   UNK N   1      27.163  29.042  -4.413  0.00  0.00     0.243 C 
HETATM   20  C   UNK N   1      26.886  30.535  -4.414  0.00  0.00     0.045 C 
BRANCH  19  21
HETATM   21  N   UNK N   1      25.979  28.347  -3.848  0.00  0.00     0.094 N 
HETATM   22  C   UNK N   1      25.201  27.764  -4.940  0.00  0.00     0.273 C 
HETATM   23  C   UNK N   1      25.670  26.331  -5.126  0.00  0.00     0.032 C 
HETATM   24  C   UNK N   1      26.406  25.979  -3.856  0.00  0.00     0.032 C 
HETATM   25  C   UNK N   1      26.298  27.209  -2.986  0.00  0.00     0.273 C 
ENDBRANCH  19  21
ENDBRANCH  18  19
ENDBRANCH  17  18
ENDBRANCH  14  17
ENDBRANCH   7  11
BRANCH   8  26
HETATM   26  C   UNK N   1      31.171  21.691  -5.036  0.00  0.00    -0.041 A 
HETATM   27  C   UNK N   1      31.423  21.438  -3.676  0.00  0.00     0.011 A 
HETATM   28  C   UNK N   1      32.726  21.232  -3.216  0.00  0.00     0.037 A 
HETATM   29  C   UNK N   1      33.797  21.263  -4.111  0.00  0.00     0.065 A 
HETATM   30  C   UNK N   1      33.568  21.533  -5.463  0.00  0.00     0.037 A 
HETATM   31  C   UNK N   1      32.264  21.756  -5.923  0.00  0.00     0.011 A 
BRANCH  29  32
HETATM   32  O   UNK N   1      35.045  21.032  -3.673  0.00  0.00    -0.361 OA
HETATM   33  H   UNK N   1      35.219  20.316  -3.093  0.00  0.00     0.217 HD
ENDBRANCH  29  32
ENDBRANCH   8  26
BRANCH   4  34
HETATM   34  O   UNK N   1      25.293  21.302 -10.021  0.00  0.00    -0.361 OA
HETATM   35  H   UNK N   1      24.895  21.869 -10.651  0.00  0.00     0.217 HD
ENDBRANCH   4  34
TORSDOF 8
ENDMDL
MODEL 3
REMARK VINA RESULT:      -7.2     12.082     14.637
REMARK  8 active torsions:
REMARK  status: ('A' for Active; 'I' for Inactive)
REMARK    1  A    between atoms: C_18  and  C_17 
REMARK    2  A    between atoms: O_31  and  C_17 
REMARK    3  A    between atoms: N_28  and  C_18 
REMARK    4  A    between atoms: C_26  and  C_19 
REMARK    5  A    between atoms: C_27  and  C_20 
REMARK    6  A    between atoms: O_29  and  C_21 
REMARK    7  A    between atoms: O_30  and  C_22 
REMARK    8  A    between atoms: O_31  and  C_23 
ROOT
HETATM    1  C   UNK N   1      22.071  20.834   1.938  0.00  0.00     0.039 A 
HETATM    2  C   UNK N   1      22.781  20.273   2.995  0.00  0.00     0.041 A 
HETATM    3  C   UNK N   1      20.365  19.136   2.191  0.00  0.00     0.057 A 
HETATM    4  C   UNK N   1      20.860  20.269   1.536  0.00  0.00     0.067 A 
HETATM    5  C   UNK N   1      22.295  19.142   3.660  0.00  0.00     0.086 A 
HETATM    6  C   UNK N   1      21.075  18.563   3.251  0.00  0.00     0.037 A 
HETATM    7  C   UNK N   1      22.745  17.546   5.458  0.00  0.00     0.180 C 
HETATM    8  C   UNK N   1      21.223  17.280   5.641  0.00  0.00     0.119 C 
HETATM    9  O   UNK N   1      23.033  18.641   4.667  0.00  0.00    -0.338 OA
HETATM   10  S   UNK N   1      20.425  17.065   4.009  0.00  0.00    -0.114 SA
ENDROOT
BRANCH   7  11
HETATM   11  C   UNK N   1      23.695  16.412   5.138  0.00  0.00    -0.027 C 
HETATM   12  C   UNK N   1      24.386  15.814   6.195  0.00  0.00     0.012 C 
HETATM   13  C   UNK N   1      25.655  15.299   6.018  0.00  0.00     0.037 C 
HETATM   14  C   UNK N   1      26.272  15.388   4.768  0.00  0.00     0.068 C 
HETATM   15  C   UNK N   1      25.554  15.861   3.669  0.00  0.00     0.037 C 
HETATM   16  C   UNK N   1      24.283  16.400   3.860  0.00  0.00     0.012 C 
BRANCH  14  17
HETATM   17  O   UNK N   1      27.591  15.160   4.643  0.00  0.00    -0.349 OA
BRANCH  17  18
HETATM   18  C   UNK N   1      28.500  15.939   5.334  0.00  0.00     0.211 C 
BRANCH  18  19
HETATM   19  C   UNK N   1      28.865  17.181   4.536  0.00  0.00     0.243 C 
HETATM   20  C   UNK N   1      30.312  17.018   4.106  0.00  0.00     0.045 C 
BRANCH  19  21
HETATM   21  N   UNK N   1      28.743  18.452   5.295  0.00  0.00     0.094 N 
HETATM   22  C   UNK N   1      28.475  19.543   4.360  0.00  0.00     0.273 C 
HETATM   23  C   UNK N   1      26.968  19.716   4.271  0.00  0.00     0.032 C 
HETATM   24  C   UNK N   1      26.410  19.010   5.482  0.00  0.00     0.032 C 
HETATM   25  C   UNK N   1      27.618  18.494   6.228  0.00  0.00     0.273 C 
ENDBRANCH  19  21
ENDBRANCH  18  19
ENDBRANCH  17  18
ENDBRANCH  14  17
ENDBRANCH   7  11
BRANCH   8  26
HETATM   26  C   UNK N   1      20.956  16.099   6.579  0.00  0.00    -0.041 A 
HETATM   27  C   UNK N   1      20.816  14.791   6.084  0.00  0.00     0.011 A 
HETATM   28  C   UNK N   1      20.682  13.707   6.957  0.00  0.00     0.037 A 
HETATM   29  C   UNK N   1      20.699  13.913   8.337  0.00  0.00     0.065 A 
HETATM   30  C   UNK N   1      20.817  15.209   8.846  0.00  0.00     0.037 A 
HETATM   31  C   UNK N   1      20.935  16.299   7.974  0.00  0.00     0.011 A 
BRANCH  29  32
HETATM   32  O   UNK N   1      20.604  12.868   9.173  0.00  0.00    -0.361 OA
HETATM   33  H   UNK N   1      20.321  12.032   8.857  0.00  0.00     0.217 HD
ENDBRANCH  29  32
ENDBRANCH   8  26
BRANCH   4  34
HETATM   34  O   UNK N   1      20.176  20.811   0.517  0.00  0.00    -0.361 OA
HETATM   35  H   UNK N   1      19.275  21.060   0.583  0.00  0.00     0.217 HD
ENDBRANCH   4  34
TORSDOF 8
ENDMDL
MODEL 4
REMARK VINA RESULT:      -7.1     13.083     15.884
REMARK  8 active torsions:
REMARK  status: ('A' for Active; 'I' for Inactive)
REMARK    1  A    between atoms: C_18  and  C_17 
REMARK    2  A    between atoms: O_31  and  C_17 
REMARK    3  A    between atoms: N_28  and  C_18 
REMARK    4  A    between atoms: C_26  and  C_19 
REMARK    5  A    between atoms: C_27  and  C_20 
REMARK    6  A    between atoms: O_29  and  C_21 
REMARK    7  A    between atoms: O_30  and  C_22 
REMARK    8  A    between atoms: O_31  and  C_23 
ROOT
HETATM    1  C   UNK N   1      20.536  19.237   3.163  0.00  0.00     0.039 A 
HETATM    2  C   UNK N   1      21.507  18.931   4.112  0.00  0.00     0.041 A 
HETATM    3  C   UNK N   1      19.511  17.075   3.522  0.00  0.00     0.057 A 
HETATM    4  C   UNK N   1      19.535  18.313   2.869  0.00  0.00     0.067 A 
HETATM    5  C   UNK N   1      21.493  17.698   4.773  0.00  0.00     0.086 A 
HETATM    6  C   UNK N   1      20.486  16.757   4.473  0.00  0.00     0.037 A 
HETATM    7  C   UNK N   1      22.640  16.322   6.439  0.00  0.00     0.180 C 
HETATM    8  C   UNK N   1      21.317  15.573   6.772  0.00  0.00     0.119 C 
HETATM    9  O   UNK N   1      22.466  17.458   5.671  0.00  0.00    -0.338 OA
HETATM   10  S   UNK N   1      20.448  15.123   5.228  0.00  0.00    -0.114 SA
ENDROOT
BRANCH   7  11
HETATM   11  C   UNK N   1      23.861  15.562   5.968  0.00  0.00    -0.027 C 
HETATM   12  C   UNK N   1      24.878  15.311   6.892  0.00  0.00     0.012 C 
HETATM   13  C   UNK N   1      26.201  15.250   6.500  0.00  0.00     0.037 C 
HETATM   14  C   UNK N   1      26.538  15.457   5.161  0.00  0.00     0.068 C 
HETATM   15  C   UNK N   1      25.533  15.578   4.201  0.00  0.00     0.037 C 
HETATM   16  C   UNK N   1      24.202  15.663   4.607  0.00  0.00     0.012 C 
BRANCH  14  17
HETATM   17  O   UNK N   1      27.815  15.685   4.809  0.00  0.00    -0.349 OA
BRANCH  17  18
HETATM   18  C   UNK N   1      28.161  16.863   4.174  0.00  0.00     0.211 C 
BRANCH  18  19
HETATM   19  C   UNK N   1      28.522  17.939   5.187  0.00  0.00     0.243 C 
HETATM   20  C   UNK N   1      29.397  17.277   6.238  0.00  0.00     0.045 C 
BRANCH  19  21
HETATM   21  N   UNK N   1      27.355  18.552   5.869  0.00  0.00     0.094 N 
HETATM   22  C   UNK N   1      27.811  19.687   6.670  0.00  0.00     0.273 C 
HETATM   23  C   UNK N   1      27.680  20.936   5.816  0.00  0.00     0.032 C 
HETATM   24  C   UNK N   1      26.748  20.560   4.690  0.00  0.00     0.032 C 
HETATM   25  C   UNK N   1      26.358  19.126   4.966  0.00  0.00     0.273 C 
ENDBRANCH  19  21
ENDBRANCH  18  19
ENDBRANCH  17  18
ENDBRANCH  14  17
ENDBRANCH   7  11
BRANCH   8  26
HETATM   26  C   UNK N   1      21.557  14.363   7.679  0.00  0.00    -0.041 A 
HETATM   27  C   UNK N   1      21.874  13.102   7.145  0.00  0.00     0.011 A 
HETATM   28  C   UNK N   1      22.197  12.031   7.984  0.00  0.00     0.037 A 
HETATM   29  C   UNK N   1      22.222  12.209   9.368  0.00  0.00     0.065 A 
HETATM   30  C   UNK N   1      21.890  13.451   9.917  0.00  0.00     0.037 A 
HETATM   31  C   UNK N   1      21.549  14.521   9.080  0.00  0.00     0.011 A 
BRANCH  29  32
HETATM   32  O   UNK N   1      22.565  11.189  10.170  0.00  0.00    -0.361 OA
HETATM   33  H   UNK N   1      23.408  10.786  10.091  0.00  0.00     0.217 HD
ENDBRANCH  29  32
ENDBRANCH   8  26
BRANCH   4  34
HETATM   34  O   UNK N   1      18.598  18.610   1.955  0.00  0.00    -0.361 OA
HETATM   35  H   UNK N   1      18.486  19.470   1.601  0.00  0.00     0.217 HD
ENDBRANCH   4  34
TORSDOF 8
ENDMDL
MODEL 5
REMARK VINA RESULT:      -7.1     11.787     16.780
REMARK  8 active torsions:
REMARK  status: ('A' for Active; 'I' for Inactive)
REMARK    1  A    between atoms: C_18  and  C_17 
REMARK    2  A    between atoms: O_31  and  C_17 
REMARK    3  A    between atoms: N_28  and  C_18 
REMARK    4  A    between atoms: C_26  and  C_19 
REMARK    5  A    between atoms: C_27  and  C_20 
REMARK    6  A    between atoms: O_29  and  C_21 
REMARK    7  A    between atoms: O_30  and  C_22 
REMARK    8  A    between atoms: O_31  and  C_23 
ROOT
HETATM    1  C   UNK N   1      35.214  15.785  11.267  0.00  0.00     0.039 A 
HETATM    2  C   UNK N   1      35.265  16.463  10.052  0.00  0.00     0.041 A 
HETATM    3  C   UNK N   1      34.088  13.938  10.183  0.00  0.00     0.057 A 
HETATM    4  C   UNK N   1      34.630  14.521  11.334  0.00  0.00     0.067 A 
HETATM    5  C   UNK N   1      34.730  15.889   8.893  0.00  0.00     0.086 A 
HETATM    6  C   UNK N   1      34.131  14.614   8.959  0.00  0.00     0.037 A 
HETATM    7  C   UNK N   1      34.348  16.228   6.501  0.00  0.00     0.180 C 
HETATM    8  C   UNK N   1      34.358  14.692   6.253  0.00  0.00     0.119 C 
HETATM    9  O   UNK N   1      34.801  16.599   7.753  0.00  0.00    -0.338 OA
HETATM   10  S   UNK N   1      33.355  13.847   7.527  0.00  0.00    -0.114 SA
ENDROOT
BRANCH   7  11
HETATM   11  C   UNK N   1      33.146  17.065   6.117  0.00  0.00    -0.027 C 
HETATM   12  C   UNK N   1      31.948  16.852   6.803  0.00  0.00     0.012 C 
HETATM   13  C   UNK N   1      30.728  17.020   6.179  0.00  0.00     0.037 C 
HETATM   14  C   UNK N   1      30.683  17.396   4.835  0.00  0.00     0.068 C 
HETATM   15  C   UNK N   1      31.858  17.742   4.168  0.00  0.00     0.037 C 
HETATM   16  C   UNK N   1      33.087  17.546   4.797  0.00  0.00     0.012 C 
BRANCH  14  17
HETATM   17  O   UNK N   1      29.538  17.289   4.138  0.00  0.00    -0.349 OA
BRANCH  17  18
HETATM   18  C   UNK N   1      28.405  16.771   4.736  0.00  0.00     0.211 C 
BRANCH  18  19
HETATM   19  C   UNK N   1      27.231  17.728   4.592  0.00  0.00     0.243 C 
HETATM   20  C   UNK N   1      26.347  17.175   3.488  0.00  0.00     0.045 C 
BRANCH  19  21
HETATM   21  N   UNK N   1      27.615  19.116   4.232  0.00  0.00     0.094 N 
HETATM   22  C   UNK N   1      26.513  19.744   3.506  0.00  0.00     0.273 C 
HETATM   23  C   UNK N   1      25.657  20.486   4.519  0.00  0.00     0.032 C 
HETATM   24  C   UNK N   1      26.521  20.631   5.748  0.00  0.00     0.032 C 
HETATM   25  C   UNK N   1      27.842  19.998   5.376  0.00  0.00     0.273 C 
ENDBRANCH  19  21
ENDBRANCH  18  19
ENDBRANCH  17  18
ENDBRANCH  14  17
ENDBRANCH   7  11
BRANCH   8  26
HETATM   26  C   UNK N   1      33.913  14.338   4.832  0.00  0.00    -0.041 A 
HETATM   27  C   UNK N   1      34.806  14.407   3.748  0.00  0.00     0.011 A 
HETATM   28  C   UNK N   1      34.420  13.978   2.475  0.00  0.00     0.037 A 
HETATM   29  C   UNK N   1      33.140  13.461   2.269  0.00  0.00     0.065 A 
HETATM   30  C   UNK N   1      32.232  13.404   3.330  0.00  0.00     0.037 A 
HETATM   31  C   UNK N   1      32.611  13.849   4.603  0.00  0.00     0.011 A 
BRANCH  29  32
HETATM   32  O   UNK N   1      32.783  13.018   1.053  0.00  0.00    -0.361 OA
HETATM   33  H   UNK N   1      33.435  12.765   0.430  0.00  0.00     0.217 HD
ENDBRANCH  29  32
ENDBRANCH   8  26
BRANCH   4  34
HETATM   34  O   UNK N   1      34.581  13.869  12.505  0.00  0.00    -0.361 OA
HETATM   35  H   UNK N   1      34.434  14.301  13.324  0.00  0.00     0.217 HD
ENDBRANCH   4  34
TORSDOF 8
ENDMDL
MODEL 6
REMARK VINA RESULT:      -7.0     13.879     18.936
REMARK  8 active torsions:
REMARK  status: ('A' for Active; 'I' for Inactive)
REMARK    1  A    between atoms: C_18  and  C_17 
REMARK    2  A    between atoms: O_31  and  C_17 
REMARK    3  A    between atoms: N_28  and  C_18 
REMARK    4  A    between atoms: C_26  and  C_19 
REMARK    5  A    between atoms: C_27  and  C_20 
REMARK    6  A    between atoms: O_29  and  C_21 
REMARK    7  A    between atoms: O_30  and  C_22 
REMARK    8  A    between atoms: O_31  and  C_23 
ROOT
HETATM    1  C   UNK N   1      36.041  13.818  13.988  0.00  0.00     0.039 A 
HETATM    2  C   UNK N   1      36.084  14.793  12.996  0.00  0.00     0.041 A 
HETATM    3  C   UNK N   1      35.023  12.279  12.422  0.00  0.00     0.057 A 
HETATM    4  C   UNK N   1      35.515  12.558  13.702  0.00  0.00     0.067 A 
HETATM    5  C   UNK N   1      35.598  14.526  11.711  0.00  0.00     0.086 A 
HETATM    6  C   UNK N   1      35.058  13.255  11.421  0.00  0.00     0.037 A 
HETATM    7  C   UNK N   1      35.247  15.468   9.482  0.00  0.00     0.180 C 
HETATM    8  C   UNK N   1      35.334  14.054   8.839  0.00  0.00     0.119 C 
HETATM    9  O   UNK N   1      35.658  15.514  10.800  0.00  0.00    -0.338 OA
HETATM   10  S   UNK N   1      34.347  12.863   9.814  0.00  0.00    -0.114 SA
ENDROOT
BRANCH   7  11
HETATM   11  C   UNK N   1      34.016  16.329   9.295  0.00  0.00    -0.027 C 
HETATM   12  C   UNK N   1      32.763  15.719   9.404  0.00  0.00     0.012 C 
HETATM   13  C   UNK N   1      31.686  16.162   8.662  0.00  0.00     0.037 C 
HETATM   14  C   UNK N   1      31.847  17.229   7.774  0.00  0.00     0.068 C 
HETATM   15  C   UNK N   1      33.050  17.935   7.745  0.00  0.00     0.037 C 
HETATM   16  C   UNK N   1      34.139  17.468   8.478  0.00  0.00     0.012 C 
BRANCH  14  17
HETATM   17  O   UNK N   1      30.909  17.488   6.847  0.00  0.00    -0.349 OA
BRANCH  17  18
HETATM   18  C   UNK N   1      29.578  17.221   7.110  0.00  0.00     0.211 C 
BRANCH  18  19
HETATM   19  C   UNK N   1      28.847  18.483   7.541  0.00  0.00     0.243 C 
HETATM   20  C   UNK N   1      28.517  18.317   9.015  0.00  0.00     0.045 C 
BRANCH  19  21
HETATM   21  N   UNK N   1      27.583  18.738   6.805  0.00  0.00     0.094 N 
HETATM   22  C   UNK N   1      27.232  20.151   6.934  0.00  0.00     0.273 C 
HETATM   23  C   UNK N   1      27.812  20.882   5.735  0.00  0.00     0.032 C 
HETATM   24  C   UNK N   1      28.117  19.809   4.718  0.00  0.00     0.032 C 
HETATM   25  C   UNK N   1      27.668  18.518   5.362  0.00  0.00     0.273 C 
ENDBRANCH  19  21
ENDBRANCH  18  19
ENDBRANCH  17  18
ENDBRANCH  14  17
ENDBRANCH   7  11
BRANCH   8  26
HETATM   26  C   UNK N   1      34.933  14.071   7.362  0.00  0.00    -0.041 A 
HETATM   27  C   UNK N   1      33.764  13.429   6.915  0.00  0.00     0.011 A 
HETATM   28  C   UNK N   1      33.350  13.542   5.585  0.00  0.00     0.037 A 
HETATM   29  C   UNK N   1      34.091  14.309   4.684  0.00  0.00     0.065 A 
HETATM   30  C   UNK N   1      35.265  14.937   5.105  0.00  0.00     0.037 A 
HETATM   31  C   UNK N   1      35.692  14.812   6.434  0.00  0.00     0.011 A 
BRANCH  29  32
HETATM   32  O   UNK N   1      33.673  14.444   3.415  0.00  0.00    -0.361 OA
HETATM   33  H   UNK N   1      33.850  13.774   2.784  0.00  0.00     0.217 HD
ENDBRANCH  29  32
ENDBRANCH   8  26
BRANCH   4  34
HETATM   34  O   UNK N   1      35.475  11.618  14.658  0.00  0.00    -0.361 OA
HETATM   35  H   UNK N   1      34.719  11.089  14.822  0.00  0.00     0.217 HD
ENDBRANCH   4  34
TORSDOF 8
ENDMDL
MODEL 7
REMARK VINA RESULT:      -7.0      2.980      6.281
REMARK  8 active torsions:
REMARK  status: ('A' for Active; 'I' for Inactive)
REMARK    1  A    between atoms: C_18  and  C_17 
REMARK    2  A    between atoms: O_31  and  C_17 
REMARK    3  A    between atoms: N_28  and  C_18 
REMARK    4  A    between atoms: C_26  and  C_19 
REMARK    5  A    between atoms: C_27  and  C_20 
REMARK    6  A    between atoms: O_29  and  C_21 
REMARK    7  A    between atoms: O_30  and  C_22 
REMARK    8  A    between atoms: O_31  and  C_23 
ROOT
HETATM    1  C   UNK N   1      25.382  26.278 -11.303  0.00  0.00     0.039 A 
HETATM    2  C   UNK N   1      25.107  25.612 -10.112  0.00  0.00     0.041 A 
HETATM    3  C   UNK N   1      27.565  26.885 -10.452  0.00  0.00     0.057 A 
HETATM    4  C   UNK N   1      26.612  26.912 -11.477  0.00  0.00     0.067 A 
HETATM    5  C   UNK N   1      26.052  25.575  -9.081  0.00  0.00     0.086 A 
HETATM    6  C   UNK N   1      27.294  26.222  -9.250  0.00  0.00     0.037 A 
HETATM    7  C   UNK N   1      26.496  24.757  -6.819  0.00  0.00     0.180 C 
HETATM    8  C   UNK N   1      28.027  24.738  -7.096  0.00  0.00     0.119 C 
HETATM    9  O   UNK N   1      25.721  24.924  -7.951  0.00  0.00    -0.338 OA
HETATM   10  S   UNK N   1      28.528  26.280  -7.941  0.00  0.00    -0.114 SA
ENDROOT
BRANCH   7  11
HETATM   11  C   UNK N   1      25.926  25.572  -5.678  0.00  0.00    -0.027 C 
HETATM   12  C   UNK N   1      25.714  26.938  -5.886  0.00  0.00     0.012 C 
HETATM   13  C   UNK N   1      25.841  27.845  -4.853  0.00  0.00     0.037 C 
HETATM   14  C   UNK N   1      26.202  27.401  -3.579  0.00  0.00     0.068 C 
HETATM   15  C   UNK N   1      26.290  26.033  -3.318  0.00  0.00     0.037 C 
HETATM   16  C   UNK N   1      26.184  25.125  -4.370  0.00  0.00     0.012 C 
BRANCH  14  17
HETATM   17  O   UNK N   1      26.606  28.277  -2.643  0.00  0.00    -0.349 OA
BRANCH  17  18
HETATM   18  C   UNK N   1      27.113  29.508  -3.015  0.00  0.00     0.211 C 
BRANCH  18  19
HETATM   19  C   UNK N   1      28.620  29.436  -3.212  0.00  0.00     0.243 C 
HETATM   20  C   UNK N   1      29.251  29.661  -1.849  0.00  0.00     0.045 C 
BRANCH  19  21
HETATM   21  N   UNK N   1      29.161  30.449  -4.152  0.00  0.00     0.094 N 
HETATM   22  C   UNK N   1      30.383  29.928  -4.764  0.00  0.00     0.273 C 
HETATM   23  C   UNK N   1      29.993  29.256  -6.070  0.00  0.00     0.032 C 
HETATM   24  C   UNK N   1      28.616  29.778  -6.397  0.00  0.00     0.032 C 
HETATM   25  C   UNK N   1      28.290  30.750  -5.287  0.00  0.00     0.273 C 
ENDBRANCH  19  21
ENDBRANCH  18  19
ENDBRANCH  17  18
ENDBRANCH  14  17
ENDBRANCH   7  11
BRANCH   8  26
HETATM   26  C   UNK N   1      28.836  24.483  -5.822  0.00  0.00    -0.041 A 
HETATM   27  C   UNK N   1      29.480  25.532  -5.143  0.00  0.00     0.011 A 
HETATM   28  C   UNK N   1      30.124  25.307  -3.923  0.00  0.00     0.037 A 
HETATM   29  C   UNK N   1      30.123  24.031  -3.357  0.00  0.00     0.065 A 
HETATM   30  C   UNK N   1      29.505  22.972  -4.027  0.00  0.00     0.037 A 
HETATM   31  C   UNK N   1      28.874  23.192  -5.258  0.00  0.00     0.011 A 
BRANCH  29  32
HETATM   32  O   UNK N   1      30.713  23.823  -2.169  0.00  0.00    -0.361 OA
HETATM   33  H   UNK N   1      31.491  24.292  -1.938  0.00  0.00     0.217 HD
ENDBRANCH  29  32
ENDBRANCH   8  26
BRANCH   4  34
HETATM   34  O   UNK N   1      26.877  27.553 -12.625  0.00  0.00    -0.361 OA
HETATM   35  H   UNK N   1      27.183  28.438 -12.655  0.00  0.00     0.217 HD
ENDBRANCH   4  34
TORSDOF 8
ENDMDL
MODEL 8
REMARK VINA RESULT:      -6.9     13.836     16.690
REMARK  8 active torsions:
REMARK  status: ('A' for Active; 'I' for Inactive)
REMARK    1  A    between atoms: C_18  and  C_17 
REMARK    2  A    between atoms: O_31  and  C_17 
REMARK    3  A    between atoms: N_28  and  C_18 
REMARK    4  A    between atoms: C_26  and  C_19 
REMARK    5  A    between atoms: C_27  and  C_20 
REMARK    6  A    between atoms: O_29  and  C_21 
REMARK    7  A    between atoms: O_30  and  C_22 
REMARK    8  A    between atoms: O_31  and  C_23 
ROOT
HETATM    1  C   UNK N   1      22.937  11.407  10.202  0.00  0.00     0.039 A 
HETATM    2  C   UNK N   1      23.360  11.634   8.895  0.00  0.00     0.041 A 
HETATM    3  C   UNK N   1      21.156  13.017   9.899  0.00  0.00     0.057 A 
HETATM    4  C   UNK N   1      21.833  12.094  10.705  0.00  0.00     0.067 A 
HETATM    5  C   UNK N   1      22.690  12.552   8.078  0.00  0.00     0.086 A 
HETATM    6  C   UNK N   1      21.577  13.255   8.587  0.00  0.00     0.037 A 
HETATM    7  C   UNK N   1      22.647  13.578   5.859  0.00  0.00     0.180 C 
HETATM    8  C   UNK N   1      21.115  13.826   5.972  0.00  0.00     0.119 C 
HETATM    9  O   UNK N   1      23.154  12.735   6.829  0.00  0.00    -0.338 OA
HETATM   10  S   UNK N   1      20.712  14.504   7.622  0.00  0.00    -0.114 SA
ENDROOT
BRANCH   7  11
HETATM   11  C   UNK N   1      23.602  14.728   5.624  0.00  0.00    -0.027 C 
HETATM   12  C   UNK N   1      24.015  14.984   4.314  0.00  0.00     0.012 C 
HETATM   13  C   UNK N   1      25.272  15.492   4.048  0.00  0.00     0.037 C 
HETATM   14  C   UNK N   1      26.155  15.743   5.100  0.00  0.00     0.068 C 
HETATM   15  C   UNK N   1      25.720  15.620   6.420  0.00  0.00     0.037 C 
HETATM   16  C   UNK N   1      24.460  15.085   6.680  0.00  0.00     0.012 C 
BRANCH  14  17
HETATM   17  O   UNK N   1      27.459  15.960   4.854  0.00  0.00    -0.349 OA
BRANCH  17  18
HETATM   18  C   UNK N   1      27.864  17.115   4.212  0.00  0.00     0.211 C 
BRANCH  18  19
HETATM   19  C   UNK N   1      28.315  18.164   5.217  0.00  0.00     0.243 C 
HETATM   20  C   UNK N   1      29.281  17.476   6.165  0.00  0.00     0.045 C 
BRANCH  19  21
HETATM   21  N   UNK N   1      27.214  18.756   6.018  0.00  0.00     0.094 N 
HETATM   22  C   UNK N   1      27.764  19.781   6.902  0.00  0.00     0.273 C 
HETATM   23  C   UNK N   1      27.654  21.116   6.185  0.00  0.00     0.032 C 
HETATM   24  C   UNK N   1      26.650  20.898   5.079  0.00  0.00     0.032 C 
HETATM   25  C   UNK N   1      26.204  19.463   5.231  0.00  0.00     0.273 C 
ENDBRANCH  19  21
ENDBRANCH  18  19
ENDBRANCH  17  18
ENDBRANCH  14  17
ENDBRANCH   7  11
BRANCH   8  26
HETATM   26  C   UNK N   1      20.592  14.710   4.836  0.00  0.00    -0.041 A 
HETATM   27  C   UNK N   1      20.243  16.054   5.058  0.00  0.00     0.011 A 
HETATM   28  C   UNK N   1      19.872  16.881   3.994  0.00  0.00     0.037 A 
HETATM   29  C   UNK N   1      19.856  16.381   2.691  0.00  0.00     0.065 A 
HETATM   30  C   UNK N   1      20.181  15.042   2.454  0.00  0.00     0.037 A 
HETATM   31  C   UNK N   1      20.537  14.207   3.521  0.00  0.00     0.011 A 
BRANCH  29  32
HETATM   32  O   UNK N   1      19.531  17.186   1.667  0.00  0.00    -0.361 OA
HETATM   33  H   UNK N   1      19.177  18.039   1.828  0.00  0.00     0.217 HD
ENDBRANCH  29  32
ENDBRANCH   8  26
BRANCH   4  34
HETATM   34  O   UNK N   1      21.426  11.873  11.964  0.00  0.00    -0.361 OA
HETATM   35  H   UNK N   1      21.943  12.096  12.713  0.00  0.00     0.217 HD
ENDBRANCH   4  34
TORSDOF 8
ENDMDL
MODEL 9
REMARK VINA RESULT:      -6.9     13.084     15.824
REMARK  8 active torsions:
REMARK  status: ('A' for Active; 'I' for Inactive)
REMARK    1  A    between atoms: C_18  and  C_17 
REMARK    2  A    between atoms: O_31  and  C_17 
REMARK    3  A    between atoms: N_28  and  C_18 
REMARK    4  A    between atoms: C_26  and  C_19 
REMARK    5  A    between atoms: C_27  and  C_20 
REMARK    6  A    between atoms: O_29  and  C_21 
REMARK    7  A    between atoms: O_30  and  C_22 
REMARK    8  A    between atoms: O_31  and  C_23 
ROOT
HETATM    1  C   UNK N   1      20.667  19.055   3.250  0.00  0.00     0.039 A 
HETATM    2  C   UNK N   1      21.659  18.725   4.169  0.00  0.00     0.041 A 
HETATM    3  C   UNK N   1      19.538  16.968   3.729  0.00  0.00     0.057 A 
HETATM    4  C   UNK N   1      19.603  18.180   3.032  0.00  0.00     0.067 A 
HETATM    5  C   UNK N   1      21.604  17.519   4.876  0.00  0.00     0.086 A 
HETATM    6  C   UNK N   1      20.533  16.627   4.651  0.00  0.00     0.037 A 
HETATM    7  C   UNK N   1      22.742  16.137   6.542  0.00  0.00     0.180 C 
HETATM    8  C   UNK N   1      21.394  15.477   6.956  0.00  0.00     0.119 C 
HETATM    9  O   UNK N   1      22.599  17.254   5.742  0.00  0.00    -0.338 OA
HETATM   10  S   UNK N   1      20.436  15.025   5.466  0.00  0.00    -0.114 SA
ENDROOT
BRANCH   7  11
HETATM   11  C   UNK N   1      23.897  15.292   6.050  0.00  0.00    -0.027 C 
HETATM   12  C   UNK N   1      24.964  15.062   6.922  0.00  0.00     0.012 C 
HETATM   13  C   UNK N   1      26.253  14.916   6.450  0.00  0.00     0.037 C 
HETATM   14  C   UNK N   1      26.506  15.011   5.080  0.00  0.00     0.068 C 
HETATM   15  C   UNK N   1      25.443  15.108   4.181  0.00  0.00     0.037 C 
HETATM   16  C   UNK N   1      24.148  15.280   4.666  0.00  0.00     0.012 C 
BRANCH  14  17
HETATM   17  O   UNK N   1      27.764  15.157   4.630  0.00  0.00    -0.349 OA
BRANCH  17  18
HETATM   18  C   UNK N   1      28.344  16.411   4.579  0.00  0.00     0.211 C 
BRANCH  18  19
HETATM   19  C   UNK N   1      29.554  16.412   3.658  0.00  0.00     0.243 C 
HETATM   20  C   UNK N   1      29.212  15.512   2.483  0.00  0.00     0.045 C 
BRANCH  19  21
HETATM   21  N   UNK N   1      30.800  15.907   4.287  0.00  0.00     0.094 N 
HETATM   22  C   UNK N   1      31.772  15.596   3.240  0.00  0.00     0.273 C 
HETATM   23  C   UNK N   1      32.642  16.826   3.039  0.00  0.00     0.032 C 
HETATM   24  C   UNK N   1      32.435  17.672   4.271  0.00  0.00     0.032 C 
HETATM   25  C   UNK N   1      31.486  16.878   5.138  0.00  0.00     0.273 C 
ENDBRANCH  19  21
ENDBRANCH  18  19
ENDBRANCH  17  18
ENDBRANCH  14  17
ENDBRANCH   7  11
BRANCH   8  26
HETATM   26  C   UNK N   1      21.604  14.287   7.897  0.00  0.00    -0.041 A 
HETATM   27  C   UNK N   1      21.966  13.021   7.403  0.00  0.00     0.011 A 
HETATM   28  C   UNK N   1      22.261  11.971   8.277  0.00  0.00     0.037 A 
HETATM   29  C   UNK N   1      22.212  12.174   9.657  0.00  0.00     0.065 A 
HETATM   30  C   UNK N   1      21.834  13.419  10.165  0.00  0.00     0.037 A 
HETATM   31  C   UNK N   1      21.522  14.469   9.292  0.00  0.00     0.011 A 
BRANCH  29  32
HETATM   32  O   UNK N   1      22.528  11.173  10.494  0.00  0.00    -0.361 OA
HETATM   33  H   UNK N   1      23.380  10.782  10.465  0.00  0.00     0.217 HD
ENDBRANCH  29  32
ENDBRANCH   8  26
BRANCH   4  34
HETATM   34  O   UNK N   1      18.647  18.499   2.146  0.00  0.00    -0.361 OA
HETATM   35  H   UNK N   1      18.833  18.746   1.262  0.00  0.00     0.217 HD
ENDBRANCH   4  34
TORSDOF 8
ENDMDL
