REMARK  2 active torsions:
REMARK  status: ('A' for Active; 'I' for Inactive)
REMARK    1  A    between atoms: C_2  and  O_3 
REMARK    2  A    between atoms: O_3  and  C_4 
REMARK       I    between atoms: C_4  and  N_6 
ROOT
HETATM    1  C   UNK N   1       2.079   1.147   0.000  0.00  0.00     0.360 C 
HETATM    2  O   UNK N   1       2.060   2.372  -0.000  0.00  0.00    -0.239 OA
HETATM    3  N   UNK N   1       3.256   0.479   0.000  0.00  0.00    -0.341 N 
HETATM    4  C   UNK N   1       4.525   1.160  -0.000  0.00  0.00     0.151 C 
HETATM    5  H   UNK N   1       3.245  -0.505   0.000  0.00  0.00     0.164 HD
ENDROOT
BRANCH   1   6
HETATM    6  O   UNK N   1       0.925   0.439   0.000  0.00  0.00    -0.304 OA
BRANCH   6   7
HETATM    7  C   UNK N   1      -0.317   1.027  -0.000  0.00  0.00     0.176 C 
HETATM    8  C   UNK N   1      -1.374  -0.058   0.000  0.00  0.00     0.034 C 
ENDBRANCH   6   7
ENDBRANCH   1   6
TORSDOF 2
