REMARK  12 active torsions:
REMARK  status: ('A' for Active; 'I' for Inactive)
REMARK    1  A    between atoms: C_5  and  C_2 
REMARK    2  A    between atoms: O_10  and  C_2 
REMARK    3  A    between atoms: C_6  and  C_3 
REMARK    4  A    between atoms: N_9  and  C_4 
REMARK    5  A    between atoms: C_4  and  O_12 
REMARK    6  A    between atoms: C_7  and  C_5 
REMARK    7  A    between atoms: C_5  and  N_9 
REMARK    8  A    between atoms: C_8  and  C_6 
REMARK    9  A    between atoms: C_6  and  O_13 
REMARK   10  A    between atoms: C_8  and  C_7 
REMARK   11  A    between atoms: C_7  and  O_14 
REMARK   12  A    between atoms: C_8  and  O_15 
ROOT
HETATM    1  C   UNK N   1       1.469   0.871  -0.147  0.00  0.00     0.198 C 
HETATM    2  O   UNK N   1       1.373   0.918  -1.539  0.00  0.00    -0.398 OA
HETATM    3  H   UNK N   1       1.367   0.992  -2.506  0.00  0.00     0.209 HD
ENDROOT
BRANCH   1   4
HETATM    4  C   UNK N   1       2.855   0.403   0.296  0.00  0.00     0.173 C 
BRANCH   4   5
HETATM    5  C   UNK N   1       3.971   1.360  -0.187  0.00  0.00     0.179 C 
BRANCH   5   6
HETATM    6  C   UNK N   1       5.356   1.002   0.422  0.00  0.00     0.173 C 
BRANCH   6   7
HETATM    7  C   UNK N   1       6.529   1.878  -0.101  0.00  0.00     0.133 C 
BRANCH   7   8
HETATM    8  C   UNK N   1       6.277   3.378   0.054  0.00  0.00     0.191 C 
BRANCH   8   9
HETATM    9  O   UNK N   1       6.127   3.727   1.398  0.00  0.00    -0.399 OA
HETATM   10  H   UNK N   1       6.285   3.939   2.331  0.00  0.00     0.209 HD
ENDBRANCH   8   9
ENDBRANCH   7   8
BRANCH   7  11
HETATM   11  N   UNK N   1       7.761   1.560   0.639  0.00  0.00    -0.388 N 
HETATM   12  H   UNK N   1       7.979   1.957   1.553  0.00  0.00     0.156 HD
BRANCH  11  13
HETATM   13  C   UNK N   1       8.644   0.621  -0.054  0.00  0.00     0.209 C 
HETATM   14  C   UNK N   1       9.753   0.213   0.892  0.00  0.00     0.062 C 
BRANCH  13  15
HETATM   15  O   UNK N   1       9.209   1.235  -1.173  0.00  0.00    -0.378 OA
HETATM   16  H   UNK N   1       9.775   1.108  -1.951  0.00  0.00     0.212 HD
ENDBRANCH  13  15
ENDBRANCH  11  13
ENDBRANCH   7  11
ENDBRANCH   6   7
BRANCH   6  17
HETATM   17  O   UNK N   1       5.653  -0.337   0.151  0.00  0.00    -0.391 OA
HETATM   18  H   UNK N   1       4.952  -0.980  -0.036  0.00  0.00     0.210 HD
ENDBRANCH   6  17
ENDBRANCH   5   6
BRANCH   5  19
HETATM   19  O   UNK N   1       3.620   2.661   0.191  0.00  0.00    -0.390 OA
HETATM   20  H   UNK N   1       4.279   3.323   0.452  0.00  0.00     0.210 HD
ENDBRANCH   5  19
ENDBRANCH   4   5
BRANCH   4  21
HETATM   21  O   UNK N   1       3.070  -0.891  -0.186  0.00  0.00    -0.391 OA
HETATM   22  H   UNK N   1       2.367  -1.469  -0.520  0.00  0.00     0.210 HD
ENDBRANCH   4  21
ENDBRANCH   1   4
TORSDOF 12
