MODEL 1
REMARK VINA RESULT:      -4.7      0.000      0.000
REMARK  12 active torsions:
REMARK  status: ('A' for Active; 'I' for Inactive)
REMARK    1  A    between atoms: C_5  and  C_2 
REMARK    2  A    between atoms: O_10  and  C_2 
REMARK    3  A    between atoms: C_6  and  C_3 
REMARK    4  A    between atoms: N_9  and  C_4 
REMARK    5  A    between atoms: C_4  and  O_12 
REMARK    6  A    between atoms: C_7  and  C_5 
REMARK    7  A    between atoms: C_5  and  N_9 
REMARK    8  A    between atoms: C_8  and  C_6 
REMARK    9  A    between atoms: C_6  and  O_13 
REMARK   10  A    between atoms: C_8  and  C_7 
REMARK   11  A    between atoms: C_7  and  O_14 
REMARK   12  A    between atoms: C_8  and  O_15 
ROOT
HETATM    1  C   UNK N   1      21.064  20.759   1.164  0.00  0.00     0.198 C 
HETATM    2  O   UNK N   1      20.824  21.030  -0.184  0.00  0.00    -0.398 OA
HETATM    3  H   UNK N   1      20.680  21.151  -1.136  0.00  0.00     0.209 HD
ENDROOT
BRANCH   1   4
HETATM    4  C   UNK N   1      20.355  19.478   1.605  0.00  0.00     0.173 C 
BRANCH   4   5
HETATM    5  C   UNK N   1      20.977  18.885   2.891  0.00  0.00     0.179 C 
BRANCH   5   6
HETATM    6  C   UNK N   1      20.013  17.899   3.609  0.00  0.00     0.173 C 
BRANCH   6   7
HETATM    7  C   UNK N   1      20.513  16.427   3.641  0.00  0.00     0.133 C 
BRANCH   7   8
HETATM    8  C   UNK N   1      19.458  15.442   4.146  0.00  0.00     0.191 C 
BRANCH   8   9
HETATM    9  O   UNK N   1      18.506  16.087   4.939  0.00  0.00    -0.399 OA
HETATM   10  H   UNK N   1      18.039  16.521   5.669  0.00  0.00     0.209 HD
ENDBRANCH   8   9
ENDBRANCH   7   8
BRANCH   7  11
HETATM   11  N   UNK N   1      20.902  16.000   2.288  0.00  0.00    -0.388 N 
HETATM   12  H   UNK N   1      21.781  16.275   1.848  0.00  0.00     0.156 HD
BRANCH  11  13
HETATM   13  C   UNK N   1      19.916  15.142   1.630  0.00  0.00     0.209 C 
HETATM   14  C   UNK N   1      20.650  14.082   0.836  0.00  0.00     0.062 C 
BRANCH  13  15
HETATM   15  O   UNK N   1      19.133  15.899   0.756  0.00  0.00    -0.378 OA
HETATM   16  H   UNK N   1      19.116  16.668   0.165  0.00  0.00     0.212 HD
ENDBRANCH  13  15
ENDBRANCH  11  13
ENDBRANCH   7  11
ENDBRANCH   6   7
BRANCH   6  17
HETATM   17  O   UNK N   1      18.765  17.924   2.979  0.00  0.00    -0.391 OA
HETATM   18  H   UNK N   1      18.110  18.608   3.188  0.00  0.00     0.210 HD
ENDBRANCH   6  17
ENDBRANCH   5   6
BRANCH   5  19
HETATM   19  O   UNK N   1      21.282  19.945   3.753  0.00  0.00    -0.390 OA
HETATM   20  H   UNK N   1      22.121  20.429   3.706  0.00  0.00     0.210 HD
ENDBRANCH   5  19
ENDBRANCH   4   5
BRANCH   4  21
HETATM   21  O   UNK N   1      20.404  18.552   0.559  0.00  0.00    -0.391 OA
HETATM   22  H   UNK N   1      20.856  17.696   0.614  0.00  0.00     0.210 HD
ENDBRANCH   4  21
ENDBRANCH   1   4
TORSDOF 12
ENDMDL
MODEL 2
REMARK VINA RESULT:      -4.5     17.181     18.354
REMARK  12 active torsions:
REMARK  status: ('A' for Active; 'I' for Inactive)
REMARK    1  A    between atoms: C_5  and  C_2 
REMARK    2  A    between atoms: O_10  and  C_2 
REMARK    3  A    between atoms: C_6  and  C_3 
REMARK    4  A    between atoms: N_9  and  C_4 
REMARK    5  A    between atoms: C_4  and  O_12 
REMARK    6  A    between atoms: C_7  and  C_5 
REMARK    7  A    between atoms: C_5  and  N_9 
REMARK    8  A    between atoms: C_8  and  C_6 
REMARK    9  A    between atoms: C_6  and  O_13 
REMARK   10  A    between atoms: C_8  and  C_7 
REMARK   11  A    between atoms: C_7  and  O_14 
REMARK   12  A    between atoms: C_8  and  O_15 
ROOT
HETATM    1  C   UNK N   1      34.476  15.334   8.323  0.00  0.00     0.198 C 
HETATM    2  O   UNK N   1      33.635  14.222   8.400  0.00  0.00    -0.398 OA
HETATM    3  H   UNK N   1      33.072  13.442   8.522  0.00  0.00     0.209 HD
ENDROOT
BRANCH   1   4
HETATM    4  C   UNK N   1      34.197  16.318   9.459  0.00  0.00     0.173 C 
BRANCH   4   5
HETATM    5  C   UNK N   1      34.726  15.801  10.818  0.00  0.00     0.179 C 
BRANCH   5   6
HETATM    6  C   UNK N   1      36.119  15.122  10.685  0.00  0.00     0.173 C 
BRANCH   6   7
HETATM    7  C   UNK N   1      36.357  13.954  11.684  0.00  0.00     0.133 C 
BRANCH   7   8
HETATM    8  C   UNK N   1      37.529  13.054  11.290  0.00  0.00     0.191 C 
BRANCH   8   9
HETATM    9  O   UNK N   1      38.466  13.753  10.525  0.00  0.00    -0.399 OA
HETATM   10  H   UNK N   1      38.922  14.231   9.815  0.00  0.00     0.209 HD
ENDBRANCH   8   9
ENDBRANCH   7   8
BRANCH   7  11
HETATM   11  N   UNK N   1      36.646  14.491  13.023  0.00  0.00    -0.388 N 
HETATM   12  H   UNK N   1      37.353  15.207  13.195  0.00  0.00     0.156 HD
BRANCH  11  13
HETATM   13  C   UNK N   1      35.826  13.908  14.086  0.00  0.00     0.209 C 
HETATM   14  C   UNK N   1      36.682  12.949  14.885  0.00  0.00     0.062 C 
BRANCH  13  15
HETATM   15  O   UNK N   1      34.756  13.204  13.531  0.00  0.00    -0.378 OA
HETATM   16  H   UNK N   1      34.283  12.357  13.514  0.00  0.00     0.212 HD
ENDBRANCH  13  15
ENDBRANCH  11  13
ENDBRANCH   7  11
ENDBRANCH   6   7
BRANCH   6  17
HETATM   17  O   UNK N   1      37.123  16.075  10.876  0.00  0.00    -0.391 OA
HETATM   18  H   UNK N   1      37.685  16.063  11.666  0.00  0.00     0.210 HD
ENDBRANCH   6  17
ENDBRANCH   5   6
BRANCH   5  19
HETATM   19  O   UNK N   1      33.804  14.874  11.318  0.00  0.00    -0.390 OA
HETATM   20  H   UNK N   1      33.793  13.946  11.036  0.00  0.00     0.210 HD
ENDBRANCH   5  19
ENDBRANCH   4   5
BRANCH   4  21
HETATM   21  O   UNK N   1      32.821  16.555   9.522  0.00  0.00    -0.391 OA
HETATM   22  H   UNK N   1      32.264  16.319  10.280  0.00  0.00     0.210 HD
ENDBRANCH   4  21
ENDBRANCH   1   4
TORSDOF 12
ENDMDL
MODEL 3
REMARK VINA RESULT:      -4.4     17.492     18.621
REMARK  12 active torsions:
REMARK  status: ('A' for Active; 'I' for Inactive)
REMARK    1  A    between atoms: C_5  and  C_2 
REMARK    2  A    between atoms: O_10  and  C_2 
REMARK    3  A    between atoms: C_6  and  C_3 
REMARK    4  A    between atoms: N_9  and  C_4 
REMARK    5  A    between atoms: C_4  and  O_12 
REMARK    6  A    between atoms: C_7  and  C_5 
REMARK    7  A    between atoms: C_5  and  N_9 
REMARK    8  A    between atoms: C_8  and  C_6 
REMARK    9  A    between atoms: C_6  and  O_13 
REMARK   10  A    between atoms: C_8  and  C_7 
REMARK   11  A    between atoms: C_7  and  O_14 
REMARK   12  A    between atoms: C_8  and  O_15 
ROOT
HETATM    1  C   UNK N   1      35.277  17.003  10.504  0.00  0.00     0.198 C 
HETATM    2  O   UNK N   1      34.133  17.232   9.738  0.00  0.00    -0.398 OA
HETATM    3  H   UNK N   1      33.374  17.363   9.148  0.00  0.00     0.209 HD
ENDROOT
BRANCH   1   4
HETATM    4  C   UNK N   1      35.744  15.553  10.380  0.00  0.00     0.173 C 
BRANCH   4   5
HETATM    5  C   UNK N   1      34.986  14.615  11.349  0.00  0.00     0.179 C 
BRANCH   5   6
HETATM    6  C   UNK N   1      35.181  13.116  10.988  0.00  0.00     0.173 C 
BRANCH   6   7
HETATM    7  C   UNK N   1      35.524  12.206  12.201  0.00  0.00     0.133 C 
BRANCH   7   8
HETATM    8  C   UNK N   1      36.697  12.727  13.033  0.00  0.00     0.191 C 
BRANCH   8   9
HETATM    9  O   UNK N   1      37.809  12.984  12.228  0.00  0.00    -0.399 OA
HETATM   10  H   UNK N   1      38.598  13.376  11.824  0.00  0.00     0.209 HD
ENDBRANCH   8   9
ENDBRANCH   7   8
BRANCH   7  11
HETATM   11  N   UNK N   1      34.360  12.106  13.097  0.00  0.00    -0.388 N 
HETATM   12  H   UNK N   1      33.397  12.186  12.769  0.00  0.00     0.156 HD
BRANCH  11  13
HETATM   13  C   UNK N   1      34.709  11.878  14.500  0.00  0.00     0.209 C 
HETATM   14  C   UNK N   1      34.095  10.568  14.944  0.00  0.00     0.062 C 
BRANCH  13  15
HETATM   15  O   UNK N   1      34.196  12.908  15.292  0.00  0.00    -0.378 OA
HETATM   16  H   UNK N   1      33.389  13.340  15.612  0.00  0.00     0.212 HD
ENDBRANCH  13  15
ENDBRANCH  11  13
ENDBRANCH   7  11
ENDBRANCH   6   7
BRANCH   6  17
HETATM   17  O   UNK N   1      36.204  12.992  10.044  0.00  0.00    -0.391 OA
HETATM   18  H   UNK N   1      36.025  12.672   9.146  0.00  0.00     0.210 HD
ENDBRANCH   6  17
ENDBRANCH   5   6
BRANCH   5  19
HETATM   19  O   UNK N   1      33.625  14.935  11.285  0.00  0.00    -0.390 OA
HETATM   20  H   UNK N   1      33.264  15.754  11.660  0.00  0.00     0.210 HD
ENDBRANCH   5  19
ENDBRANCH   4   5
BRANCH   4  21
HETATM   21  O   UNK N   1      37.121  15.501  10.616  0.00  0.00    -0.391 OA
HETATM   22  H   UNK N   1      37.788  15.871  10.018  0.00  0.00     0.210 HD
ENDBRANCH   4  21
ENDBRANCH   1   4
TORSDOF 12
ENDMDL
MODEL 4
REMARK VINA RESULT:      -4.4     16.360     17.820
REMARK  12 active torsions:
REMARK  status: ('A' for Active; 'I' for Inactive)
REMARK    1  A    between atoms: C_5  and  C_2 
REMARK    2  A    between atoms: O_10  and  C_2 
REMARK    3  A    between atoms: C_6  and  C_3 
REMARK    4  A    between atoms: N_9  and  C_4 
REMARK    5  A    between atoms: C_4  and  O_12 
REMARK    6  A    between atoms: C_7  and  C_5 
REMARK    7  A    between atoms: C_5  and  N_9 
REMARK    8  A    between atoms: C_8  and  C_6 
REMARK    9  A    between atoms: C_6  and  O_13 
REMARK   10  A    between atoms: C_8  and  C_7 
REMARK   11  A    between atoms: C_7  and  O_14 
REMARK   12  A    between atoms: C_8  and  O_15 
ROOT
HETATM    1  C   UNK N   1      35.699  12.910  13.409  0.00  0.00     0.198 C 
HETATM    2  O   UNK N   1      34.898  13.440  14.422  0.00  0.00    -0.398 OA
HETATM    3  H   UNK N   1      34.398  13.854  15.143  0.00  0.00     0.209 HD
ENDROOT
BRANCH   1   4
HETATM    4  C   UNK N   1      36.252  14.012  12.507  0.00  0.00     0.173 C 
BRANCH   4   5
HETATM    5  C   UNK N   1      35.268  14.378  11.370  0.00  0.00     0.179 C 
BRANCH   5   6
HETATM    6  C   UNK N   1      35.510  15.813  10.823  0.00  0.00     0.173 C 
BRANCH   6   7
HETATM    7  C   UNK N   1      34.978  16.045   9.381  0.00  0.00     0.133 C 
BRANCH   7   8
HETATM    8  C   UNK N   1      35.193  14.844   8.459  0.00  0.00     0.191 C 
BRANCH   8   9
HETATM    9  O   UNK N   1      36.540  14.475   8.419  0.00  0.00    -0.399 OA
HETATM   10  H   UNK N   1      37.480  14.349   8.621  0.00  0.00     0.209 HD
ENDBRANCH   8   9
ENDBRANCH   7   8
BRANCH   7  11
HETATM   11  N   UNK N   1      33.533  16.319   9.417  0.00  0.00    -0.388 N 
HETATM   12  H   UNK N   1      32.897  15.866  10.074  0.00  0.00     0.156 HD
BRANCH  11  13
HETATM   13  C   UNK N   1      33.089  17.300   8.427  0.00  0.00     0.209 C 
HETATM   14  C   UNK N   1      34.212  18.287   8.189  0.00  0.00     0.062 C 
BRANCH  13  15
HETATM   15  O   UNK N   1      31.976  17.992   8.906  0.00  0.00    -0.378 OA
HETATM   16  H   UNK N   1      31.183  17.937   9.463  0.00  0.00     0.212 HD
ENDBRANCH  13  15
ENDBRANCH  11  13
ENDBRANCH   7  11
ENDBRANCH   6   7
BRANCH   6  17
HETATM   17  O   UNK N   1      36.880  16.094  10.837  0.00  0.00    -0.391 OA
HETATM   18  H   UNK N   1      37.313  16.448  11.629  0.00  0.00     0.210 HD
ENDBRANCH   6  17
ENDBRANCH   5   6
BRANCH   5  19
HETATM   19  O   UNK N   1      33.967  14.287  11.877  0.00  0.00    -0.390 OA
HETATM   20  H   UNK N   1      33.304  13.686  11.504  0.00  0.00     0.210 HD
ENDBRANCH   5  19
ENDBRANCH   4   5
BRANCH   4  21
HETATM   21  O   UNK N   1      37.479  13.595  11.985  0.00  0.00    -0.391 OA
HETATM   22  H   UNK N   1      38.322  14.041  12.157  0.00  0.00     0.210 HD
ENDBRANCH   4  21
ENDBRANCH   1   4
TORSDOF 12
ENDMDL
MODEL 5
REMARK VINA RESULT:      -4.4     15.145     16.442
REMARK  12 active torsions:
REMARK  status: ('A' for Active; 'I' for Inactive)
REMARK    1  A    between atoms: C_5  and  C_2 
REMARK    2  A    between atoms: O_10  and  C_2 
REMARK    3  A    between atoms: C_6  and  C_3 
REMARK    4  A    between atoms: N_9  and  C_4 
REMARK    5  A    between atoms: C_4  and  O_12 
REMARK    6  A    between atoms: C_7  and  C_5 
REMARK    7  A    between atoms: C_5  and  N_9 
REMARK    8  A    between atoms: C_8  and  C_6 
REMARK    9  A    between atoms: C_6  and  O_13 
REMARK   10  A    between atoms: C_8  and  C_7 
REMARK   11  A    between atoms: C_7  and  O_14 
REMARK   12  A    between atoms: C_8  and  O_15 
ROOT
HETATM    1  C   UNK N   1      35.940  14.675  12.510  0.00  0.00     0.198 C 
HETATM    2  O   UNK N   1      37.100  13.940  12.260  0.00  0.00    -0.398 OA
HETATM    3  H   UNK N   1      37.883  13.421  12.017  0.00  0.00     0.209 HD
ENDROOT
BRANCH   1   4
HETATM    4  C   UNK N   1      35.768  15.801  11.490  0.00  0.00     0.173 C 
BRANCH   4   5
HETATM    5  C   UNK N   1      34.627  15.505  10.489  0.00  0.00     0.179 C 
BRANCH   5   6
HETATM    6  C   UNK N   1      34.142  16.787   9.754  0.00  0.00     0.173 C 
BRANCH   6   7
HETATM    7  C   UNK N   1      33.509  16.523   8.359  0.00  0.00     0.133 C 
BRANCH   7   8
HETATM    8  C   UNK N   1      34.505  16.670   7.208  0.00  0.00     0.191 C 
BRANCH   8   9
HETATM    9  O   UNK N   1      34.510  17.976   6.711  0.00  0.00    -0.399 OA
HETATM   10  H   UNK N   1      34.770  18.829   6.331  0.00  0.00     0.209 HD
ENDBRANCH   8   9
ENDBRANCH   7   8
BRANCH   7  11
HETATM   11  N   UNK N   1      32.972  15.153   8.303  0.00  0.00    -0.388 N 
HETATM   12  H   UNK N   1      32.955  14.529   9.110  0.00  0.00     0.156 HD
BRANCH  11  13
HETATM   13  C   UNK N   1      32.463  14.769   6.986  0.00  0.00     0.209 C 
HETATM   14  C   UNK N   1      31.174  15.520   6.728  0.00  0.00     0.062 C 
BRANCH  13  15
HETATM   15  O   UNK N   1      32.200  13.398   6.958  0.00  0.00    -0.378 OA
HETATM   16  H   UNK N   1      31.638  12.687   7.307  0.00  0.00     0.212 HD
ENDBRANCH  13  15
ENDBRANCH  11  13
ENDBRANCH   7  11
ENDBRANCH   6   7
BRANCH   6  17
HETATM   17  O   UNK N   1      35.218  17.665   9.589  0.00  0.00    -0.391 OA
HETATM   18  H   UNK N   1      35.101  18.624   9.669  0.00  0.00     0.210 HD
ENDBRANCH   6  17
ENDBRANCH   5   6
BRANCH   5  19
HETATM   19  O   UNK N   1      33.559  14.947  11.201  0.00  0.00    -0.390 OA
HETATM   20  H   UNK N   1      33.684  14.462  12.031  0.00  0.00     0.210 HD
ENDBRANCH   5  19
ENDBRANCH   4   5
BRANCH   4  21
HETATM   21  O   UNK N   1      36.979  15.991  10.819  0.00  0.00    -0.391 OA
HETATM   22  H   UNK N   1      37.641  15.295  10.687  0.00  0.00     0.210 HD
ENDBRANCH   4  21
ENDBRANCH   1   4
TORSDOF 12
ENDMDL
MODEL 6
REMARK VINA RESULT:      -4.4     14.530     15.949
REMARK  12 active torsions:
REMARK  status: ('A' for Active; 'I' for Inactive)
REMARK    1  A    between atoms: C_5  and  C_2 
REMARK    2  A    between atoms: O_10  and  C_2 
REMARK    3  A    between atoms: C_6  and  C_3 
REMARK    4  A    between atoms: N_9  and  C_4 
REMARK    5  A    between atoms: C_4  and  O_12 
REMARK    6  A    between atoms: C_7  and  C_5 
REMARK    7  A    between atoms: C_5  and  N_9 
REMARK    8  A    between atoms: C_8  and  C_6 
REMARK    9  A    between atoms: C_6  and  O_13 
REMARK   10  A    between atoms: C_8  and  C_7 
REMARK   11  A    between atoms: C_7  and  O_14 
REMARK   12  A    between atoms: C_8  and  O_15 
ROOT
HETATM    1  C   UNK N   1      35.756  15.700  11.715  0.00  0.00     0.198 C 
HETATM    2  O   UNK N   1      36.936  15.930  11.005  0.00  0.00    -0.398 OA
HETATM    3  H   UNK N   1      37.775  16.021  10.528  0.00  0.00     0.209 HD
ENDROOT
BRANCH   1   4
HETATM    4  C   UNK N   1      35.045  14.443  11.213  0.00  0.00     0.173 C 
BRANCH   4   5
HETATM    5  C   UNK N   1      33.995  14.768  10.124  0.00  0.00     0.179 C 
BRANCH   5   6
HETATM    6  C   UNK N   1      34.488  15.867   9.141  0.00  0.00     0.173 C 
BRANCH   6   7
HETATM    7  C   UNK N   1      33.397  16.895   8.732  0.00  0.00     0.133 C 
BRANCH   7   8
HETATM    8  C   UNK N   1      33.971  18.176   8.127  0.00  0.00     0.191 C 
BRANCH   8   9
HETATM    9  O   UNK N   1      34.511  17.937   6.861  0.00  0.00    -0.399 OA
HETATM   10  H   UNK N   1      34.705  17.579   5.981  0.00  0.00     0.209 HD
ENDBRANCH   8   9
ENDBRANCH   7   8
BRANCH   7  11
HETATM   11  N   UNK N   1      32.498  16.300   7.729  0.00  0.00    -0.388 N 
HETATM   12  H   UNK N   1      32.834  15.845   6.881  0.00  0.00     0.156 HD
BRANCH  11  13
HETATM   13  C   UNK N   1      31.077  16.418   8.062  0.00  0.00     0.209 C 
HETATM   14  C   UNK N   1      30.404  17.273   7.010  0.00  0.00     0.062 C 
BRANCH  13  15
HETATM   15  O   UNK N   1      30.928  17.033   9.306  0.00  0.00    -0.378 OA
HETATM   16  H   UNK N   1      31.374  17.539  10.003  0.00  0.00     0.212 HD
ENDBRANCH  13  15
ENDBRANCH  11  13
ENDBRANCH   7  11
ENDBRANCH   6   7
BRANCH   6  17
HETATM   17  O   UNK N   1      34.982  15.265   7.979  0.00  0.00    -0.391 OA
HETATM   18  H   UNK N   1      35.338  15.796   7.250  0.00  0.00     0.210 HD
ENDBRANCH   6  17
ENDBRANCH   5   6
BRANCH   5  19
HETATM   19  O   UNK N   1      32.830  15.208  10.764  0.00  0.00    -0.390 OA
HETATM   20  H   UNK N   1      32.830  15.543  11.674  0.00  0.00     0.210 HD
ENDBRANCH   5  19
ENDBRANCH   4   5
BRANCH   4  21
HETATM   21  O   UNK N   1      34.449  13.797  12.299  0.00  0.00    -0.391 OA
HETATM   22  H   UNK N   1      34.056  14.259  13.055  0.00  0.00     0.210 HD
ENDBRANCH   4  21
ENDBRANCH   1   4
TORSDOF 12
ENDMDL
MODEL 7
REMARK VINA RESULT:      -4.4     17.562     18.729
REMARK  12 active torsions:
REMARK  status: ('A' for Active; 'I' for Inactive)
REMARK    1  A    between atoms: C_5  and  C_2 
REMARK    2  A    between atoms: O_10  and  C_2 
REMARK    3  A    between atoms: C_6  and  C_3 
REMARK    4  A    between atoms: N_9  and  C_4 
REMARK    5  A    between atoms: C_4  and  O_12 
REMARK    6  A    between atoms: C_7  and  C_5 
REMARK    7  A    between atoms: C_5  and  N_9 
REMARK    8  A    between atoms: C_8  and  C_6 
REMARK    9  A    between atoms: C_6  and  O_13 
REMARK   10  A    between atoms: C_8  and  C_7 
REMARK   11  A    between atoms: C_7  and  O_14 
REMARK   12  A    between atoms: C_8  and  O_15 
ROOT
HETATM    1  C   UNK N   1      34.767  15.749   8.175  0.00  0.00     0.198 C 
HETATM    2  O   UNK N   1      33.591  15.015   8.342  0.00  0.00    -0.398 OA
HETATM    3  H   UNK N   1      32.807  14.470   8.513  0.00  0.00     0.209 HD
ENDROOT
BRANCH   1   4
HETATM    4  C   UNK N   1      35.212  16.386   9.491  0.00  0.00     0.173 C 
BRANCH   4   5
HETATM    5  C   UNK N   1      35.937  15.373  10.409  0.00  0.00     0.179 C 
BRANCH   5   6
HETATM    6  C   UNK N   1      35.069  14.964  11.632  0.00  0.00     0.173 C 
BRANCH   6   7
HETATM    7  C   UNK N   1      35.733  13.908  12.561  0.00  0.00     0.133 C 
BRANCH   7   8
HETATM    8  C   UNK N   1      36.540  12.857  11.799  0.00  0.00     0.191 C 
BRANCH   8   9
HETATM    9  O   UNK N   1      37.886  13.221  11.714  0.00  0.00    -0.399 OA
HETATM   10  H   UNK N   1      38.720  13.675  11.519  0.00  0.00     0.209 HD
ENDBRANCH   8   9
ENDBRANCH   7   8
BRANCH   7  11
HETATM   11  N   UNK N   1      36.651  14.573  13.500  0.00  0.00    -0.388 N 
HETATM   12  H   UNK N   1      37.093  15.471  13.304  0.00  0.00     0.156 HD
BRANCH  11  13
HETATM   13  C   UNK N   1      36.871  13.831  14.742  0.00  0.00     0.209 C 
HETATM   14  C   UNK N   1      35.525  13.486  15.343  0.00  0.00     0.062 C 
BRANCH  13  15
HETATM   15  O   UNK N   1      37.581  14.618  15.649  0.00  0.00    -0.378 OA
HETATM   16  H   UNK N   1      37.673  15.504  16.035  0.00  0.00     0.212 HD
ENDBRANCH  13  15
ENDBRANCH  11  13
ENDBRANCH   7  11
ENDBRANCH   6   7
BRANCH   6  17
HETATM   17  O   UNK N   1      33.847  14.451  11.187  0.00  0.00    -0.391 OA
HETATM   18  H   UNK N   1      33.212  15.007  10.712  0.00  0.00     0.210 HD
ENDBRANCH   6  17
ENDBRANCH   5   6
BRANCH   5  19
HETATM   19  O   UNK N   1      37.122  15.967  10.858  0.00  0.00    -0.390 OA
HETATM   20  H   UNK N   1      37.321  16.905  10.716  0.00  0.00     0.210 HD
ENDBRANCH   5  19
ENDBRANCH   4   5
BRANCH   4  21
HETATM   21  O   UNK N   1      34.094  16.924  10.133  0.00  0.00    -0.391 OA
HETATM   22  H   UNK N   1      33.415  16.392  10.577  0.00  0.00     0.210 HD
ENDBRANCH   4  21
ENDBRANCH   1   4
TORSDOF 12
ENDMDL
MODEL 8
REMARK VINA RESULT:      -4.3     15.834     17.129
REMARK  12 active torsions:
REMARK  status: ('A' for Active; 'I' for Inactive)
REMARK    1  A    between atoms: C_5  and  C_2 
REMARK    2  A    between atoms: O_10  and  C_2 
REMARK    3  A    between atoms: C_6  and  C_3 
REMARK    4  A    between atoms: N_9  and  C_4 
REMARK    5  A    between atoms: C_4  and  O_12 
REMARK    6  A    between atoms: C_7  and  C_5 
REMARK    7  A    between atoms: C_5  and  N_9 
REMARK    8  A    between atoms: C_8  and  C_6 
REMARK    9  A    between atoms: C_6  and  O_13 
REMARK   10  A    between atoms: C_8  and  C_7 
REMARK   11  A    between atoms: C_7  and  O_14 
REMARK   12  A    between atoms: C_8  and  O_15 
ROOT
HETATM    1  C   UNK N   1      36.665  13.274  11.389  0.00  0.00     0.198 C 
HETATM    2  O   UNK N   1      37.287  13.545  12.609  0.00  0.00    -0.398 OA
HETATM    3  H   UNK N   1      37.721  13.804  13.437  0.00  0.00     0.209 HD
ENDROOT
BRANCH   1   4
HETATM    4  C   UNK N   1      35.431  14.154  11.191  0.00  0.00     0.173 C 
BRANCH   4   5
HETATM    5  C   UNK N   1      35.780  15.661  11.242  0.00  0.00     0.179 C 
BRANCH   5   6
HETATM    6  C   UNK N   1      34.786  16.523  10.412  0.00  0.00     0.173 C 
BRANCH   6   7
HETATM    7  C   UNK N   1      34.273  15.835   9.116  0.00  0.00     0.133 C 
BRANCH   7   8
HETATM    8  C   UNK N   1      32.804  16.135   8.816  0.00  0.00     0.191 C 
BRANCH   8   9
HETATM    9  O   UNK N   1      32.479  17.450   9.156  0.00  0.00    -0.399 OA
HETATM   10  H   UNK N   1      32.286  18.270   9.637  0.00  0.00     0.209 HD
ENDBRANCH   8   9
ENDBRANCH   7   8
BRANCH   7  11
HETATM   11  N   UNK N   1      35.060  16.293   7.960  0.00  0.00    -0.388 N 
HETATM   12  H   UNK N   1      36.037  16.577   8.030  0.00  0.00     0.156 HD
BRANCH  11  13
HETATM   13  C   UNK N   1      34.316  16.300   6.700  0.00  0.00     0.209 C 
HETATM   14  C   UNK N   1      34.945  15.293   5.762  0.00  0.00     0.062 C 
BRANCH  13  15
HETATM   15  O   UNK N   1      34.383  17.565   6.114  0.00  0.00    -0.378 OA
HETATM   16  H   UNK N   1      34.974  18.265   5.794  0.00  0.00     0.212 HD
ENDBRANCH  13  15
ENDBRANCH  11  13
ENDBRANCH   7  11
ENDBRANCH   6   7
BRANCH   6  17
HETATM   17  O   UNK N   1      35.398  17.729  10.057  0.00  0.00    -0.391 OA
HETATM   18  H   UNK N   1      36.010  18.179  10.659  0.00  0.00     0.210 HD
ENDBRANCH   6  17
ENDBRANCH   5   6
BRANCH   5  19
HETATM   19  O   UNK N   1      37.073  15.824  10.732  0.00  0.00    -0.390 OA
HETATM   20  H   UNK N   1      37.390  16.669  10.376  0.00  0.00     0.210 HD
ENDBRANCH   5  19
ENDBRANCH   4   5
BRANCH   4  21
HETATM   21  O   UNK N   1      34.485  13.832  12.167  0.00  0.00    -0.391 OA
HETATM   22  H   UNK N   1      33.757  14.416  12.431  0.00  0.00     0.210 HD
ENDBRANCH   4  21
ENDBRANCH   1   4
TORSDOF 12
ENDMDL
MODEL 9
REMARK VINA RESULT:      -4.1     18.118     19.472
REMARK  12 active torsions:
REMARK  status: ('A' for Active; 'I' for Inactive)
REMARK    1  A    between atoms: C_5  and  C_2 
REMARK    2  A    between atoms: O_10  and  C_2 
REMARK    3  A    between atoms: C_6  and  C_3 
REMARK    4  A    between atoms: N_9  and  C_4 
REMARK    5  A    between atoms: C_4  and  O_12 
REMARK    6  A    between atoms: C_7  and  C_5 
REMARK    7  A    between atoms: C_5  and  N_9 
REMARK    8  A    between atoms: C_8  and  C_6 
REMARK    9  A    between atoms: C_6  and  O_13 
REMARK   10  A    between atoms: C_8  and  C_7 
REMARK   11  A    between atoms: C_7  and  O_14 
REMARK   12  A    between atoms: C_8  and  O_15 
ROOT
HETATM    1  C   UNK N   1      35.741  13.189  16.153  0.00  0.00     0.198 C 
HETATM    2  O   UNK N   1      34.418  13.150  15.709  0.00  0.00    -0.398 OA
HETATM    3  H   UNK N   1      33.507  13.192  15.377  0.00  0.00     0.209 HD
ENDROOT
BRANCH   1   4
HETATM    4  C   UNK N   1      36.686  13.632  15.036  0.00  0.00     0.173 C 
BRANCH   4   5
HETATM    5  C   UNK N   1      35.918  14.221  13.828  0.00  0.00     0.179 C 
BRANCH   5   6
HETATM    6  C   UNK N   1      35.718  13.176  12.694  0.00  0.00     0.173 C 
BRANCH   6   7
HETATM    7  C   UNK N   1      36.009  13.719  11.267  0.00  0.00     0.133 C 
BRANCH   7   8
HETATM    8  C   UNK N   1      37.189  13.024  10.586  0.00  0.00     0.191 C 
BRANCH   8   9
HETATM    9  O   UNK N   1      38.391  13.329  11.229  0.00  0.00    -0.399 OA
HETATM   10  H   UNK N   1      39.082  13.739  11.772  0.00  0.00     0.209 HD
ENDBRANCH   8   9
ENDBRANCH   7   8
BRANCH   7  11
HETATM   11  N   UNK N   1      34.830  13.527  10.407  0.00  0.00    -0.388 N 
HETATM   12  H   UNK N   1      34.555  12.617  10.035  0.00  0.00     0.156 HD
BRANCH  11  13
HETATM   13  C   UNK N   1      34.085  14.757  10.137  0.00  0.00     0.209 C 
HETATM   14  C   UNK N   1      35.054  15.920  10.146  0.00  0.00     0.062 C 
BRANCH  13  15
HETATM   15  O   UNK N   1      33.126  14.962  11.131  0.00  0.00    -0.378 OA
HETATM   16  H   UNK N   1      32.395  14.561  11.627  0.00  0.00     0.212 HD
ENDBRANCH  13  15
ENDBRANCH  11  13
ENDBRANCH   7  11
ENDBRANCH   6   7
BRANCH   6  17
HETATM   17  O   UNK N   1      34.404  12.701  12.724  0.00  0.00    -0.391 OA
HETATM   18  H   UNK N   1      33.735  13.105  13.298  0.00  0.00     0.210 HD
ENDBRANCH   6  17
ENDBRANCH   5   6
BRANCH   5  19
HETATM   19  O   UNK N   1      36.652  15.306  13.335  0.00  0.00    -0.390 OA
HETATM   20  H   UNK N   1      36.319  16.216  13.365  0.00  0.00     0.210 HD
ENDBRANCH   5  19
ENDBRANCH   4   5
BRANCH   4  21
HETATM   21  O   UNK N   1      37.464  12.540  14.644  0.00  0.00    -0.391 OA
HETATM   22  H   UNK N   1      38.395  12.605  14.382  0.00  0.00     0.210 HD
ENDBRANCH   4  21
ENDBRANCH   1   4
TORSDOF 12
ENDMDL
