MODEL 1
REMARK VINA RESULT:      -7.4      0.000      0.000
REMARK  17 active torsions:
REMARK  status: ('A' for Active; 'I' for Inactive)
REMARK    1  A    between atoms: C_7  and  C_3 
REMARK    2  A    between atoms: O_41  and  C_3 
REMARK    3  A    between atoms: N_25  and  C_6 
REMARK    4  A    between atoms: N_26  and  C_8 
REMARK    5  A    between atoms: N_27  and  C_9 
REMARK    6  A    between atoms: N_17  and  C_13 
REMARK    7  A    between atoms: C_15  and  N_24 
REMARK    8  A    between atoms: O_28  and  N_25 
REMARK    9  A    between atoms: P_47  and  O_34 
REMARK   10  A    between atoms: P_47  and  O_35 
REMARK   11  A    between atoms: P_48  and  O_37 
REMARK   12  A    between atoms: P_49  and  O_39 
REMARK   13  A    between atoms: P_48  and  O_41 
REMARK   14  A    between atoms: P_47  and  O_45 
REMARK   15  A    between atoms: P_49  and  O_45 
REMARK   16  A    between atoms: P_48  and  O_46 
REMARK   17  A    between atoms: P_49  and  O_46 
ROOT
HETATM    1  C   UNK N   1      23.338  19.900   3.331  0.00  0.00     0.073 C 
HETATM    2  C   UNK N   1      21.555  18.161   3.188  0.00  0.00     0.073 C 
HETATM    3  C   UNK N   1      21.947  19.563   3.101  0.00  0.00     0.099 C 
HETATM    4  C   UNK N   1      24.856  15.290   6.356  0.00  0.00     0.180 C 
HETATM    5  C   UNK N   1      24.214  19.021   3.813  0.00  0.00     0.151 C 
HETATM    6  C   UNK N   1      22.354  17.200   3.688  0.00  0.00     0.151 C 
HETATM    7  C   UNK N   1      24.966  16.810   5.978  0.00  0.00     0.190 C 
HETATM    8  C   UNK N   1      25.797  16.738   4.742  0.00  0.00     0.207 C 
HETATM    9  C   UNK N   1      26.754  15.590   5.144  0.00  0.00     0.262 C 
HETATM   10  C   UNK N   1      23.800  17.549   4.215  0.00  0.00     0.267 C 
HETATM   11  O   UNK N   1      26.185  14.876   6.220  0.00  0.00    -0.353 OA
HETATM   12  O   UNK N   1      23.767  17.454   5.630  0.00  0.00    -0.334 OA
HETATM   13  O   UNK N   1      24.792  16.611   3.745  0.00  0.00    -0.332 OA
ENDROOT
BRANCH   4  14
HETATM   14  C   UNK N   1      24.118  13.938   6.306  0.00  0.00     0.215 C 
BRANCH  14  15
HETATM   15  O   UNK N   1      23.150  13.885   7.349  0.00  0.00    -0.294 OA
BRANCH  15  16
HETATM   16  P   UNK N   1      21.809  12.959   6.784  0.00  0.00     0.401 P 
HETATM   17  O   UNK N   1      22.012  11.563   7.432  0.00  0.00    -0.631 OA
BRANCH  16  18
HETATM   18  O   UNK N   1      21.832  12.702   5.069  0.00  0.00    -0.307 OA
HETATM   19  H   UNK N   1      21.418  13.141   4.310  0.00  0.00     0.222 HD
ENDBRANCH  16  18
BRANCH  16  20
HETATM   20  O   UNK N   1      20.327  13.527   7.474  0.00  0.00    -0.195 OA
BRANCH  20  21
HETATM   21  P   UNK N   1      20.612  14.394   8.964  0.00  0.00     0.410 P 
HETATM   22  O   UNK N   1      19.317  14.240   9.815  0.00  0.00    -0.631 OA
BRANCH  21  23
HETATM   23  O   UNK N   1      21.773  13.456   9.807  0.00  0.00    -0.307 OA
HETATM   24  H   UNK N   1      22.166  12.603  10.047  0.00  0.00     0.222 HD
ENDBRANCH  21  23
BRANCH  21  25
HETATM   25  O   UNK N   1      21.235  16.038   9.021  0.00  0.00    -0.195 OA
BRANCH  25  26
HETATM   26  P   UNK N   1      20.205  17.035   8.009  0.00  0.00     0.399 P 
HETATM   27  O   UNK N   1      19.394  18.036   8.883  0.00  0.00    -0.631 OA
BRANCH  26  28
HETATM   28  O   UNK N   1      19.069  16.025   7.177  0.00  0.00    -0.307 OA
HETATM   29  H   UNK N   1      19.150  15.088   6.941  0.00  0.00     0.222 HD
ENDBRANCH  26  28
BRANCH  26  30
HETATM   30  O   UNK N   1      21.107  17.997   6.878  0.00  0.00    -0.307 OA
HETATM   31  H   UNK N   1      21.684  18.727   7.149  0.00  0.00     0.222 HD
ENDBRANCH  26  30
ENDBRANCH  25  26
ENDBRANCH  21  25
ENDBRANCH  20  21
ENDBRANCH  16  20
ENDBRANCH  15  16
ENDBRANCH  14  15
ENDBRANCH   4  14
BRANCH   9  32
HETATM   32  N   UNK N   1      28.023  16.129   5.664  0.00  0.00    -0.297 N 
HETATM   33  C   UNK N   1      29.215  16.291   5.020  0.00  0.00     0.188 A 
HETATM   34  N   UNK N   1      30.146  16.866   5.826  0.00  0.00    -0.346 N 
HETATM   35  C   UNK N   1      29.499  17.067   6.986  0.00  0.00     0.122 A 
ATOM     36  HN  UNK N   1      31.114  17.094   5.601  1.00  0.00     0.167 HD
HETATM   37  C   UNK N   1      29.947  17.638   8.160  0.00  0.00     0.131 A 
HETATM   38  C   UNK N   1      28.231  16.623   6.889  0.00  0.00     0.142 A 
HETATM   39  N   UNK N   1      29.067  17.738   9.200  0.00  0.00    -0.337 N 
HETATM   40  C   UNK N   1      27.775  17.283   9.080  0.00  0.00     0.183 A 
ATOM     41  HN  UNK N   1      29.374  18.156  10.079  1.00  0.00     0.168 HD
HETATM   42  N   UNK N   1      27.345  16.718   7.909  0.00  0.00    -0.336 N 
ATOM     43  HN  UNK N   1      26.388  16.378   7.809  1.00  0.00     0.168 HD
BRANCH  37  44
HETATM   44  N   UNK N   1      31.268  18.115   8.282  0.00  0.00    -0.383 N 
HETATM   45  H   UNK N   1      31.859  18.277   7.511  0.00  0.00     0.157 HD
HETATM   46  H   UNK N   1      31.618  18.293   9.185  0.00  0.00     0.157 HD
ENDBRANCH  37  44
ENDBRANCH   9  32
BRANCH   5  47
HETATM   47  N   UNK N   1      25.518  19.531   4.049  0.00  0.00    -0.114 N 
HETATM   48  O   UNK N   1      26.225  19.735   3.107  0.00  0.00    -0.532 OA
HETATM   49  O   UNK N   1      25.721  20.137   5.058  0.00  0.00    -0.532 OA
ENDBRANCH   5  47
BRANCH   6  50
HETATM   50  N   UNK N   1      21.759  15.903   3.842  0.00  0.00    -0.114 N 
HETATM   51  O   UNK N   1      22.118  14.986   3.192  0.00  0.00    -0.532 OA
HETATM   52  O   UNK N   1      20.995  15.704   4.748  0.00  0.00    -0.532 OA
ENDBRANCH   6  50
BRANCH   3  53
HETATM   53  N   UNK N   1      21.071  20.497   2.899  0.00  0.00    -0.123 N 
HETATM   54  O   UNK N   1      19.908  20.239   2.864  0.00  0.00    -0.538 OA
BRANCH  53  55
HETATM   55  O   UNK N   1      21.464  21.735   2.673  0.00  0.00    -0.257 OA
HETATM   56  H   UNK N   1      20.831  22.424   2.622  0.00  0.00     0.248 HD
ENDBRANCH  53  55
ENDBRANCH   3  53
TORSDOF 17
ENDMDL
MODEL 2
REMARK VINA RESULT:      -7.4      7.559     10.810
REMARK  17 active torsions:
REMARK  status: ('A' for Active; 'I' for Inactive)
REMARK    1  A    between atoms: C_7  and  C_3 
REMARK    2  A    between atoms: O_41  and  C_3 
REMARK    3  A    between atoms: N_25  and  C_6 
REMARK    4  A    between atoms: N_26  and  C_8 
REMARK    5  A    between atoms: N_27  and  C_9 
REMARK    6  A    between atoms: N_17  and  C_13 
REMARK    7  A    between atoms: C_15  and  N_24 
REMARK    8  A    between atoms: O_28  and  N_25 
REMARK    9  A    between atoms: P_47  and  O_34 
REMARK   10  A    between atoms: P_47  and  O_35 
REMARK   11  A    between atoms: P_48  and  O_37 
REMARK   12  A    between atoms: P_49  and  O_39 
REMARK   13  A    between atoms: P_48  and  O_41 
REMARK   14  A    between atoms: P_47  and  O_45 
REMARK   15  A    between atoms: P_49  and  O_45 
REMARK   16  A    between atoms: P_48  and  O_46 
REMARK   17  A    between atoms: P_49  and  O_46 
ROOT
HETATM    1  C   UNK N   1      28.631  17.253   5.119  0.00  0.00     0.073 C 
HETATM    2  C   UNK N   1      29.465  17.646   7.437  0.00  0.00     0.073 C 
HETATM    3  C   UNK N   1      28.507  17.955   6.381  0.00  0.00     0.099 C 
HETATM    4  C   UNK N   1      34.138  15.760   5.491  0.00  0.00     0.180 C 
HETATM    5  C   UNK N   1      29.688  16.503   4.821  0.00  0.00     0.151 C 
HETATM    6  C   UNK N   1      30.583  16.923   7.233  0.00  0.00     0.151 C 
HETATM    7  C   UNK N   1      32.852  16.161   4.685  0.00  0.00     0.190 C 
HETATM    8  C   UNK N   1      32.113  14.867   4.662  0.00  0.00     0.207 C 
HETATM    9  C   UNK N   1      33.306  13.895   4.497  0.00  0.00     0.262 C 
HETATM   10  C   UNK N   1      30.920  16.351   5.801  0.00  0.00     0.267 C 
HETATM   11  O   UNK N   1      34.494  14.563   4.863  0.00  0.00    -0.353 OA
HETATM   12  O   UNK N   1      32.007  17.107   5.291  0.00  0.00    -0.334 OA
HETATM   13  O   UNK N   1      31.343  14.971   5.852  0.00  0.00    -0.332 OA
ENDROOT
BRANCH   4  14
HETATM   14  C   UNK N   1      34.918  15.643   6.816  0.00  0.00     0.215 C 
BRANCH  14  15
HETATM   15  O   UNK N   1      34.171  14.857   7.740  0.00  0.00    -0.294 OA
BRANCH  15  16
HETATM   16  P   UNK N   1      35.287  13.980   8.718  0.00  0.00     0.401 P 
HETATM   17  O   UNK N   1      36.200  13.253   7.693  0.00  0.00    -0.631 OA
BRANCH  16  18
HETATM   18  O   UNK N   1      34.536  12.735   9.662  0.00  0.00    -0.307 OA
HETATM   19  H   UNK N   1      33.706  12.239   9.595  0.00  0.00     0.222 HD
ENDBRANCH  16  18
BRANCH  16  20
HETATM   20  O   UNK N   1      36.364  15.053   9.546  0.00  0.00    -0.195 OA
BRANCH  20  21
HETATM   21  P   UNK N   1      35.513  16.019  10.727  0.00  0.00     0.410 P 
HETATM   22  O   UNK N   1      35.584  17.490  10.223  0.00  0.00    -0.631 OA
BRANCH  21  23
HETATM   23  O   UNK N   1      33.862  15.598  10.536  0.00  0.00    -0.307 OA
HETATM   24  H   UNK N   1      33.029  15.621  10.039  0.00  0.00     0.222 HD
ENDBRANCH  21  23
BRANCH  21  25
HETATM   25  O   UNK N   1      35.807  15.909  12.458  0.00  0.00    -0.195 OA
BRANCH  25  26
HETATM   26  P   UNK N   1      35.963  14.210  12.867  0.00  0.00     0.399 P 
HETATM   27  O   UNK N   1      36.221  14.043  14.393  0.00  0.00    -0.631 OA
BRANCH  26  28
HETATM   28  O   UNK N   1      37.326  13.543  12.028  0.00  0.00    -0.307 OA
HETATM   29  H   UNK N   1      37.395  12.698  11.560  0.00  0.00     0.222 HD
ENDBRANCH  26  28
BRANCH  26  30
HETATM   30  O   UNK N   1      34.526  13.301  12.513  0.00  0.00    -0.307 OA
HETATM   31  H   UNK N   1      33.682  13.452  12.966  0.00  0.00     0.222 HD
ENDBRANCH  26  30
ENDBRANCH  25  26
ENDBRANCH  21  25
ENDBRANCH  20  21
ENDBRANCH  16  20
ENDBRANCH  15  16
ENDBRANCH  14  15
ENDBRANCH   4  14
BRANCH   9  32
HETATM   32  N   UNK N   1      33.487  13.529   3.081  0.00  0.00    -0.297 N 
HETATM   33  C   UNK N   1      34.596  13.654   2.298  0.00  0.00     0.188 A 
HETATM   34  N   UNK N   1      34.386  13.161   1.048  0.00  0.00    -0.346 N 
HETATM   35  C   UNK N   1      33.118  12.718   1.079  0.00  0.00     0.122 A 
ATOM     36  HN  UNK N   1      35.040  13.133   0.267  1.00  0.00     0.167 HD
HETATM   37  C   UNK N   1      32.374  12.101   0.092  0.00  0.00     0.131 A 
HETATM   38  C   UNK N   1      32.581  12.941   2.294  0.00  0.00     0.142 A 
HETATM   39  N   UNK N   1      31.094  11.730   0.393  0.00  0.00    -0.337 N 
HETATM   40  C   UNK N   1      30.565  11.963   1.642  0.00  0.00     0.183 A 
ATOM     41  HN  UNK N   1      30.523  11.273  -0.317  1.00  0.00     0.168 HD
HETATM   42  N   UNK N   1      31.315  12.576   2.609  0.00  0.00    -0.336 N 
ATOM     43  HN  UNK N   1      30.932  12.752   3.539  1.00  0.00     0.168 HD
BRANCH  37  44
HETATM   44  N   UNK N   1      32.918  11.852  -1.184  0.00  0.00    -0.383 N 
HETATM   45  H   UNK N   1      33.096  10.948  -1.530  0.00  0.00     0.157 HD
HETATM   46  H   UNK N   1      33.130  12.622  -1.759  0.00  0.00     0.157 HD
ENDBRANCH  37  44
ENDBRANCH   9  32
BRANCH   5  47
HETATM   47  N   UNK N   1      29.688  15.944   3.515  0.00  0.00    -0.114 N 
HETATM   48  O   UNK N   1      29.073  14.935   3.332  0.00  0.00    -0.532 OA
HETATM   49  O   UNK N   1      29.896  16.663   2.585  0.00  0.00    -0.532 OA
ENDBRANCH   5  47
BRANCH   6  50
HETATM   50  N   UNK N   1      31.492  16.842   8.339  0.00  0.00    -0.114 N 
HETATM   51  O   UNK N   1      31.442  15.945   9.106  0.00  0.00    -0.532 OA
HETATM   52  O   UNK N   1      32.415  17.608   8.407  0.00  0.00    -0.532 OA
ENDBRANCH   6  50
BRANCH   3  53
HETATM   53  N   UNK N   1      27.615  18.882   6.532  0.00  0.00    -0.123 N 
HETATM   54  O   UNK N   1      27.833  19.827   7.226  0.00  0.00    -0.538 OA
BRANCH  53  55
HETATM   55  O   UNK N   1      26.432  18.762   5.962  0.00  0.00    -0.257 OA
HETATM   56  H   UNK N   1      25.889  18.025   6.162  0.00  0.00     0.248 HD
ENDBRANCH  53  55
ENDBRANCH   3  53
TORSDOF 17
ENDMDL
MODEL 3
REMARK VINA RESULT:      -7.4      3.278      7.161
REMARK  17 active torsions:
REMARK  status: ('A' for Active; 'I' for Inactive)
REMARK    1  A    between atoms: C_7  and  C_3 
REMARK    2  A    between atoms: O_41  and  C_3 
REMARK    3  A    between atoms: N_25  and  C_6 
REMARK    4  A    between atoms: N_26  and  C_8 
REMARK    5  A    between atoms: N_27  and  C_9 
REMARK    6  A    between atoms: N_17  and  C_13 
REMARK    7  A    between atoms: C_15  and  N_24 
REMARK    8  A    between atoms: O_28  and  N_25 
REMARK    9  A    between atoms: P_47  and  O_34 
REMARK   10  A    between atoms: P_47  and  O_35 
REMARK   11  A    between atoms: P_48  and  O_37 
REMARK   12  A    between atoms: P_49  and  O_39 
REMARK   13  A    between atoms: P_48  and  O_41 
REMARK   14  A    between atoms: P_47  and  O_45 
REMARK   15  A    between atoms: P_49  and  O_45 
REMARK   16  A    between atoms: P_48  and  O_46 
REMARK   17  A    between atoms: P_49  and  O_46 
ROOT
HETATM    1  C   UNK N   1      23.041  12.873   9.165  0.00  0.00     0.073 C 
HETATM    2  C   UNK N   1      20.967  14.215   9.510  0.00  0.00     0.073 C 
HETATM    3  C   UNK N   1      21.832  13.117   9.926  0.00  0.00     0.099 C 
HETATM    4  C   UNK N   1      21.507  15.391   4.265  0.00  0.00     0.180 C 
HETATM    5  C   UNK N   1      23.284  13.470   8.001  0.00  0.00     0.151 C 
HETATM    6  C   UNK N   1      21.108  14.864   8.338  0.00  0.00     0.151 C 
HETATM    7  C   UNK N   1      22.288  14.311   5.094  0.00  0.00     0.190 C 
HETATM    8  C   UNK N   1      23.452  15.108   5.577  0.00  0.00     0.207 C 
HETATM    9  C   UNK N   1      23.699  15.983   4.325  0.00  0.00     0.262 C 
HETATM   10  C   UNK N   1      22.252  14.462   7.329  0.00  0.00     0.267 C 
HETATM   11  O   UNK N   1      22.541  15.965   3.519  0.00  0.00    -0.353 OA
HETATM   12  O   UNK N   1      21.635  13.806   6.231  0.00  0.00    -0.334 OA
HETATM   13  O   UNK N   1      22.945  15.615   6.804  0.00  0.00    -0.332 OA
ENDROOT
BRANCH   4  14
HETATM   14  C   UNK N   1      20.420  16.478   4.151  0.00  0.00     0.215 C 
BRANCH  14  15
HETATM   15  O   UNK N   1      19.959  16.551   2.805  0.00  0.00    -0.294 OA
BRANCH  15  16
HETATM   16  P   UNK N   1      20.260  18.147   2.226  0.00  0.00     0.401 P 
HETATM   17  O   UNK N   1      19.029  18.964   2.707  0.00  0.00    -0.631 OA
BRANCH  16  18
HETATM   18  O   UNK N   1      20.263  18.255   0.495  0.00  0.00    -0.307 OA
HETATM   19  H   UNK N   1      20.956  18.289  -0.182  0.00  0.00     0.222 HD
ENDBRANCH  16  18
BRANCH  16  20
HETATM   20  O   UNK N   1      21.592  18.871   3.062  0.00  0.00    -0.195 OA
BRANCH  20  21
HETATM   21  P   UNK N   1      21.837  20.524   2.552  0.00  0.00     0.410 P 
HETATM   22  O   UNK N   1      21.694  20.529   1.002  0.00  0.00    -0.631 OA
BRANCH  21  23
HETATM   23  O   UNK N   1      20.447  21.367   3.097  0.00  0.00    -0.307 OA
HETATM   24  H   UNK N   1      19.713  21.485   3.720  0.00  0.00     0.222 HD
ENDBRANCH  21  23
BRANCH  21  25
HETATM   25  O   UNK N   1      23.195  21.507   3.083  0.00  0.00    -0.195 OA
BRANCH  25  26
HETATM   26  P   UNK N   1      24.600  20.462   3.194  0.00  0.00     0.399 P 
HETATM   27  O   UNK N   1      25.292  20.630   4.578  0.00  0.00    -0.631 OA
BRANCH  26  28
HETATM   28  O   UNK N   1      25.748  20.916   1.976  0.00  0.00    -0.307 OA
HETATM   29  H   UNK N   1      25.633  21.524   1.231  0.00  0.00     0.222 HD
ENDBRANCH  26  28
BRANCH  26  30
HETATM   30  O   UNK N   1      24.196  18.779   3.053  0.00  0.00    -0.307 OA
HETATM   31  H   UNK N   1      24.079  18.334   2.200  0.00  0.00     0.222 HD
ENDBRANCH  26  30
ENDBRANCH  25  26
ENDBRANCH  21  25
ENDBRANCH  20  21
ENDBRANCH  16  20
ENDBRANCH  15  16
ENDBRANCH  14  15
ENDBRANCH   4  14
BRANCH   9  32
HETATM   32  N   UNK N   1      24.764  15.404   3.487  0.00  0.00    -0.297 N 
HETATM   33  C   UNK N   1      24.655  14.536   2.440  0.00  0.00     0.188 A 
HETATM   34  N   UNK N   1      25.866  14.264   1.886  0.00  0.00    -0.346 N 
HETATM   35  C   UNK N   1      26.731  14.992   2.613  0.00  0.00     0.122 A 
ATOM     36  HN  UNK N   1      26.071  13.648   1.101  1.00  0.00     0.167 HD
HETATM   37  C   UNK N   1      28.100  15.120   2.487  0.00  0.00     0.131 A 
HETATM   38  C   UNK N   1      26.071  15.671   3.571  0.00  0.00     0.142 A 
HETATM   39  N   UNK N   1      28.747  15.951   3.357  0.00  0.00    -0.337 N 
HETATM   40  C   UNK N   1      28.055  16.638   4.327  0.00  0.00     0.183 A 
ATOM     41  HN  UNK N   1      29.758  16.063   3.287  1.00  0.00     0.168 HD
HETATM   42  N   UNK N   1      26.697  16.501   4.439  0.00  0.00    -0.336 N 
ATOM     43  HN  UNK N   1      26.174  17.008   5.153  1.00  0.00     0.168 HD
BRANCH  37  44
HETATM   44  N   UNK N   1      28.810  14.424   1.488  0.00  0.00    -0.383 N 
HETATM   45  H   UNK N   1      28.625  14.520   0.526  0.00  0.00     0.157 HD
HETATM   46  H   UNK N   1      29.528  13.811   1.767  0.00  0.00     0.157 HD
ENDBRANCH  37  44
ENDBRANCH   9  32
BRANCH   5  47
HETATM   47  N   UNK N   1      24.479  13.066   7.349  0.00  0.00    -0.114 N 
HETATM   48  O   UNK N   1      25.513  13.539   7.718  0.00  0.00    -0.532 OA
HETATM   49  O   UNK N   1      24.500  12.008   6.797  0.00  0.00    -0.532 OA
ENDBRANCH   5  47
BRANCH   6  50
HETATM   50  N   UNK N   1      20.082  15.814   8.017  0.00  0.00    -0.114 N 
HETATM   51  O   UNK N   1      19.169  15.518   7.329  0.00  0.00    -0.532 OA
HETATM   52  O   UNK N   1      20.063  16.879   8.573  0.00  0.00    -0.532 OA
ENDBRANCH   6  50
BRANCH   3  53
HETATM   53  N   UNK N   1      21.499  12.329  10.899  0.00  0.00    -0.123 N 
HETATM   54  O   UNK N   1      20.423  12.413  11.406  0.00  0.00    -0.538 OA
BRANCH  53  55
HETATM   55  O   UNK N   1      22.371  11.463  11.376  0.00  0.00    -0.257 OA
HETATM   56  H   UNK N   1      22.073  10.718  11.861  0.00  0.00     0.248 HD
ENDBRANCH  53  55
ENDBRANCH   3  53
TORSDOF 17
ENDMDL
MODEL 4
REMARK VINA RESULT:      -7.2      3.927      6.610
REMARK  17 active torsions:
REMARK  status: ('A' for Active; 'I' for Inactive)
REMARK    1  A    between atoms: C_7  and  C_3 
REMARK    2  A    between atoms: O_41  and  C_3 
REMARK    3  A    between atoms: N_25  and  C_6 
REMARK    4  A    between atoms: N_26  and  C_8 
REMARK    5  A    between atoms: N_27  and  C_9 
REMARK    6  A    between atoms: N_17  and  C_13 
REMARK    7  A    between atoms: C_15  and  N_24 
REMARK    8  A    between atoms: O_28  and  N_25 
REMARK    9  A    between atoms: P_47  and  O_34 
REMARK   10  A    between atoms: P_47  and  O_35 
REMARK   11  A    between atoms: P_48  and  O_37 
REMARK   12  A    between atoms: P_49  and  O_39 
REMARK   13  A    between atoms: P_48  and  O_41 
REMARK   14  A    between atoms: P_47  and  O_45 
REMARK   15  A    between atoms: P_49  and  O_45 
REMARK   16  A    between atoms: P_48  and  O_46 
REMARK   17  A    between atoms: P_49  and  O_46 
ROOT
HETATM    1  C   UNK N   1      21.544  18.991   4.652  0.00  0.00     0.073 C 
HETATM    2  C   UNK N   1      23.565  18.877   3.194  0.00  0.00     0.073 C 
HETATM    3  C   UNK N   1      22.257  19.456   3.479  0.00  0.00     0.099 C 
HETATM    4  C   UNK N   1      24.129  13.930   5.291  0.00  0.00     0.180 C 
HETATM    5  C   UNK N   1      21.937  17.930   5.352  0.00  0.00     0.151 C 
HETATM    6  C   UNK N   1      24.043  17.785   3.823  0.00  0.00     0.151 C 
HETATM    7  C   UNK N   1      22.894  14.892   5.414  0.00  0.00     0.190 C 
HETATM    8  C   UNK N   1      23.244  15.651   6.648  0.00  0.00     0.207 C 
HETATM    9  C   UNK N   1      23.889  14.512   7.474  0.00  0.00     0.262 C 
HETATM   10  C   UNK N   1      23.190  17.060   4.935  0.00  0.00     0.267 C 
HETATM   11  O   UNK N   1      24.241  13.459   6.603  0.00  0.00    -0.353 OA
HETATM   12  O   UNK N   1      22.734  15.834   4.384  0.00  0.00    -0.334 OA
HETATM   13  O   UNK N   1      23.978  16.738   6.101  0.00  0.00    -0.332 OA
ENDROOT
BRANCH   4  14
HETATM   14  C   UNK N   1      25.526  13.593   4.734  0.00  0.00     0.215 C 
BRANCH  14  15
HETATM   15  O   UNK N   1      26.467  14.560   5.192  0.00  0.00    -0.294 OA
BRANCH  15  16
HETATM   16  P   UNK N   1      27.938  14.321   4.326  0.00  0.00     0.401 P 
HETATM   17  O   UNK N   1      27.492  13.666   2.991  0.00  0.00    -0.631 OA
BRANCH  16  18
HETATM   18  O   UNK N   1      29.002  13.183   5.089  0.00  0.00    -0.307 OA
HETATM   19  H   UNK N   1      29.771  13.258   5.673  0.00  0.00     0.222 HD
ENDBRANCH  16  18
BRANCH  16  20
HETATM   20  O   UNK N   1      28.625  15.834   3.838  0.00  0.00    -0.195 OA
BRANCH  20  21
HETATM   21  P   UNK N   1      29.858  16.361   4.958  0.00  0.00     0.410 P 
HETATM   22  O   UNK N   1      30.981  15.283   4.912  0.00  0.00    -0.631 OA
BRANCH  21  23
HETATM   23  O   UNK N   1      30.572  17.732   4.217  0.00  0.00    -0.307 OA
HETATM   24  H   UNK N   1      30.624  18.381   3.499  0.00  0.00     0.222 HD
ENDBRANCH  21  23
BRANCH  21  25
HETATM   25  O   UNK N   1      29.512  16.870   6.605  0.00  0.00    -0.195 OA
BRANCH  25  26
HETATM   26  P   UNK N   1      28.179  18.008   6.545  0.00  0.00     0.399 P 
HETATM   27  O   UNK N   1      28.155  18.883   7.832  0.00  0.00    -0.631 OA
BRANCH  26  28
HETATM   28  O   UNK N   1      26.683  17.134   6.477  0.00  0.00    -0.307 OA
HETATM   29  H   UNK N   1      25.901  17.313   5.934  0.00  0.00     0.222 HD
ENDBRANCH  26  28
BRANCH  26  30
HETATM   30  O   UNK N   1      28.301  19.112   5.209  0.00  0.00    -0.307 OA
HETATM   31  H   UNK N   1      28.428  18.820   4.293  0.00  0.00     0.222 HD
ENDBRANCH  26  30
ENDBRANCH  25  26
ENDBRANCH  21  25
ENDBRANCH  20  21
ENDBRANCH  16  20
ENDBRANCH  15  16
ENDBRANCH  14  15
ENDBRANCH   4  14
BRANCH   9  32
HETATM   32  N   UNK N   1      22.911  13.931   8.410  0.00  0.00    -0.297 N 
HETATM   33  C   UNK N   1      21.550  13.909   8.326  0.00  0.00     0.188 A 
HETATM   34  N   UNK N   1      20.993  13.236   9.367  0.00  0.00    -0.346 N 
HETATM   35  C   UNK N   1      22.046  12.832  10.098  0.00  0.00     0.122 A 
ATOM     36  HN  UNK N   1      20.004  13.075   9.551  1.00  0.00     0.167 HD
HETATM   37  C   UNK N   1      22.080  12.090  11.262  0.00  0.00     0.131 A 
HETATM   38  C   UNK N   1      23.192  13.250   9.527  0.00  0.00     0.142 A 
HETATM   39  N   UNK N   1      23.301  11.798  11.800  0.00  0.00    -0.337 N 
HETATM   40  C   UNK N   1      24.460  12.232  11.199  0.00  0.00     0.183 A 
ATOM     41  HN  UNK N   1      23.354  11.252  12.659  1.00  0.00     0.168 HD
HETATM   42  N   UNK N   1      24.411  12.967  10.045  0.00  0.00    -0.336 N 
ATOM     43  HN  UNK N   1      25.265  13.292   9.591  1.00  0.00     0.168 HD
BRANCH  37  44
HETATM   44  N   UNK N   1      20.894  11.637  11.874  0.00  0.00    -0.383 N 
HETATM   45  H   UNK N   1      20.247  12.236  12.312  0.00  0.00     0.157 HD
HETATM   46  H   UNK N   1      20.703  10.671  11.863  0.00  0.00     0.157 HD
ENDBRANCH  37  44
ENDBRANCH   9  32
BRANCH   5  47
HETATM   47  N   UNK N   1      21.087  17.563   6.428  0.00  0.00    -0.114 N 
HETATM   48  O   UNK N   1      21.018  18.297   7.370  0.00  0.00    -0.532 OA
HETATM   49  O   UNK N   1      20.173  16.826   6.211  0.00  0.00    -0.532 OA
ENDBRANCH   5  47
BRANCH   6  50
HETATM   50  N   UNK N   1      25.277  17.257   3.318  0.00  0.00    -0.114 N 
HETATM   51  O   UNK N   1      25.294  16.311   2.612  0.00  0.00    -0.532 OA
HETATM   52  O   UNK N   1      26.298  17.870   3.485  0.00  0.00    -0.532 OA
ENDBRANCH   6  50
BRANCH   3  53
HETATM   53  N   UNK N   1      21.707  20.306   2.671  0.00  0.00    -0.123 N 
HETATM   54  O   UNK N   1      20.958  19.937   1.820  0.00  0.00    -0.538 OA
BRANCH  53  55
HETATM   55  O   UNK N   1      22.015  21.586   2.747  0.00  0.00    -0.257 OA
HETATM   56  H   UNK N   1      22.880  21.845   2.997  0.00  0.00     0.248 HD
ENDBRANCH  53  55
ENDBRANCH   3  53
TORSDOF 17
ENDMDL
MODEL 5
REMARK VINA RESULT:      -7.1      8.164     11.099
REMARK  17 active torsions:
REMARK  status: ('A' for Active; 'I' for Inactive)
REMARK    1  A    between atoms: C_7  and  C_3 
REMARK    2  A    between atoms: O_41  and  C_3 
REMARK    3  A    between atoms: N_25  and  C_6 
REMARK    4  A    between atoms: N_26  and  C_8 
REMARK    5  A    between atoms: N_27  and  C_9 
REMARK    6  A    between atoms: N_17  and  C_13 
REMARK    7  A    between atoms: C_15  and  N_24 
REMARK    8  A    between atoms: O_28  and  N_25 
REMARK    9  A    between atoms: P_47  and  O_34 
REMARK   10  A    between atoms: P_47  and  O_35 
REMARK   11  A    between atoms: P_48  and  O_37 
REMARK   12  A    between atoms: P_49  and  O_39 
REMARK   13  A    between atoms: P_48  and  O_41 
REMARK   14  A    between atoms: P_47  and  O_45 
REMARK   15  A    between atoms: P_49  and  O_45 
REMARK   16  A    between atoms: P_48  and  O_46 
REMARK   17  A    between atoms: P_49  and  O_46 
ROOT
HETATM    1  C   UNK N   1      28.616  16.848   4.644  0.00  0.00     0.073 C 
HETATM    2  C   UNK N   1      28.520  17.804   6.946  0.00  0.00     0.073 C 
HETATM    3  C   UNK N   1      27.933  17.677   5.617  0.00  0.00     0.099 C 
HETATM    4  C   UNK N   1      33.855  16.959   6.932  0.00  0.00     0.180 C 
HETATM    5  C   UNK N   1      29.841  16.372   4.847  0.00  0.00     0.151 C 
HETATM    6  C   UNK N   1      29.763  17.383   7.248  0.00  0.00     0.151 C 
HETATM    7  C   UNK N   1      32.864  16.872   5.718  0.00  0.00     0.190 C 
HETATM    8  C   UNK N   1      32.456  15.440   5.783  0.00  0.00     0.207 C 
HETATM    9  C   UNK N   1      33.806  14.809   6.201  0.00  0.00     0.262 C 
HETATM   10  C   UNK N   1      30.673  16.708   6.150  0.00  0.00     0.267 C 
HETATM   11  O   UNK N   1      34.639  15.819   6.729  0.00  0.00    -0.353 OA
HETATM   12  O   UNK N   1      31.691  17.639   5.815  0.00  0.00    -0.334 OA
HETATM   13  O   UNK N   1      31.326  15.517   6.641  0.00  0.00    -0.332 OA
ENDROOT
BRANCH   4  14
HETATM   14  C   UNK N   1      34.148  17.260   8.415  0.00  0.00     0.215 C 
BRANCH  14  15
HETATM   15  O   UNK N   1      33.581  16.239   9.229  0.00  0.00    -0.294 OA
BRANCH  15  16
HETATM   16  P   UNK N   1      34.799  15.689  10.318  0.00  0.00     0.401 P 
HETATM   17  O   UNK N   1      35.336  16.989  10.976  0.00  0.00    -0.631 OA
BRANCH  16  18
HETATM   18  O   UNK N   1      36.154  14.961   9.516  0.00  0.00    -0.307 OA
HETATM   19  H   UNK N   1      36.261  14.222   8.898  0.00  0.00     0.222 HD
ENDBRANCH  16  18
BRANCH  16  20
HETATM   20  O   UNK N   1      34.103  14.811  11.638  0.00  0.00    -0.195 OA
BRANCH  20  21
HETATM   21  P   UNK N   1      35.302  13.836  12.454  0.00  0.00     0.410 P 
HETATM   22  O   UNK N   1      35.671  12.685  11.472  0.00  0.00    -0.631 OA
BRANCH  21  23
HETATM   23  O   UNK N   1      36.712  14.810  12.495  0.00  0.00    -0.307 OA
HETATM   24  H   UNK N   1      37.464  15.239  12.057  0.00  0.00     0.222 HD
ENDBRANCH  21  23
BRANCH  21  25
HETATM   25  O   UNK N   1      35.112  13.250  14.101  0.00  0.00    -0.195 OA
BRANCH  25  26
HETATM   26  P   UNK N   1      36.710  12.879  14.723  0.00  0.00     0.399 P 
HETATM   27  O   UNK N   1      36.616  11.814  15.855  0.00  0.00    -0.631 OA
BRANCH  26  28
HETATM   28  O   UNK N   1      37.405  14.312  15.407  0.00  0.00    -0.307 OA
HETATM   29  H   UNK N   1      37.842  14.424  16.265  0.00  0.00     0.222 HD
ENDBRANCH  26  28
BRANCH  26  30
HETATM   30  O   UNK N   1      37.762  12.210  13.513  0.00  0.00    -0.307 OA
HETATM   31  H   UNK N   1      37.647  11.320  13.148  0.00  0.00     0.222 HD
ENDBRANCH  26  30
ENDBRANCH  25  26
ENDBRANCH  21  25
ENDBRANCH  20  21
ENDBRANCH  16  20
ENDBRANCH  15  16
ENDBRANCH  14  15
ENDBRANCH   4  14
BRANCH   9  32
HETATM   32  N   UNK N   1      34.525  14.290   5.024  0.00  0.00    -0.297 N 
HETATM   33  C   UNK N   1      34.042  14.008   3.780  0.00  0.00     0.188 A 
HETATM   34  N   UNK N   1      35.027  13.588   2.943  0.00  0.00    -0.346 N 
HETATM   35  C   UNK N   1      36.138  13.625   3.698  0.00  0.00     0.122 A 
ATOM     36  HN  UNK N   1      34.943  13.308   1.966  1.00  0.00     0.167 HD
HETATM   37  C   UNK N   1      37.443  13.320   3.364  0.00  0.00     0.131 A 
HETATM   38  C   UNK N   1      35.836  14.042   4.942  0.00  0.00     0.142 A 
HETATM   39  N   UNK N   1      38.400  13.461   4.329  0.00  0.00    -0.337 N 
HETATM   40  C   UNK N   1      38.071  13.892   5.594  0.00  0.00     0.183 A 
ATOM     41  HN  UNK N   1      39.371  13.242   4.109  1.00  0.00     0.168 HD
HETATM   42  N   UNK N   1      36.773  14.190   5.910  0.00  0.00    -0.336 N 
ATOM     43  HN  UNK N   1      36.519  14.512   6.844  1.00  0.00     0.168 HD
BRANCH  37  44
HETATM   44  N   UNK N   1      37.783  12.887   2.067  0.00  0.00    -0.383 N 
HETATM   45  H   UNK N   1      37.429  13.302   1.247  0.00  0.00     0.157 HD
HETATM   46  H   UNK N   1      38.406  12.131   1.976  0.00  0.00     0.157 HD
ENDBRANCH  37  44
ENDBRANCH   9  32
BRANCH   5  47
HETATM   47  N   UNK N   1      30.395  15.638   3.765  0.00  0.00    -0.114 N 
HETATM   48  O   UNK N   1      30.019  14.517   3.590  0.00  0.00    -0.532 OA
HETATM   49  O   UNK N   1      30.849  16.240   2.839  0.00  0.00    -0.532 OA
ENDBRANCH   5  47
BRANCH   6  50
HETATM   50  N   UNK N   1      30.242  17.720   8.558  0.00  0.00    -0.114 N 
HETATM   51  O   UNK N   1      30.286  16.912   9.418  0.00  0.00    -0.532 OA
HETATM   52  O   UNK N   1      30.748  18.793   8.748  0.00  0.00    -0.532 OA
ENDBRANCH   6  50
BRANCH   3  53
HETATM   53  N   UNK N   1      26.874  18.344   5.282  0.00  0.00    -0.123 N 
HETATM   54  O   UNK N   1      26.317  18.121   4.252  0.00  0.00    -0.538 OA
BRANCH  53  55
HETATM   55  O   UNK N   1      26.434  19.318   6.055  0.00  0.00    -0.257 OA
HETATM   56  H   UNK N   1      26.734  20.195   5.918  0.00  0.00     0.248 HD
ENDBRANCH  53  55
ENDBRANCH   3  53
TORSDOF 17
ENDMDL
MODEL 6
REMARK VINA RESULT:      -7.1      3.895      6.664
REMARK  17 active torsions:
REMARK  status: ('A' for Active; 'I' for Inactive)
REMARK    1  A    between atoms: C_7  and  C_3 
REMARK    2  A    between atoms: O_41  and  C_3 
REMARK    3  A    between atoms: N_25  and  C_6 
REMARK    4  A    between atoms: N_26  and  C_8 
REMARK    5  A    between atoms: N_27  and  C_9 
REMARK    6  A    between atoms: N_17  and  C_13 
REMARK    7  A    between atoms: C_15  and  N_24 
REMARK    8  A    between atoms: O_28  and  N_25 
REMARK    9  A    between atoms: P_47  and  O_34 
REMARK   10  A    between atoms: P_47  and  O_35 
REMARK   11  A    between atoms: P_48  and  O_37 
REMARK   12  A    between atoms: P_49  and  O_39 
REMARK   13  A    between atoms: P_48  and  O_41 
REMARK   14  A    between atoms: P_47  and  O_45 
REMARK   15  A    between atoms: P_49  and  O_45 
REMARK   16  A    between atoms: P_48  and  O_46 
REMARK   17  A    between atoms: P_49  and  O_46 
ROOT
HETATM    1  C   UNK N   1      20.395  18.197   1.308  0.00  0.00     0.073 C 
HETATM    2  C   UNK N   1      21.048  19.415   3.384  0.00  0.00     0.073 C 
HETATM    3  C   UNK N   1      20.735  19.446   1.960  0.00  0.00     0.099 C 
HETATM    4  C   UNK N   1      22.873  14.591   4.989  0.00  0.00     0.180 C 
HETATM    5  C   UNK N   1      20.555  17.017   1.900  0.00  0.00     0.151 C 
HETATM    6  C   UNK N   1      21.260  18.276   4.070  0.00  0.00     0.151 C 
HETATM    7  C   UNK N   1      22.393  15.010   3.554  0.00  0.00     0.190 C 
HETATM    8  C   UNK N   1      20.940  14.686   3.633  0.00  0.00     0.207 C 
HETATM    9  C   UNK N   1      21.012  13.393   4.480  0.00  0.00     0.262 C 
HETATM   10  C   UNK N   1      21.171  16.875   3.349  0.00  0.00     0.267 C 
HETATM   11  O   UNK N   1      22.264  13.341   5.129  0.00  0.00    -0.353 OA
HETATM   12  O   UNK N   1      22.494  16.374   3.237  0.00  0.00    -0.334 OA
HETATM   13  O   UNK N   1      20.414  15.915   4.117  0.00  0.00    -0.332 OA
ENDROOT
BRANCH   4  14
HETATM   14  C   UNK N   1      23.190  14.933   6.458  0.00  0.00     0.215 C 
BRANCH  14  15
HETATM   15  O   UNK N   1      24.006  13.909   7.020  0.00  0.00    -0.294 OA
BRANCH  15  16
HETATM   16  P   UNK N   1      23.274  13.393   8.493  0.00  0.00     0.401 P 
HETATM   17  O   UNK N   1      24.452  13.339   9.504  0.00  0.00    -0.631 OA
BRANCH  16  18
HETATM   18  O   UNK N   1      22.637  11.783   8.411  0.00  0.00    -0.307 OA
HETATM   19  H   UNK N   1      22.856  10.990   7.897  0.00  0.00     0.222 HD
ENDBRANCH  16  18
BRANCH  16  20
HETATM   20  O   UNK N   1      22.233  14.620   9.132  0.00  0.00    -0.195 OA
BRANCH  20  21
HETATM   21  P   UNK N   1      20.573  14.077   9.188  0.00  0.00     0.410 P 
HETATM   22  O   UNK N   1      20.312  13.330   7.847  0.00  0.00    -0.631 OA
BRANCH  21  23
HETATM   23  O   UNK N   1      20.555  12.829  10.364  0.00  0.00    -0.307 OA
HETATM   24  H   UNK N   1      20.087  12.263  10.997  0.00  0.00     0.222 HD
ENDBRANCH  21  23
BRANCH  21  25
HETATM   25  O   UNK N   1      19.229  15.123   9.623  0.00  0.00    -0.195 OA
BRANCH  25  26
HETATM   26  P   UNK N   1      19.178  16.438   8.463  0.00  0.00     0.399 P 
HETATM   27  O   UNK N   1      17.703  16.825   8.148  0.00  0.00    -0.631 OA
BRANCH  26  28
HETATM   28  O   UNK N   1      19.913  15.922   6.981  0.00  0.00    -0.307 OA
HETATM   29  H   UNK N   1      19.504  15.476   6.224  0.00  0.00     0.222 HD
ENDBRANCH  26  28
BRANCH  26  30
HETATM   30  O   UNK N   1      19.943  17.881   9.054  0.00  0.00    -0.307 OA
HETATM   31  H   UNK N   1      19.610  18.382   9.813  0.00  0.00     0.222 HD
ENDBRANCH  26  30
ENDBRANCH  25  26
ENDBRANCH  21  25
ENDBRANCH  20  21
ENDBRANCH  16  20
ENDBRANCH  15  16
ENDBRANCH  14  15
ENDBRANCH   4  14
BRANCH   9  32
HETATM   32  N   UNK N   1      20.973  12.202   3.614  0.00  0.00    -0.297 N 
HETATM   33  C   UNK N   1      21.682  11.041   3.719  0.00  0.00     0.188 A 
HETATM   34  N   UNK N   1      21.336  10.152   2.751  0.00  0.00    -0.346 N 
HETATM   35  C   UNK N   1      20.386  10.789   2.045  0.00  0.00     0.122 A 
ATOM     36  HN  UNK N   1      21.711   9.217   2.596  1.00  0.00     0.167 HD
HETATM   37  C   UNK N   1      19.660  10.357   0.953  0.00  0.00     0.131 A 
HETATM   38  C   UNK N   1      20.172  12.014   2.560  0.00  0.00     0.142 A 
HETATM   39  N   UNK N   1      18.729  11.207   0.426  0.00  0.00    -0.337 N 
HETATM   40  C   UNK N   1      18.523  12.454   0.969  0.00  0.00     0.183 A 
ATOM     41  HN  UNK N   1      18.179  10.913  -0.381  1.00  0.00     0.168 HD
HETATM   42  N   UNK N   1      19.251  12.868   2.052  0.00  0.00    -0.336 N 
ATOM     43  HN  UNK N   1      19.105  13.790   2.464  1.00  0.00     0.168 HD
BRANCH  37  44
HETATM   44  N   UNK N   1      19.863   9.076   0.401  0.00  0.00    -0.383 N 
HETATM   45  H   UNK N   1      20.019   8.270   0.945  0.00  0.00     0.157 HD
HETATM   46  H   UNK N   1      19.848   8.982  -0.579  0.00  0.00     0.157 HD
ENDBRANCH  37  44
ENDBRANCH   9  32
BRANCH   5  47
HETATM   47  N   UNK N   1      20.244  15.888   1.097  0.00  0.00    -0.114 N 
HETATM   48  O   UNK N   1      19.140  15.802   0.644  0.00  0.00    -0.532 OA
HETATM   49  O   UNK N   1      21.134  15.316   0.544  0.00  0.00    -0.532 OA
ENDBRANCH   5  47
BRANCH   6  50
HETATM   50  N   UNK N   1      21.706  18.429   5.425  0.00  0.00    -0.114 N 
HETATM   51  O   UNK N   1      20.947  18.682   6.293  0.00  0.00    -0.532 OA
HETATM   52  O   UNK N   1      22.839  18.148   5.713  0.00  0.00    -0.532 OA
ENDBRANCH   6  50
BRANCH   3  53
HETATM   53  N   UNK N   1      20.829  20.541   1.273  0.00  0.00    -0.123 N 
HETATM   54  O   UNK N   1      21.068  21.577   1.813  0.00  0.00    -0.538 OA
BRANCH  53  55
HETATM   55  O   UNK N   1      20.605  20.528  -0.026  0.00  0.00    -0.257 OA
HETATM   56  H   UNK N   1      21.154  21.025  -0.600  0.00  0.00     0.248 HD
ENDBRANCH  53  55
ENDBRANCH   3  53
TORSDOF 17
ENDMDL
MODEL 7
REMARK VINA RESULT:      -7.1      3.461      6.110
REMARK  17 active torsions:
REMARK  status: ('A' for Active; 'I' for Inactive)
REMARK    1  A    between atoms: C_7  and  C_3 
REMARK    2  A    between atoms: O_41  and  C_3 
REMARK    3  A    between atoms: N_25  and  C_6 
REMARK    4  A    between atoms: N_26  and  C_8 
REMARK    5  A    between atoms: N_27  and  C_9 
REMARK    6  A    between atoms: N_17  and  C_13 
REMARK    7  A    between atoms: C_15  and  N_24 
REMARK    8  A    between atoms: O_28  and  N_25 
REMARK    9  A    between atoms: P_47  and  O_34 
REMARK   10  A    between atoms: P_47  and  O_35 
REMARK   11  A    between atoms: P_48  and  O_37 
REMARK   12  A    between atoms: P_49  and  O_39 
REMARK   13  A    between atoms: P_48  and  O_41 
REMARK   14  A    between atoms: P_47  and  O_45 
REMARK   15  A    between atoms: P_49  and  O_45 
REMARK   16  A    between atoms: P_48  and  O_46 
REMARK   17  A    between atoms: P_49  and  O_46 
ROOT
HETATM    1  C   UNK N   1      20.445  17.696   1.601  0.00  0.00     0.073 C 
HETATM    2  C   UNK N   1      21.403  18.968   3.521  0.00  0.00     0.073 C 
HETATM    3  C   UNK N   1      20.830  18.967   2.179  0.00  0.00     0.099 C 
HETATM    4  C   UNK N   1      23.759  14.267   4.757  0.00  0.00     0.180 C 
HETATM    5  C   UNK N   1      20.777  16.531   2.152  0.00  0.00     0.151 C 
HETATM    6  C   UNK N   1      21.801  17.848   4.155  0.00  0.00     0.151 C 
HETATM    7  C   UNK N   1      22.999  14.644   3.437  0.00  0.00     0.190 C 
HETATM    8  C   UNK N   1      21.606  14.243   3.783  0.00  0.00     0.207 C 
HETATM    9  C   UNK N   1      21.904  12.964   4.602  0.00  0.00     0.262 C 
HETATM   10  C   UNK N   1      21.658  16.438   3.462  0.00  0.00     0.267 C 
HETATM   11  O   UNK N   1      23.256  12.986   5.007  0.00  0.00    -0.353 OA
HETATM   12  O   UNK N   1      22.963  16.009   3.107  0.00  0.00    -0.334 OA
HETATM   13  O   UNK N   1      21.110  15.445   4.356  0.00  0.00    -0.332 OA
ENDROOT
BRANCH   4  14
HETATM   14  C   UNK N   1      24.322  14.639   6.143  0.00  0.00     0.215 C 
BRANCH  14  15
HETATM   15  O   UNK N   1      23.248  14.813   7.062  0.00  0.00    -0.294 OA
BRANCH  15  16
HETATM   16  P   UNK N   1      23.398  13.612   8.290  0.00  0.00     0.401 P 
HETATM   17  O   UNK N   1      24.867  13.747   8.775  0.00  0.00    -0.631 OA
BRANCH  16  18
HETATM   18  O   UNK N   1      23.238  11.994   7.684  0.00  0.00    -0.307 OA
HETATM   19  H   UNK N   1      23.562  11.127   7.971  0.00  0.00     0.222 HD
ENDBRANCH  16  18
BRANCH  16  20
HETATM   20  O   UNK N   1      22.459  14.026   9.684  0.00  0.00    -0.195 OA
BRANCH  20  21
HETATM   21  P   UNK N   1      20.777  13.610   9.462  0.00  0.00     0.410 P 
HETATM   22  O   UNK N   1      20.693  12.830   8.117  0.00  0.00    -0.631 OA
BRANCH  21  23
HETATM   23  O   UNK N   1      20.455  12.417  10.650  0.00  0.00    -0.307 OA
HETATM   24  H   UNK N   1      20.733  11.672  11.205  0.00  0.00     0.222 HD
ENDBRANCH  21  23
BRANCH  21  25
HETATM   25  O   UNK N   1      19.466  14.770   9.624  0.00  0.00    -0.195 OA
BRANCH  25  26
HETATM   26  P   UNK N   1      19.675  15.990   8.381  0.00  0.00     0.399 P 
HETATM   27  O   UNK N   1      18.290  16.480   7.864  0.00  0.00    -0.631 OA
BRANCH  26  28
HETATM   28  O   UNK N   1      20.521  15.297   7.036  0.00  0.00    -0.307 OA
HETATM   29  H   UNK N   1      20.182  15.078   6.154  0.00  0.00     0.222 HD
ENDBRANCH  26  28
BRANCH  26  30
HETATM   30  O   UNK N   1      20.504  17.402   8.960  0.00  0.00    -0.307 OA
HETATM   31  H   UNK N   1      20.159  17.962   9.672  0.00  0.00     0.222 HD
ENDBRANCH  26  30
ENDBRANCH  25  26
ENDBRANCH  21  25
ENDBRANCH  20  21
ENDBRANCH  16  20
ENDBRANCH  15  16
ENDBRANCH  14  15
ENDBRANCH   4  14
BRANCH   9  32
HETATM   32  N   UNK N   1      21.773  11.763   3.757  0.00  0.00    -0.297 N 
HETATM   33  C   UNK N   1      21.253  11.651   2.501  0.00  0.00     0.188 A 
HETATM   34  N   UNK N   1      21.348  10.379   2.030  0.00  0.00    -0.346 N 
HETATM   35  C   UNK N   1      21.949   9.705   3.025  0.00  0.00     0.122 A 
ATOM     36  HN  UNK N   1      21.035  10.019   1.130  1.00  0.00     0.167 HD
HETATM   37  C   UNK N   1      22.316   8.376   3.094  0.00  0.00     0.131 A 
HETATM   38  C   UNK N   1      22.200  10.533   4.057  0.00  0.00     0.142 A 
HETATM   39  N   UNK N   1      22.938   7.942   4.232  0.00  0.00    -0.337 N 
HETATM   40  C   UNK N   1      23.188   8.804   5.273  0.00  0.00     0.183 A 
ATOM     41  HN  UNK N   1      23.219   6.965   4.309  1.00  0.00     0.168 HD
HETATM   42  N   UNK N   1      22.817  10.119   5.190  0.00  0.00    -0.336 N 
ATOM     43  HN  UNK N   1      23.000  10.768   5.957  1.00  0.00     0.168 HD
BRANCH  37  44
HETATM   44  N   UNK N   1      22.070   7.493   2.024  0.00  0.00    -0.383 N 
HETATM   45  H   UNK N   1      22.669   7.400   1.249  0.00  0.00     0.157 HD
HETATM   46  H   UNK N   1      21.255   6.940   2.053  0.00  0.00     0.157 HD
ENDBRANCH  37  44
ENDBRANCH   9  32
BRANCH   5  47
HETATM   47  N   UNK N   1      20.386  15.379   1.420  0.00  0.00    -0.114 N 
HETATM   48  O   UNK N   1      19.230  15.073   1.422  0.00  0.00    -0.532 OA
HETATM   49  O   UNK N   1      21.071  15.019   0.511  0.00  0.00    -0.532 OA
ENDBRANCH   5  47
BRANCH   6  50
HETATM   50  N   UNK N   1      22.481  18.039   5.404  0.00  0.00    -0.114 N 
HETATM   51  O   UNK N   1      21.899  17.987   6.430  0.00  0.00    -0.532 OA
HETATM   52  O   UNK N   1      23.681  18.101   5.423  0.00  0.00    -0.532 OA
ENDBRANCH   6  50
BRANCH   3  53
HETATM   53  N   UNK N   1      20.735  20.059   1.488  0.00  0.00    -0.123 N 
HETATM   54  O   UNK N   1      20.687  21.119   2.031  0.00  0.00    -0.538 OA
BRANCH  53  55
HETATM   55  O   UNK N   1      20.633  20.003   0.174  0.00  0.00    -0.257 OA
HETATM   56  H   UNK N   1      20.629  20.794  -0.329  0.00  0.00     0.248 HD
ENDBRANCH  53  55
ENDBRANCH   3  53
TORSDOF 17
ENDMDL
MODEL 8
REMARK VINA RESULT:      -7.1      1.246      2.192
REMARK  17 active torsions:
REMARK  status: ('A' for Active; 'I' for Inactive)
REMARK    1  A    between atoms: C_7  and  C_3 
REMARK    2  A    between atoms: O_41  and  C_3 
REMARK    3  A    between atoms: N_25  and  C_6 
REMARK    4  A    between atoms: N_26  and  C_8 
REMARK    5  A    between atoms: N_27  and  C_9 
REMARK    6  A    between atoms: N_17  and  C_13 
REMARK    7  A    between atoms: C_15  and  N_24 
REMARK    8  A    between atoms: O_28  and  N_25 
REMARK    9  A    between atoms: P_47  and  O_34 
REMARK   10  A    between atoms: P_47  and  O_35 
REMARK   11  A    between atoms: P_48  and  O_37 
REMARK   12  A    between atoms: P_49  and  O_39 
REMARK   13  A    between atoms: P_48  and  O_41 
REMARK   14  A    between atoms: P_47  and  O_45 
REMARK   15  A    between atoms: P_49  and  O_45 
REMARK   16  A    between atoms: P_48  and  O_46 
REMARK   17  A    between atoms: P_49  and  O_46 
ROOT
HETATM    1  C   UNK N   1      23.061  19.594   3.512  0.00  0.00     0.073 C 
HETATM    2  C   UNK N   1      21.483  17.689   3.187  0.00  0.00     0.073 C 
HETATM    3  C   UNK N   1      21.710  19.128   3.272  0.00  0.00     0.099 C 
HETATM    4  C   UNK N   1      25.207  14.851   5.880  0.00  0.00     0.180 C 
HETATM    5  C   UNK N   1      24.049  18.771   3.856  0.00  0.00     0.151 C 
HETATM    6  C   UNK N   1      22.405  16.773   3.540  0.00  0.00     0.151 C 
HETATM    7  C   UNK N   1      25.129  16.409   5.699  0.00  0.00     0.190 C 
HETATM    8  C   UNK N   1      25.915  16.591   4.445  0.00  0.00     0.207 C 
HETATM    9  C   UNK N   1      27.011  15.522   4.673  0.00  0.00     0.262 C 
HETATM   10  C   UNK N   1      23.820  17.221   4.073  0.00  0.00     0.267 C 
HETATM   11  O   UNK N   1      26.568  14.617   5.661  0.00  0.00    -0.353 OA
HETATM   12  O   UNK N   1      23.852  16.946   5.465  0.00  0.00    -0.334 OA
HETATM   13  O   UNK N   1      24.894  16.473   3.464  0.00  0.00    -0.332 OA
ENDROOT
BRANCH   4  14
HETATM   14  C   UNK N   1      24.626  13.439   5.672  0.00  0.00     0.215 C 
BRANCH  14  15
HETATM   15  O   UNK N   1      24.937  12.626   6.801  0.00  0.00    -0.294 OA
BRANCH  15  16
HETATM   16  P   UNK N   1      23.510  12.477   7.757  0.00  0.00     0.401 P 
HETATM   17  O   UNK N   1      24.027  11.990   9.138  0.00  0.00    -0.631 OA
BRANCH  16  18
HETATM   18  O   UNK N   1      22.431  11.245   7.186  0.00  0.00    -0.307 OA
HETATM   19  H   UNK N   1      21.751  11.203   6.497  0.00  0.00     0.222 HD
ENDBRANCH  16  18
BRANCH  16  20
HETATM   20  O   UNK N   1      22.822  14.030   8.094  0.00  0.00    -0.195 OA
BRANCH  20  21
HETATM   21  P   UNK N   1      21.131  13.896   8.513  0.00  0.00     0.410 P 
HETATM   22  O   UNK N   1      20.396  13.427   7.224  0.00  0.00    -0.631 OA
BRANCH  21  23
HETATM   23  O   UNK N   1      21.040  12.539   9.557  0.00  0.00    -0.307 OA
HETATM   24  H   UNK N   1      20.533  11.916  10.101  0.00  0.00     0.222 HD
ENDBRANCH  21  23
BRANCH  21  25
HETATM   25  O   UNK N   1      20.240  15.163   9.345  0.00  0.00    -0.195 OA
BRANCH  25  26
HETATM   26  P   UNK N   1      20.030  16.495   8.223  0.00  0.00     0.399 P 
HETATM   27  O   UNK N   1      18.660  16.378   7.494  0.00  0.00    -0.631 OA
BRANCH  26  28
HETATM   28  O   UNK N   1      21.273  16.427   7.016  0.00  0.00    -0.307 OA
HETATM   29  H   UNK N   1      21.189  16.246   6.068  0.00  0.00     0.222 HD
ENDBRANCH  26  28
BRANCH  26  30
HETATM   30  O   UNK N   1      20.031  18.043   9.011  0.00  0.00    -0.307 OA
HETATM   31  H   UNK N   1      19.409  18.275   9.718  0.00  0.00     0.222 HD
ENDBRANCH  26  30
ENDBRANCH  25  26
ENDBRANCH  21  25
ENDBRANCH  20  21
ENDBRANCH  16  20
ENDBRANCH  15  16
ENDBRANCH  14  15
ENDBRANCH   4  14
BRANCH   9  32
HETATM   32  N   UNK N   1      28.229  16.138   5.229  0.00  0.00    -0.297 N 
HETATM   33  C   UNK N   1      28.375  16.878   6.365  0.00  0.00     0.188 A 
HETATM   34  N   UNK N   1      29.670  17.235   6.569  0.00  0.00    -0.346 N 
HETATM   35  C   UNK N   1      30.329  16.689   5.532  0.00  0.00     0.122 A 
ATOM     36  HN  UNK N   1      30.055  17.790   7.333  1.00  0.00     0.167 HD
HETATM   37  C   UNK N   1      31.676  16.712   5.232  0.00  0.00     0.131 A 
HETATM   38  C   UNK N   1      29.466  16.036   4.731  0.00  0.00     0.142 A 
HETATM   39  N   UNK N   1      32.093  16.054   4.109  0.00  0.00    -0.337 N 
HETATM   40  C   UNK N   1      31.196  15.389   3.306  0.00  0.00     0.183 A 
ATOM     41  HN  UNK N   1      33.082  16.056   3.864  1.00  0.00     0.168 HD
HETATM   42  N   UNK N   1      29.863  15.376   3.617  0.00  0.00    -0.336 N 
ATOM     43  HN  UNK N   1      29.190  14.885   3.028  1.00  0.00     0.168 HD
BRANCH  37  44
HETATM   44  N   UNK N   1      32.598  17.384   6.059  0.00  0.00    -0.383 N 
HETATM   45  H   UNK N   1      33.488  17.027   6.281  0.00  0.00     0.157 HD
HETATM   46  H   UNK N   1      32.338  18.256   6.435  0.00  0.00     0.157 HD
ENDBRANCH  37  44
ENDBRANCH   9  32
BRANCH   5  47
HETATM   47  N   UNK N   1      25.294  19.397   4.126  0.00  0.00    -0.114 N 
HETATM   48  O   UNK N   1      25.942  19.792   3.201  0.00  0.00    -0.532 OA
HETATM   49  O   UNK N   1      25.462  19.898   5.196  0.00  0.00    -0.532 OA
ENDBRANCH   5  47
BRANCH   6  50
HETATM   50  N   UNK N   1      21.968  15.407   3.539  0.00  0.00    -0.114 N 
HETATM   51  O   UNK N   1      21.386  14.951   4.460  0.00  0.00    -0.532 OA
HETATM   52  O   UNK N   1      22.054  14.756   2.532  0.00  0.00    -0.532 OA
ENDBRANCH   6  50
BRANCH   3  53
HETATM   53  N   UNK N   1      20.726  19.969   3.213  0.00  0.00    -0.123 N 
HETATM   54  O   UNK N   1      19.602  19.583   3.125  0.00  0.00    -0.538 OA
BRANCH  53  55
HETATM   55  O   UNK N   1      20.965  21.266   3.194  0.00  0.00    -0.257 OA
HETATM   56  H   UNK N   1      21.386  21.653   2.451  0.00  0.00     0.248 HD
ENDBRANCH  53  55
ENDBRANCH   3  53
TORSDOF 17
ENDMDL
MODEL 9
REMARK VINA RESULT:      -6.9      2.351      6.716
REMARK  17 active torsions:
REMARK  status: ('A' for Active; 'I' for Inactive)
REMARK    1  A    between atoms: C_7  and  C_3 
REMARK    2  A    between atoms: O_41  and  C_3 
REMARK    3  A    between atoms: N_25  and  C_6 
REMARK    4  A    between atoms: N_26  and  C_8 
REMARK    5  A    between atoms: N_27  and  C_9 
REMARK    6  A    between atoms: N_17  and  C_13 
REMARK    7  A    between atoms: C_15  and  N_24 
REMARK    8  A    between atoms: O_28  and  N_25 
REMARK    9  A    between atoms: P_47  and  O_34 
REMARK   10  A    between atoms: P_47  and  O_35 
REMARK   11  A    between atoms: P_48  and  O_37 
REMARK   12  A    between atoms: P_49  and  O_39 
REMARK   13  A    between atoms: P_48  and  O_41 
REMARK   14  A    between atoms: P_47  and  O_45 
REMARK   15  A    between atoms: P_49  and  O_45 
REMARK   16  A    between atoms: P_48  and  O_46 
REMARK   17  A    between atoms: P_49  and  O_46 
ROOT
HETATM    1  C   UNK N   1      29.205  17.889   5.235  0.00  0.00     0.073 C 
HETATM    2  C   UNK N   1      29.122  15.458   5.786  0.00  0.00     0.073 C 
HETATM    3  C   UNK N   1      29.910  16.663   5.551  0.00  0.00     0.099 C 
HETATM    4  C   UNK N   1      24.327  15.614   3.305  0.00  0.00     0.180 C 
HETATM    5  C   UNK N   1      27.905  17.912   4.953  0.00  0.00     0.151 C 
HETATM    6  C   UNK N   1      27.808  15.367   5.505  0.00  0.00     0.151 C 
HETATM    7  C   UNK N   1      25.433  16.727   3.331  0.00  0.00     0.190 C 
HETATM    8  C   UNK N   1      25.034  17.500   4.542  0.00  0.00     0.207 C 
HETATM    9  C   UNK N   1      23.495  17.425   4.397  0.00  0.00     0.262 C 
HETATM   10  C   UNK N   1      27.029  16.597   4.897  0.00  0.00     0.267 C 
HETATM   11  O   UNK N   1      23.170  16.372   3.515  0.00  0.00    -0.353 OA
HETATM   12  O   UNK N   1      26.752  16.290   3.539  0.00  0.00    -0.334 OA
HETATM   13  O   UNK N   1      25.763  16.817   5.553  0.00  0.00    -0.332 OA
ENDROOT
BRANCH   4  14
HETATM   14  C   UNK N   1      23.825  14.202   3.666  0.00  0.00     0.215 C 
BRANCH  14  15
HETATM   15  O   UNK N   1      22.401  14.182   3.644  0.00  0.00    -0.294 OA
BRANCH  15  16
HETATM   16  P   UNK N   1      21.856  13.445   5.104  0.00  0.00     0.401 P 
HETATM   17  O   UNK N   1      22.720  12.160   5.226  0.00  0.00    -0.631 OA
BRANCH  16  18
HETATM   18  O   UNK N   1      20.208  12.911   5.025  0.00  0.00    -0.307 OA
HETATM   19  H   UNK N   1      19.355  13.301   5.270  0.00  0.00     0.222 HD
ENDBRANCH  16  18
BRANCH  16  20
HETATM   20  O   UNK N   1      22.313  14.386   6.484  0.00  0.00    -0.195 OA
BRANCH  20  21
HETATM   21  P   UNK N   1      21.491  13.838   7.925  0.00  0.00     0.410 P 
HETATM   22  O   UNK N   1      20.099  14.535   7.926  0.00  0.00    -0.631 OA
BRANCH  21  23
HETATM   23  O   UNK N   1      21.126  12.189   7.627  0.00  0.00    -0.307 OA
HETATM   24  H   UNK N   1      20.661  11.496   7.133  0.00  0.00     0.222 HD
ENDBRANCH  21  23
BRANCH  21  25
HETATM   25  O   UNK N   1      22.227  13.854   9.522  0.00  0.00    -0.195 OA
BRANCH  25  26
HETATM   26  P   UNK N   1      23.498  12.644   9.536  0.00  0.00     0.399 P 
HETATM   27  O   UNK N   1      22.941  11.280  10.039  0.00  0.00    -0.631 OA
BRANCH  26  28
HETATM   28  O   UNK N   1      24.745  13.138  10.634  0.00  0.00    -0.307 OA
HETATM   29  H   UNK N   1      25.670  12.852  10.670  0.00  0.00     0.222 HD
ENDBRANCH  26  28
BRANCH  26  30
HETATM   30  O   UNK N   1      24.159  12.348   7.957  0.00  0.00    -0.307 OA
HETATM   31  H   UNK N   1      24.891  12.863   7.587  0.00  0.00     0.222 HD
ENDBRANCH  26  30
ENDBRANCH  25  26
ENDBRANCH  21  25
ENDBRANCH  20  21
ENDBRANCH  16  20
ENDBRANCH  15  16
ENDBRANCH  14  15
ENDBRANCH   4  14
BRANCH   9  32
HETATM   32  N   UNK N   1      22.973  18.644   3.754  0.00  0.00    -0.297 N 
HETATM   33  C   UNK N   1      23.612  19.822   3.502  0.00  0.00     0.188 A 
HETATM   34  N   UNK N   1      22.807  20.700   2.849  0.00  0.00    -0.346 N 
HETATM   35  C   UNK N   1      21.650  20.033   2.694  0.00  0.00     0.122 A 
ATOM     36  HN  UNK N   1      23.029  21.648   2.546  1.00  0.00     0.167 HD
HETATM   37  C   UNK N   1      20.478  20.429   2.081  0.00  0.00     0.131 A 
HETATM   38  C   UNK N   1      21.750  18.805   3.238  0.00  0.00     0.142 A 
HETATM   39  N   UNK N   1      19.442  19.539   2.046  0.00  0.00    -0.337 N 
HETATM   40  C   UNK N   1      19.565  18.288   2.605  0.00  0.00     0.183 A 
ATOM     41  HN  UNK N   1      18.565  19.807   1.600  1.00  0.00     0.168 HD
HETATM   42  N   UNK N   1      20.734  17.910   3.209  0.00  0.00    -0.336 N 
ATOM     43  HN  UNK N   1      20.836  16.984   3.625  1.00  0.00     0.168 HD
BRANCH  37  44
HETATM   44  N   UNK N   1      20.353  21.707   1.500  0.00  0.00    -0.383 N 
HETATM   45  H   UNK N   1      20.974  22.449   1.684  0.00  0.00     0.157 HD
HETATM   46  H   UNK N   1      19.607  21.866   0.878  0.00  0.00     0.157 HD
ENDBRANCH  37  44
ENDBRANCH   9  32
BRANCH   5  47
HETATM   47  N   UNK N   1      27.384  19.183   4.593  0.00  0.00    -0.114 N 
HETATM   48  O   UNK N   1      27.222  19.994   5.457  0.00  0.00    -0.532 OA
HETATM   49  O   UNK N   1      27.532  19.565   3.472  0.00  0.00    -0.532 OA
ENDBRANCH   5  47
BRANCH   6  50
HETATM   50  N   UNK N   1      27.221  14.066   5.653  0.00  0.00    -0.114 N 
HETATM   51  O   UNK N   1      26.278  13.897   6.342  0.00  0.00    -0.532 OA
HETATM   52  O   UNK N   1      27.592  13.164   4.951  0.00  0.00    -0.532 OA
ENDBRANCH   6  50
BRANCH   3  53
HETATM   53  N   UNK N   1      31.205  16.631   5.549  0.00  0.00    -0.123 N 
HETATM   54  O   UNK N   1      31.793  15.821   6.195  0.00  0.00    -0.538 OA
BRANCH  53  55
HETATM   55  O   UNK N   1      31.888  17.534   4.872  0.00  0.00    -0.257 OA
HETATM   56  H   UNK N   1      31.767  18.445   5.055  0.00  0.00     0.248 HD
ENDBRANCH  53  55
ENDBRANCH   3  53
TORSDOF 17
ENDMDL
