MODEL 1
REMARK VINA RESULT:      -3.8      0.000      0.000
REMARK  5 active torsions:
REMARK  status: ('A' for Active; 'I' for Inactive)
REMARK    1  A    between atoms: C_5  and  C_3 
REMARK    2  A    between atoms: N_6  and  C_3 
REMARK    3  A    between atoms: C_5  and  C_4 
REMARK    4  A    between atoms: C_4  and  O_7 
REMARK    5  A    between atoms: C_5  and  O_8 
ROOT
HETATM    1  C   UNK N   1      35.413  13.864  10.176  0.00  0.00     0.050 C 
HETATM    2  C   UNK N   1      34.994  14.803  11.301  0.00  0.00     0.095 C 
ENDROOT
BRANCH   2   3
HETATM    3  C   UNK N   1      35.554  14.277  12.626  0.00  0.00     0.150 C 
BRANCH   3   4
HETATM    4  N   UNK N   1      36.930  13.827  12.476  0.00  0.00    -0.427 N 
HETATM    5  H   UNK N   1      37.693  14.442  12.196  0.00  0.00     0.150 HD
HETATM    6  H   UNK N   1      37.142  12.846  12.661  0.00  0.00     0.150 HD
ENDBRANCH   3   4
ENDBRANCH   2   3
BRANCH   2   7
HETATM    7  C   UNK N   1      35.542  16.217  11.025  0.00  0.00     0.149 C 
HETATM    8  C   UNK N   1      34.897  16.836   9.793  0.00  0.00     0.042 C 
BRANCH   7   9
HETATM    9  O   UNK N   1      36.924  16.170  10.825  0.00  0.00    -0.393 OA
HETATM   10  H   UNK N   1      37.674  15.558  10.891  0.00  0.00     0.210 HD
ENDBRANCH   7   9
ENDBRANCH   2   7
BRANCH   2  11
HETATM   11  O   UNK N   1      33.598  14.839  11.364  0.00  0.00    -0.386 OA
HETATM   12  H   UNK N   1      32.869  14.204  11.434  0.00  0.00     0.210 HD
ENDBRANCH   2  11
TORSDOF 5
ENDMDL
MODEL 2
REMARK VINA RESULT:      -3.7     18.121     18.560
REMARK  5 active torsions:
REMARK  status: ('A' for Active; 'I' for Inactive)
REMARK    1  A    between atoms: C_5  and  C_3 
REMARK    2  A    between atoms: N_6  and  C_3 
REMARK    3  A    between atoms: C_5  and  C_4 
REMARK    4  A    between atoms: C_4  and  O_7 
REMARK    5  A    between atoms: C_5  and  O_8 
ROOT
HETATM    1  C   UNK N   1      20.047  17.295   3.553  0.00  0.00     0.050 C 
HETATM    2  C   UNK N   1      19.745  18.057   2.269  0.00  0.00     0.095 C 
ENDROOT
BRANCH   2   3
HETATM    3  C   UNK N   1      20.770  19.183   2.101  0.00  0.00     0.150 C 
BRANCH   3   4
HETATM    4  N   UNK N   1      20.222  20.285   1.324  0.00  0.00    -0.427 N 
HETATM    5  H   UNK N   1      19.871  20.179   0.373  0.00  0.00     0.150 HD
HETATM    6  H   UNK N   1      20.186  21.209   1.753  0.00  0.00     0.150 HD
ENDBRANCH   3   4
ENDBRANCH   2   3
BRANCH   2   7
HETATM    7  C   UNK N   1      19.822  17.095   1.066  0.00  0.00     0.149 C 
HETATM    8  C   UNK N   1      20.723  15.904   1.360  0.00  0.00     0.042 C 
BRANCH   7   9
HETATM    9  O   UNK N   1      20.324  17.762  -0.056  0.00  0.00    -0.393 OA
HETATM   10  H   UNK N   1      21.058  17.723  -0.689  0.00  0.00     0.210 HD
ENDBRANCH   7   9
ENDBRANCH   2   7
BRANCH   2  11
HETATM   11  O   UNK N   1      18.461  18.602   2.357  0.00  0.00    -0.386 OA
HETATM   12  H   UNK N   1      17.993  19.386   2.031  0.00  0.00     0.210 HD
ENDBRANCH   2  11
TORSDOF 5
ENDMDL
MODEL 3
REMARK VINA RESULT:      -3.7     13.859     14.416
REMARK  5 active torsions:
REMARK  status: ('A' for Active; 'I' for Inactive)
REMARK    1  A    between atoms: C_5  and  C_3 
REMARK    2  A    between atoms: N_6  and  C_3 
REMARK    3  A    between atoms: C_5  and  C_4 
REMARK    4  A    between atoms: C_4  and  O_7 
REMARK    5  A    between atoms: C_5  and  O_8 
ROOT
HETATM    1  C   UNK N   1      44.308  21.754   4.043  0.00  0.00     0.050 C 
HETATM    2  C   UNK N   1      43.793  23.038   3.406  0.00  0.00     0.095 C 
ENDROOT
BRANCH   2   3
HETATM    3  C   UNK N   1      44.875  23.609   2.483  0.00  0.00     0.150 C 
BRANCH   3   4
HETATM    4  N   UNK N   1      44.981  25.053   2.624  0.00  0.00    -0.427 N 
HETATM    5  H   UNK N   1      44.540  25.576   3.381  0.00  0.00     0.150 HD
HETATM    6  H   UNK N   1      45.525  25.569   1.933  0.00  0.00     0.150 HD
ENDBRANCH   3   4
ENDBRANCH   2   3
BRANCH   2   7
HETATM    7  C   UNK N   1      42.517  22.737   2.593  0.00  0.00     0.149 C 
HETATM    8  C   UNK N   1      42.824  21.891   1.365  0.00  0.00     0.042 C 
BRANCH   7   9
HETATM    9  O   UNK N   1      41.919  23.928   2.172  0.00  0.00    -0.393 OA
HETATM   10  H   UNK N   1      42.093  24.700   1.610  0.00  0.00     0.210 HD
ENDBRANCH   7   9
ENDBRANCH   2   7
BRANCH   2  11
HETATM   11  O   UNK N   1      43.505  23.961   4.415  0.00  0.00    -0.386 OA
HETATM   12  H   UNK N   1      43.930  24.298   5.218  0.00  0.00     0.210 HD
ENDBRANCH   2  11
TORSDOF 5
ENDMDL
MODEL 4
REMARK VINA RESULT:      -3.6      1.945      3.285
REMARK  5 active torsions:
REMARK  status: ('A' for Active; 'I' for Inactive)
REMARK    1  A    between atoms: C_5  and  C_3 
REMARK    2  A    between atoms: N_6  and  C_3 
REMARK    3  A    between atoms: C_5  and  C_4 
REMARK    4  A    between atoms: C_4  and  O_7 
REMARK    5  A    between atoms: C_5  and  O_8 
ROOT
HETATM    1  C   UNK N   1      36.555  14.106   9.737  0.00  0.00     0.050 C 
HETATM    2  C   UNK N   1      35.842  15.268  10.416  0.00  0.00     0.095 C 
ENDROOT
BRANCH   2   3
HETATM    3  C   UNK N   1      34.953  15.978   9.390  0.00  0.00     0.150 C 
BRANCH   3   4
HETATM    4  N   UNK N   1      34.567  17.303   9.853  0.00  0.00    -0.427 N 
HETATM    5  H   UNK N   1      35.066  17.808  10.585  0.00  0.00     0.150 HD
HETATM    6  H   UNK N   1      33.757  17.750   9.424  0.00  0.00     0.150 HD
ENDBRANCH   3   4
ENDBRANCH   2   3
BRANCH   2   7
HETATM    7  C   UNK N   1      34.979  14.738  11.578  0.00  0.00     0.149 C 
HETATM    8  C   UNK N   1      35.226  13.257  11.828  0.00  0.00     0.042 C 
BRANCH   7   9
HETATM    9  O   UNK N   1      33.622  14.919  11.295  0.00  0.00    -0.393 OA
HETATM   10  H   UNK N   1      32.989  15.614  11.057  0.00  0.00     0.210 HD
ENDBRANCH   7   9
ENDBRANCH   2   7
BRANCH   2  11
HETATM   11  O   UNK N   1      36.798  16.162  10.905  0.00  0.00    -0.386 OA
HETATM   12  H   UNK N   1      36.885  17.120  11.028  0.00  0.00     0.210 HD
ENDBRANCH   2  11
TORSDOF 5
ENDMDL
MODEL 5
REMARK VINA RESULT:      -3.6      3.773      4.813
REMARK  5 active torsions:
REMARK  status: ('A' for Active; 'I' for Inactive)
REMARK    1  A    between atoms: C_5  and  C_3 
REMARK    2  A    between atoms: N_6  and  C_3 
REMARK    3  A    between atoms: C_5  and  C_4 
REMARK    4  A    between atoms: C_4  and  O_7 
REMARK    5  A    between atoms: C_5  and  O_8 
ROOT
HETATM    1  C   UNK N   1      32.662  18.213   8.460  0.00  0.00     0.050 C 
HETATM    2  C   UNK N   1      34.105  17.905   8.080  0.00  0.00     0.095 C 
ENDROOT
BRANCH   2   3
HETATM    3  C   UNK N   1      34.612  16.743   8.940  0.00  0.00     0.150 C 
BRANCH   3   4
HETATM    4  N   UNK N   1      34.860  17.169  10.310  0.00  0.00    -0.427 N 
HETATM    5  H   UNK N   1      34.255  16.921  11.092  0.00  0.00     0.150 HD
HETATM    6  H   UNK N   1      35.681  17.745  10.497  0.00  0.00     0.150 HD
ENDBRANCH   3   4
ENDBRANCH   2   3
BRANCH   2   7
HETATM    7  C   UNK N   1      34.178  17.522   6.588  0.00  0.00     0.149 C 
HETATM    8  C   UNK N   1      32.790  17.326   5.994  0.00  0.00     0.042 C 
BRANCH   7   9
HETATM    9  O   UNK N   1      34.899  16.335   6.427  0.00  0.00    -0.393 OA
HETATM   10  H   UNK N   1      35.082  15.649   5.766  0.00  0.00     0.210 HD
ENDBRANCH   7   9
ENDBRANCH   2   7
BRANCH   2  11
HETATM   11  O   UNK N   1      34.888  19.038   8.316  0.00  0.00    -0.386 OA
HETATM   12  H   UNK N   1      35.364  19.436   9.061  0.00  0.00     0.210 HD
ENDBRANCH   2  11
TORSDOF 5
ENDMDL
MODEL 6
REMARK VINA RESULT:      -3.5     12.269     12.940
REMARK  5 active torsions:
REMARK  status: ('A' for Active; 'I' for Inactive)
REMARK    1  A    between atoms: C_5  and  C_3 
REMARK    2  A    between atoms: N_6  and  C_3 
REMARK    3  A    between atoms: C_5  and  C_4 
REMARK    4  A    between atoms: C_4  and  O_7 
REMARK    5  A    between atoms: C_5  and  O_8 
ROOT
HETATM    1  C   UNK N   1      23.287  11.338   9.169  0.00  0.00     0.050 C 
HETATM    2  C   UNK N   1      23.164  12.333  10.316  0.00  0.00     0.095 C 
ENDROOT
BRANCH   2   3
HETATM    3  C   UNK N   1      21.682  12.532  10.649  0.00  0.00     0.150 C 
BRANCH   3   4
HETATM    4  N   UNK N   1      21.169  13.760  10.060  0.00  0.00    -0.427 N 
HETATM    5  H   UNK N   1      20.757  14.515  10.608  0.00  0.00     0.150 HD
HETATM    6  H   UNK N   1      21.224  13.872   9.047  0.00  0.00     0.150 HD
ENDBRANCH   3   4
ENDBRANCH   2   3
BRANCH   2   7
HETATM    7  C   UNK N   1      23.910  11.793  11.552  0.00  0.00     0.149 C 
HETATM    8  C   UNK N   1      23.057  11.895  12.808  0.00  0.00     0.042 C 
BRANCH   7   9
HETATM    9  O   UNK N   1      25.090  12.514  11.759  0.00  0.00    -0.393 OA
HETATM   10  H   UNK N   1      25.537  13.324  11.468  0.00  0.00     0.210 HD
ENDBRANCH   7   9
ENDBRANCH   2   7
BRANCH   2  11
HETATM   11  O   UNK N   1      23.722  13.551   9.920  0.00  0.00    -0.386 OA
HETATM   12  H   UNK N   1      23.897  14.420  10.314  0.00  0.00     0.210 HD
ENDBRANCH   2  11
TORSDOF 5
ENDMDL
MODEL 7
REMARK VINA RESULT:      -3.5      7.264      8.317
REMARK  5 active torsions:
REMARK  status: ('A' for Active; 'I' for Inactive)
REMARK    1  A    between atoms: C_5  and  C_3 
REMARK    2  A    between atoms: N_6  and  C_3 
REMARK    3  A    between atoms: C_5  and  C_4 
REMARK    4  A    between atoms: C_4  and  O_7 
REMARK    5  A    between atoms: C_5  and  O_8 
ROOT
HETATM    1  C   UNK N   1      27.947  19.555   7.499  0.00  0.00     0.050 C 
HETATM    2  C   UNK N   1      28.373  18.385   8.378  0.00  0.00     0.095 C 
ENDROOT
BRANCH   2   3
HETATM    3  C   UNK N   1      28.422  17.111   7.527  0.00  0.00     0.150 C 
BRANCH   3   4
HETATM    4  N   UNK N   1      27.085  16.674   7.155  0.00  0.00    -0.427 N 
HETATM    5  H   UNK N   1      26.565  17.066   6.370  0.00  0.00     0.150 HD
HETATM    6  H   UNK N   1      26.645  15.936   7.706  0.00  0.00     0.150 HD
ENDBRANCH   3   4
ENDBRANCH   2   3
BRANCH   2   7
HETATM    7  C   UNK N   1      29.765  18.668   8.977  0.00  0.00     0.149 C 
HETATM    8  C   UNK N   1      30.780  17.616   8.554  0.00  0.00     0.042 C 
BRANCH   7   9
HETATM    9  O   UNK N   1      29.697  18.681  10.374  0.00  0.00    -0.393 OA
HETATM   10  H   UNK N   1      29.140  19.011  11.097  0.00  0.00     0.210 HD
ENDBRANCH   7   9
ENDBRANCH   2   7
BRANCH   2  11
HETATM   11  O   UNK N   1      27.438  18.226   9.404  0.00  0.00    -0.386 OA
HETATM   12  H   UNK N   1      26.649  18.686   9.730  0.00  0.00     0.210 HD
ENDBRANCH   2  11
TORSDOF 5
ENDMDL
MODEL 8
REMARK VINA RESULT:      -3.4     12.019     12.634
REMARK  5 active torsions:
REMARK  status: ('A' for Active; 'I' for Inactive)
REMARK    1  A    between atoms: C_5  and  C_3 
REMARK    2  A    between atoms: N_6  and  C_3 
REMARK    3  A    between atoms: C_5  and  C_4 
REMARK    4  A    between atoms: C_4  and  O_7 
REMARK    5  A    between atoms: C_5  and  O_8 
ROOT
HETATM    1  C   UNK N   1      23.588  11.245   8.859  0.00  0.00     0.050 C 
HETATM    2  C   UNK N   1      23.325  11.968  10.174  0.00  0.00     0.095 C 
ENDROOT
BRANCH   2   3
HETATM    3  C   UNK N   1      24.651  12.148  10.920  0.00  0.00     0.150 C 
BRANCH   3   4
HETATM    4  N   UNK N   1      25.367  13.323  10.447  0.00  0.00    -0.427 N 
HETATM    5  H   UNK N   1      24.970  14.262  10.456  0.00  0.00     0.150 HD
HETATM    6  H   UNK N   1      26.315  13.202  10.090  0.00  0.00     0.150 HD
ENDBRANCH   3   4
ENDBRANCH   2   3
BRANCH   2   7
HETATM    7  C   UNK N   1      22.694  13.345   9.890  0.00  0.00     0.149 C 
HETATM    8  C   UNK N   1      21.184  13.319  10.088  0.00  0.00     0.042 C 
BRANCH   7   9
HETATM    9  O   UNK N   1      22.961  13.739   8.576  0.00  0.00    -0.393 OA
HETATM   10  H   UNK N   1      23.506  13.491   7.813  0.00  0.00     0.210 HD
ENDBRANCH   7   9
ENDBRANCH   2   7
BRANCH   2  11
HETATM   11  O   UNK N   1      22.454  11.197  10.948  0.00  0.00    -0.386 OA
HETATM   12  H   UNK N   1      21.557  10.837  10.871  0.00  0.00     0.210 HD
ENDBRANCH   2  11
TORSDOF 5
ENDMDL
MODEL 9
REMARK VINA RESULT:      -3.3      8.003      9.122
REMARK  5 active torsions:
REMARK  status: ('A' for Active; 'I' for Inactive)
REMARK    1  A    between atoms: C_5  and  C_3 
REMARK    2  A    between atoms: N_6  and  C_3 
REMARK    3  A    between atoms: C_5  and  C_4 
REMARK    4  A    between atoms: C_4  and  O_7 
REMARK    5  A    between atoms: C_5  and  O_8 
ROOT
HETATM    1  C   UNK N   1      27.642  16.778   7.233  0.00  0.00     0.050 C 
HETATM    2  C   UNK N   1      28.468  18.058   7.279  0.00  0.00     0.095 C 
ENDROOT
BRANCH   2   3
HETATM    3  C   UNK N   1      27.883  19.068   6.287  0.00  0.00     0.150 C 
BRANCH   3   4
HETATM    4  N   UNK N   1      26.998  20.011   6.954  0.00  0.00    -0.427 N 
HETATM    5  H   UNK N   1      27.111  21.022   6.897  0.00  0.00     0.150 HD
HETATM    6  H   UNK N   1      26.224  19.641   7.507  0.00  0.00     0.150 HD
ENDBRANCH   3   4
ENDBRANCH   2   3
BRANCH   2   7
HETATM    7  C   UNK N   1      28.435  18.644   8.705  0.00  0.00     0.149 C 
HETATM    8  C   UNK N   1      29.756  18.428   9.429  0.00  0.00     0.042 C 
BRANCH   7   9
HETATM    9  O   UNK N   1      27.416  18.044   9.451  0.00  0.00    -0.393 OA
HETATM   10  H   UNK N   1      27.240  17.251   9.982  0.00  0.00     0.210 HD
ENDBRANCH   7   9
ENDBRANCH   2   7
BRANCH   2  11
HETATM   11  O   UNK N   1      29.785  17.758   6.921  0.00  0.00    -0.386 OA
HETATM   12  H   UNK N   1      30.670  18.124   7.077  0.00  0.00     0.210 HD
ENDBRANCH   2  11
TORSDOF 5
ENDMDL
