MODEL 1
REMARK VINA RESULT:      -4.2      0.000      0.000
REMARK  3 active torsions:
REMARK  status: ('A' for Active; 'I' for Inactive)
REMARK    1  A    between atoms: N_2  and  C_3 
REMARK       I    between atoms: N_2  and  C_7 
REMARK    2  A    between atoms: C_3  and  C_4 
REMARK    3  A    between atoms: C_4  and  O_5 
REMARK       I    between atoms: C_7  and  N_8 
REMARK       I    between atoms: C_7  and  N_9 
ROOT
HETATM    1  C   UNK N   1      23.651  13.397   8.637  0.00  0.00     0.315 C 
HETATM    2  N   UNK N   1      23.199  13.078   9.987  0.00  0.00     0.135 N 
HETATM    3  C   UNK N   1      24.300  12.412  10.695  0.00  0.00     0.414 C 
HETATM    4  N   UNK N   1      25.498  13.240  10.690  0.00  0.00    -0.387 N 
HETATM    5  N   UNK N   1      23.922  12.148  12.075  0.00  0.00    -0.387 N 
HETATM    6  H   UNK N   1      26.112  13.399  11.489  0.00  0.00     0.153 HD
HETATM    7  H   UNK N   1      25.744  13.701   9.814  0.00  0.00     0.153 HD
HETATM    8  H   UNK N   1      22.955  12.178  12.397  0.00  0.00     0.153 HD
HETATM    9  H   UNK N   1      24.656  11.924  12.748  0.00  0.00     0.153 HD
ENDROOT
BRANCH   2  10
HETATM   10  C   UNK N   1      22.105  12.114   9.850  0.00  0.00     0.386 C 
BRANCH  10  11
HETATM   11  C   UNK N   1      20.924  12.480  10.703  0.00  0.00     0.169 C 
HETATM   12  O   UNK N   1      20.093  13.275  10.298  0.00  0.00    -0.649 OA
BRANCH  11  13
HETATM   13  O   UNK N   1      20.756  11.892  11.903  0.00  0.00    -0.775 OA
HETATM   14  H   UNK N   1      20.010  12.064  12.442  0.00  0.00     0.167 HD
ENDBRANCH  11  13
ENDBRANCH  10  11
ENDBRANCH   2  10
TORSDOF 3
ENDMDL
MODEL 2
REMARK VINA RESULT:      -4.1     12.340     12.873
REMARK  3 active torsions:
REMARK  status: ('A' for Active; 'I' for Inactive)
REMARK    1  A    between atoms: N_2  and  C_3 
REMARK       I    between atoms: N_2  and  C_7 
REMARK    2  A    between atoms: C_3  and  C_4 
REMARK    3  A    between atoms: C_4  and  O_5 
REMARK       I    between atoms: C_7  and  N_8 
REMARK       I    between atoms: C_7  and  N_9 
ROOT
HETATM    1  C   UNK N   1      33.724  14.788   8.493  0.00  0.00     0.315 C 
HETATM    2  N   UNK N   1      34.424  15.973   8.978  0.00  0.00     0.135 N 
HETATM    3  C   UNK N   1      34.484  15.904  10.443  0.00  0.00     0.414 C 
HETATM    4  N   UNK N   1      35.115  14.666  10.882  0.00  0.00    -0.387 N 
HETATM    5  N   UNK N   1      35.247  17.026  10.968  0.00  0.00    -0.387 N 
HETATM    6  H   UNK N   1      35.809  14.585  11.624  0.00  0.00     0.153 HD
HETATM    7  H   UNK N   1      34.839  13.808  10.405  0.00  0.00     0.153 HD
HETATM    8  H   UNK N   1      35.459  17.856  10.414  0.00  0.00     0.153 HD
HETATM    9  H   UNK N   1      35.585  16.981  11.930  0.00  0.00     0.153 HD
ENDROOT
BRANCH   2  10
HETATM   10  C   UNK N   1      33.602  17.129   8.615  0.00  0.00     0.386 C 
BRANCH  10  11
HETATM   11  C   UNK N   1      34.371  18.136   7.809  0.00  0.00     0.169 C 
HETATM   12  O   UNK N   1      34.334  18.108   6.590  0.00  0.00    -0.649 OA
BRANCH  11  13
HETATM   13  O   UNK N   1      35.068  19.103   8.434  0.00  0.00    -0.775 OA
HETATM   14  H   UNK N   1      35.452  19.820   7.970  0.00  0.00     0.167 HD
ENDBRANCH  11  13
ENDBRANCH  10  11
ENDBRANCH   2  10
TORSDOF 3
ENDMDL
MODEL 3
REMARK VINA RESULT:      -4.1      9.043     10.320
REMARK  3 active torsions:
REMARK  status: ('A' for Active; 'I' for Inactive)
REMARK    1  A    between atoms: N_2  and  C_3 
REMARK       I    between atoms: N_2  and  C_7 
REMARK    2  A    between atoms: C_3  and  C_4 
REMARK    3  A    between atoms: C_4  and  O_5 
REMARK       I    between atoms: C_7  and  N_8 
REMARK       I    between atoms: C_7  and  N_9 
ROOT
HETATM    1  C   UNK N   1      21.625  17.459   4.738  0.00  0.00     0.315 C 
HETATM    2  N   UNK N   1      20.714  18.327   4.001  0.00  0.00     0.135 N 
HETATM    3  C   UNK N   1      19.859  17.483   3.154  0.00  0.00     0.414 C 
HETATM    4  N   UNK N   1      19.157  16.487   3.953  0.00  0.00    -0.387 N 
HETATM    5  N   UNK N   1      18.876  18.301   2.460  0.00  0.00    -0.387 N 
HETATM    6  H   UNK N   1      18.173  16.235   3.855  0.00  0.00     0.153 HD
HETATM    7  H   UNK N   1      19.694  16.002   4.671  0.00  0.00     0.153 HD
HETATM    8  H   UNK N   1      18.962  19.313   2.377  0.00  0.00     0.153 HD
HETATM    9  H   UNK N   1      18.067  17.842   2.041  0.00  0.00     0.153 HD
ENDROOT
BRANCH   2  10
HETATM   10  C   UNK N   1      21.538  19.157   3.120  0.00  0.00     0.386 C 
BRANCH  10  11
HETATM   11  C   UNK N   1      21.156  20.608   3.195  0.00  0.00     0.169 C 
HETATM   12  O   UNK N   1      20.120  20.945   3.741  0.00  0.00    -0.649 OA
BRANCH  11  13
HETATM   13  O   UNK N   1      21.985  21.545   2.698  0.00  0.00    -0.775 OA
HETATM   14  H   UNK N   1      22.753  21.323   2.211  0.00  0.00     0.167 HD
ENDBRANCH  11  13
ENDBRANCH  10  11
ENDBRANCH   2  10
TORSDOF 3
ENDMDL
MODEL 4
REMARK VINA RESULT:      -4.1     23.312     23.882
REMARK  3 active torsions:
REMARK  status: ('A' for Active; 'I' for Inactive)
REMARK    1  A    between atoms: N_2  and  C_3 
REMARK       I    between atoms: N_2  and  C_7 
REMARK    2  A    between atoms: C_3  and  C_4 
REMARK    3  A    between atoms: C_4  and  O_5 
REMARK       I    between atoms: C_7  and  N_8 
REMARK       I    between atoms: C_7  and  N_9 
ROOT
HETATM    1  C   UNK N   1      44.125  20.618   2.400  0.00  0.00     0.315 C 
HETATM    2  N   UNK N   1      43.591  21.950   2.667  0.00  0.00     0.135 N 
HETATM    3  C   UNK N   1      44.050  22.372   3.997  0.00  0.00     0.414 C 
HETATM    4  N   UNK N   1      45.504  22.328   4.083  0.00  0.00    -0.387 N 
HETATM    5  N   UNK N   1      43.609  23.731   4.272  0.00  0.00    -0.387 N 
HETATM    6  H   UNK N   1      46.095  23.044   4.506  0.00  0.00     0.153 HD
HETATM    7  H   UNK N   1      45.971  21.512   3.687  0.00  0.00     0.153 HD
HETATM    8  H   UNK N   1      42.874  24.190   3.736  0.00  0.00     0.153 HD
HETATM    9  H   UNK N   1      44.055  24.244   5.033  0.00  0.00     0.153 HD
ENDROOT
BRANCH   2  10
HETATM   10  C   UNK N   1      42.133  21.819   2.717  0.00  0.00     0.386 C 
BRANCH  10  11
HETATM   11  C   UNK N   1      41.451  22.758   1.763  0.00  0.00     0.169 C 
HETATM   12  O   UNK N   1      40.848  22.324   0.796  0.00  0.00    -0.649 OA
BRANCH  11  13
HETATM   13  O   UNK N   1      41.466  24.082   2.002  0.00  0.00    -0.775 OA
HETATM   14  H   UNK N   1      41.761  24.439   2.816  0.00  0.00     0.167 HD
ENDBRANCH  11  13
ENDBRANCH  10  11
ENDBRANCH   2  10
TORSDOF 3
ENDMDL
MODEL 5
REMARK VINA RESULT:      -4.0     13.357     14.036
REMARK  3 active torsions:
REMARK  status: ('A' for Active; 'I' for Inactive)
REMARK    1  A    between atoms: N_2  and  C_3 
REMARK       I    between atoms: N_2  and  C_7 
REMARK    2  A    between atoms: C_3  and  C_4 
REMARK    3  A    between atoms: C_4  and  O_5 
REMARK       I    between atoms: C_7  and  N_8 
REMARK       I    between atoms: C_7  and  N_9 
ROOT
HETATM    1  C   UNK N   1      35.857  12.634  11.642  0.00  0.00     0.315 C 
HETATM    2  N   UNK N   1      36.319  13.886  12.231  0.00  0.00     0.135 N 
HETATM    3  C   UNK N   1      36.375  13.715  13.689  0.00  0.00     0.414 C 
HETATM    4  N   UNK N   1      37.221  12.585  14.048  0.00  0.00    -0.387 N 
HETATM    5  N   UNK N   1      36.911  14.915  14.315  0.00  0.00    -0.387 N 
HETATM    6  H   UNK N   1      37.911  12.576  14.800  0.00  0.00     0.153 HD
HETATM    7  H   UNK N   1      37.116  11.730  13.502  0.00  0.00     0.153 HD
HETATM    8  H   UNK N   1      36.970  15.809  13.830  0.00  0.00     0.153 HD
HETATM    9  H   UNK N   1      37.241  14.857  15.279  0.00  0.00     0.153 HD
ENDROOT
BRANCH   2  10
HETATM   10  C   UNK N   1      35.300  14.895  11.937  0.00  0.00     0.386 C 
BRANCH  10  11
HETATM   11  C   UNK N   1      35.853  16.035  11.131  0.00  0.00     0.169 C 
HETATM   12  O   UNK N   1      35.132  16.959  10.794  0.00  0.00    -0.649 OA
BRANCH  11  13
HETATM   13  O   UNK N   1      37.162  16.062  10.820  0.00  0.00    -0.775 OA
HETATM   14  H   UNK N   1      37.777  16.584  11.295  0.00  0.00     0.167 HD
ENDBRANCH  11  13
ENDBRANCH  10  11
ENDBRANCH   2  10
TORSDOF 3
ENDMDL
MODEL 6
REMARK VINA RESULT:      -3.9      2.247      3.175
REMARK  3 active torsions:
REMARK  status: ('A' for Active; 'I' for Inactive)
REMARK    1  A    between atoms: N_2  and  C_3 
REMARK       I    between atoms: N_2  and  C_7 
REMARK    2  A    between atoms: C_3  and  C_4 
REMARK    3  A    between atoms: C_4  and  O_5 
REMARK       I    between atoms: C_7  and  N_8 
REMARK       I    between atoms: C_7  and  N_9 
ROOT
HETATM    1  C   UNK N   1      21.082  13.412  10.100  0.00  0.00     0.315 C 
HETATM    2  N   UNK N   1      22.517  13.149  10.153  0.00  0.00     0.135 N 
HETATM    3  C   UNK N   1      22.998  12.953   8.779  0.00  0.00     0.414 C 
HETATM    4  N   UNK N   1      22.674  14.103   7.945  0.00  0.00    -0.387 N 
HETATM    5  N   UNK N   1      24.442  12.769   8.775  0.00  0.00    -0.387 N 
HETATM    6  H   UNK N   1      23.303  14.546   7.276  0.00  0.00     0.153 HD
HETATM    7  H   UNK N   1      21.738  14.498   8.039  0.00  0.00     0.153 HD
HETATM    8  H   UNK N   1      24.970  12.540   9.616  0.00  0.00     0.153 HD
HETATM    9  H   UNK N   1      24.945  12.872   7.893  0.00  0.00     0.153 HD
ENDROOT
BRANCH   2  10
HETATM   10  C   UNK N   1      22.689  11.886  10.873  0.00  0.00     0.386 C 
BRANCH  10  11
HETATM   11  C   UNK N   1      23.613  12.030  12.048  0.00  0.00     0.169 C 
HETATM   12  O   UNK N   1      23.192  11.884  13.184  0.00  0.00    -0.649 OA
BRANCH  11  13
HETATM   13  O   UNK N   1      24.921  12.274  11.847  0.00  0.00    -0.775 OA
HETATM   14  H   UNK N   1      25.567  11.599  11.893  0.00  0.00     0.167 HD
ENDBRANCH  11  13
ENDBRANCH  10  11
ENDBRANCH   2  10
TORSDOF 3
ENDMDL
MODEL 7
REMARK VINA RESULT:      -3.8     13.039     13.715
REMARK  3 active torsions:
REMARK  status: ('A' for Active; 'I' for Inactive)
REMARK    1  A    between atoms: N_2  and  C_3 
REMARK       I    between atoms: N_2  and  C_7 
REMARK    2  A    between atoms: C_3  and  C_4 
REMARK    3  A    between atoms: C_4  and  O_5 
REMARK       I    between atoms: C_7  and  N_8 
REMARK       I    between atoms: C_7  and  N_9 
ROOT
HETATM    1  C   UNK N   1      36.693  13.910   8.919  0.00  0.00     0.315 C 
HETATM    2  N   UNK N   1      36.472  14.794  10.059  0.00  0.00     0.135 N 
HETATM    3  C   UNK N   1      36.625  14.006  11.289  0.00  0.00     0.414 C 
HETATM    4  N   UNK N   1      37.928  13.357  11.332  0.00  0.00    -0.387 N 
HETATM    5  N   UNK N   1      36.495  14.866  12.456  0.00  0.00    -0.387 N 
HETATM    6  H   UNK N   1      38.539  13.307  12.148  0.00  0.00     0.153 HD
HETATM    7  H   UNK N   1      38.259  12.915  10.474  0.00  0.00     0.153 HD
HETATM    8  H   UNK N   1      36.091  15.801  12.408  0.00  0.00     0.153 HD
HETATM    9  H   UNK N   1      36.821  14.519  13.357  0.00  0.00     0.153 HD
ENDROOT
BRANCH   2  10
HETATM   10  C   UNK N   1      35.081  15.243   9.983  0.00  0.00     0.386 C 
BRANCH  10  11
HETATM   11  C   UNK N   1      34.969  16.741  10.030  0.00  0.00     0.169 C 
HETATM   12  O   UNK N   1      35.880  17.413  10.483  0.00  0.00    -0.649 OA
BRANCH  11  13
HETATM   13  O   UNK N   1      33.879  17.347   9.525  0.00  0.00    -0.775 OA
HETATM   14  H   UNK N   1      33.021  16.982   9.611  0.00  0.00     0.167 HD
ENDBRANCH  11  13
ENDBRANCH  10  11
ENDBRANCH   2  10
TORSDOF 3
ENDMDL
MODEL 8
REMARK VINA RESULT:      -3.8     22.798     23.898
REMARK  3 active torsions:
REMARK  status: ('A' for Active; 'I' for Inactive)
REMARK    1  A    between atoms: N_2  and  C_3 
REMARK       I    between atoms: N_2  and  C_7 
REMARK    2  A    between atoms: C_3  and  C_4 
REMARK    3  A    between atoms: C_4  and  O_5 
REMARK       I    between atoms: C_7  and  N_8 
REMARK       I    between atoms: C_7  and  N_9 
ROOT
HETATM    1  C   UNK N   1      42.400  20.072   3.064  0.00  0.00     0.315 C 
HETATM    2  N   UNK N   1      42.498  21.527   3.039  0.00  0.00     0.135 N 
HETATM    3  C   UNK N   1      41.544  22.035   2.044  0.00  0.00     0.414 C 
HETATM    4  N   UNK N   1      40.194  21.572   2.334  0.00  0.00    -0.387 N 
HETATM    5  N   UNK N   1      41.547  23.490   2.042  0.00  0.00    -0.387 N 
HETATM    6  H   UNK N   1      39.350  22.144   2.293  0.00  0.00     0.153 HD
HETATM    7  H   UNK N   1      40.083  20.594   2.602  0.00  0.00     0.153 HD
HETATM    8  H   UNK N   1      42.292  24.040   2.469  0.00  0.00     0.153 HD
HETATM    9  H   UNK N   1      40.772  23.979   1.594  0.00  0.00     0.153 HD
ENDROOT
BRANCH   2  10
HETATM   10  C   UNK N   1      43.847  21.853   2.574  0.00  0.00     0.386 C 
BRANCH  10  11
HETATM   11  C   UNK N   1      44.552  22.795   3.508  0.00  0.00     0.169 C 
HETATM   12  O   UNK N   1      44.072  23.887   3.761  0.00  0.00    -0.649 OA
BRANCH  11  13
HETATM   13  O   UNK N   1      45.696  22.414   4.106  0.00  0.00    -0.775 OA
HETATM   14  H   UNK N   1      45.843  22.533   5.023  0.00  0.00     0.167 HD
ENDBRANCH  11  13
ENDBRANCH  10  11
ENDBRANCH   2  10
TORSDOF 3
ENDMDL
MODEL 9
REMARK VINA RESULT:      -3.6     11.992     13.103
REMARK  3 active torsions:
REMARK  status: ('A' for Active; 'I' for Inactive)
REMARK    1  A    between atoms: N_2  and  C_3 
REMARK       I    between atoms: N_2  and  C_7 
REMARK    2  A    between atoms: C_3  and  C_4 
REMARK    3  A    between atoms: C_4  and  O_5 
REMARK       I    between atoms: C_7  and  N_8 
REMARK       I    between atoms: C_7  and  N_9 
ROOT
HETATM    1  C   UNK N   1      33.042  15.250   8.612  0.00  0.00     0.315 C 
HETATM    2  N   UNK N   1      33.877  16.355   9.070  0.00  0.00     0.135 N 
HETATM    3  C   UNK N   1      33.938  17.359   8.000  0.00  0.00     0.414 C 
HETATM    4  N   UNK N   1      32.601  17.793   7.617  0.00  0.00    -0.387 N 
HETATM    5  N   UNK N   1      34.695  18.520   8.443  0.00  0.00    -0.387 N 
HETATM    6  H   UNK N   1      32.317  18.758   7.445  0.00  0.00     0.153 HD
HETATM    7  H   UNK N   1      31.888  17.071   7.513  0.00  0.00     0.153 HD
HETATM    8  H   UNK N   1      35.304  18.501   9.260  0.00  0.00     0.153 HD
HETATM    9  H   UNK N   1      34.611  19.389   7.914  0.00  0.00     0.153 HD
ENDROOT
BRANCH   2  10
HETATM   10  C   UNK N   1      35.226  15.817   9.257  0.00  0.00     0.386 C 
BRANCH  10  11
HETATM   11  C   UNK N   1      35.859  16.314  10.526  0.00  0.00     0.169 C 
HETATM   12  O   UNK N   1      35.252  17.076  11.260  0.00  0.00    -0.649 OA
BRANCH  11  13
HETATM   13  O   UNK N   1      37.084  15.882  10.877  0.00  0.00    -0.775 OA
HETATM   14  H   UNK N   1      37.438  15.076  10.559  0.00  0.00     0.167 HD
ENDBRANCH  11  13
ENDBRANCH  10  11
ENDBRANCH   2  10
TORSDOF 3
ENDMDL
