MODEL 1
REMARK VINA RESULT:      -5.5      0.000      0.000
REMARK  4 active torsions:
REMARK  status: ('A' for Active; 'I' for Inactive)
REMARK    1  A    between atoms: C_5  and  C_1 
REMARK    2  A    between atoms: C_6  and  C_1 
REMARK    3  A    between atoms: C_5  and  C_3 
REMARK    4  A    between atoms: C_5  and  N_8 
REMARK       I    between atoms: N_17  and  C_7 
ROOT
HETATM    1  C   UNK N   1      35.340  16.163  11.131  0.00  0.00     0.141 A 
HETATM    2  C   UNK N   1      33.925  14.808  10.204  0.00  0.00     0.206 A 
HETATM    3  C   UNK N   1      35.240  15.013  11.884  0.00  0.00     0.029 A 
HETATM    4  C   UNK N   1      34.349  16.920   8.988  0.00  0.00     0.718 A 
HETATM    5  N   UNK N   1      34.366  14.165  11.304  0.00  0.00    -0.354 N 
ATOM      6  HN  UNK N   1      34.097  13.237  11.628  1.00  0.00     0.166 HD
HETATM    7  N   UNK N   1      33.603  16.674   7.900  0.00  0.00    -0.117 N 
ATOM      8  HN  UNK N   1      33.027  15.851   7.716  1.00  0.00     0.207 HD
HETATM    9  N   UNK N   1      34.975  18.102   8.874  0.00  0.00    -0.113 N 
ATOM     10  HN  UNK N   1      35.608  18.535   9.547  1.00  0.00     0.203 HD
HETATM   11  N   UNK N   1      33.773  17.725   7.115  0.00  0.00    -0.211 N 
HETATM   12  N   UNK N   1      34.597  18.584   7.701  0.00  0.00     0.009 NA
HETATM   13  N   UNK N   1      34.509  16.015  10.084  0.00  0.00    -0.150 N 
HETATM   14  H   UNK N   1      33.354  17.851   6.233  0.00  0.00     0.206 HD
ENDROOT
BRANCH   3  15
HETATM   15  C   UNK N   1      36.112  14.655  13.048  0.00  0.00     0.090 C 
BRANCH  15  16
HETATM   16  C   UNK N   1      36.046  13.201  13.513  0.00  0.00     0.141 C 
BRANCH  16  17
HETATM   17  C   UNK N   1      35.521  13.213  14.913  0.00  0.00     0.256 C 
HETATM   18  O   UNK N   1      34.332  13.060  15.137  0.00  0.00    -0.305 OA
ENDBRANCH  16  17
BRANCH  16  19
HETATM   19  N   UNK N   1      37.372  12.604  13.514  0.00  0.00    -0.420 N 
HETATM   20  H   UNK N   1      38.141  13.049  13.013  0.00  0.00     0.150 HD
HETATM   21  H   UNK N   1      37.535  11.732  14.019  0.00  0.00     0.150 HD
ENDBRANCH  16  19
ENDBRANCH  15  16
ENDBRANCH   3  15
TORSDOF 4
ENDMDL
MODEL 2
REMARK VINA RESULT:      -5.5     15.296     16.281
REMARK  4 active torsions:
REMARK  status: ('A' for Active; 'I' for Inactive)
REMARK    1  A    between atoms: C_5  and  C_1 
REMARK    2  A    between atoms: C_6  and  C_1 
REMARK    3  A    between atoms: C_5  and  C_3 
REMARK    4  A    between atoms: C_5  and  N_8 
REMARK       I    between atoms: N_17  and  C_7 
ROOT
HETATM    1  C   UNK N   1      20.836  18.748   4.270  0.00  0.00     0.141 A 
HETATM    2  C   UNK N   1      20.476  17.359   2.645  0.00  0.00     0.206 A 
HETATM    3  C   UNK N   1      20.838  17.458   4.754  0.00  0.00     0.029 A 
HETATM    4  C   UNK N   1      20.609  19.748   2.013  0.00  0.00     0.718 A 
HETATM    5  N   UNK N   1      20.623  16.592   3.743  0.00  0.00    -0.354 N 
ATOM      6  HN  UNK N   1      20.580  15.575   3.798  1.00  0.00     0.166 HD
HETATM    7  N   UNK N   1      20.503  19.605   0.682  0.00  0.00    -0.117 N 
ATOM      8  HN  UNK N   1      20.370  18.738   0.160  1.00  0.00     0.207 HD
HETATM    9  N   UNK N   1      20.783  21.038   2.338  0.00  0.00    -0.113 N 
ATOM     10  HN  UNK N   1      20.898  21.432   3.271  1.00  0.00     0.203 HD
HETATM   11  N   UNK N   1      20.608  20.829   0.191  0.00  0.00    -0.211 N 
HETATM   12  N   UNK N   1      20.775  21.691   1.186  0.00  0.00     0.009 NA
HETATM   13  N   UNK N   1      20.608  18.665   2.948  0.00  0.00    -0.150 N 
HETATM   14  H   UNK N   1      20.568  21.064  -0.764  0.00  0.00     0.206 HD
ENDROOT
BRANCH   3  15
HETATM   15  C   UNK N   1      21.227  17.048   6.143  0.00  0.00     0.090 C 
BRANCH  15  16
HETATM   16  C   UNK N   1      20.079  16.677   7.079  0.00  0.00     0.141 C 
BRANCH  16  17
HETATM   17  C   UNK N   1      20.042  17.712   8.158  0.00  0.00     0.256 C 
HETATM   18  O   UNK N   1      20.556  18.806   7.994  0.00  0.00    -0.305 OA
ENDBRANCH  16  17
BRANCH  16  19
HETATM   19  N   UNK N   1      20.313  15.376   7.685  0.00  0.00    -0.420 N 
HETATM   20  H   UNK N   1      19.564  14.896   8.184  0.00  0.00     0.150 HD
HETATM   21  H   UNK N   1      21.233  14.939   7.610  0.00  0.00     0.150 HD
ENDBRANCH  16  19
ENDBRANCH  15  16
ENDBRANCH   3  15
TORSDOF 4
ENDMDL
MODEL 3
REMARK VINA RESULT:      -5.4      3.080      6.437
REMARK  4 active torsions:
REMARK  status: ('A' for Active; 'I' for Inactive)
REMARK    1  A    between atoms: C_5  and  C_1 
REMARK    2  A    between atoms: C_6  and  C_1 
REMARK    3  A    between atoms: C_5  and  C_3 
REMARK    4  A    between atoms: C_5  and  N_8 
REMARK       I    between atoms: N_17  and  C_7 
ROOT
HETATM    1  C   UNK N   1      33.908  15.116  10.204  0.00  0.00     0.141 A 
HETATM    2  C   UNK N   1      35.237  16.744  10.737  0.00  0.00     0.206 A 
HETATM    3  C   UNK N   1      33.707  16.178   9.348  0.00  0.00     0.029 A 
HETATM    4  C   UNK N   1      35.470  14.679  12.079  0.00  0.00     0.718 A 
HETATM    5  N   UNK N   1      34.539  17.188   9.673  0.00  0.00    -0.354 N 
ATOM      6  HN  UNK N   1      34.621  18.094   9.213  1.00  0.00     0.166 HD
HETATM    7  N   UNK N   1      36.516  15.052  12.834  0.00  0.00    -0.117 N 
ATOM      8  HN  UNK N   1      36.995  15.953  12.827  1.00  0.00     0.207 HD
HETATM    9  N   UNK N   1      35.111  13.416  12.359  0.00  0.00    -0.113 N 
ATOM     10  HN  UNK N   1      34.357  12.878  11.934  1.00  0.00     0.203 HD
HETATM   11  N   UNK N   1      36.793  14.002  13.590  0.00  0.00    -0.211 N 
HETATM   12  N   UNK N   1      35.948  13.019  13.305  0.00  0.00     0.009 NA
HETATM   13  N   UNK N   1      34.869  15.491  11.066  0.00  0.00    -0.150 N 
HETATM   14  H   UNK N   1      37.512  13.956  14.259  0.00  0.00     0.206 HD
ENDROOT
BRANCH   3  15
HETATM   15  C   UNK N   1      32.856  16.154   8.115  0.00  0.00     0.090 C 
BRANCH  15  16
HETATM   16  C   UNK N   1      33.589  15.905   6.799  0.00  0.00     0.141 C 
BRANCH  16  17
HETATM   17  C   UNK N   1      33.753  17.232   6.131  0.00  0.00     0.256 C 
HETATM   18  O   UNK N   1      34.436  18.107   6.637  0.00  0.00    -0.305 OA
ENDBRANCH  16  17
BRANCH  16  19
HETATM   19  N   UNK N   1      32.805  15.037   5.933  0.00  0.00    -0.420 N 
HETATM   20  H   UNK N   1      31.864  15.307   5.646  0.00  0.00     0.150 HD
HETATM   21  H   UNK N   1      33.199  14.153   5.610  0.00  0.00     0.150 HD
ENDBRANCH  16  19
ENDBRANCH  15  16
ENDBRANCH   3  15
TORSDOF 4
ENDMDL
MODEL 4
REMARK VINA RESULT:      -5.1     20.862     21.724
REMARK  4 active torsions:
REMARK  status: ('A' for Active; 'I' for Inactive)
REMARK    1  A    between atoms: C_5  and  C_1 
REMARK    2  A    between atoms: C_6  and  C_1 
REMARK    3  A    between atoms: C_5  and  C_3 
REMARK    4  A    between atoms: C_5  and  N_8 
REMARK       I    between atoms: N_17  and  C_7 
ROOT
HETATM    1  C   UNK N   1      26.261  25.759  -4.246  0.00  0.00     0.141 A 
HETATM    2  C   UNK N   1      25.050  26.940  -5.601  0.00  0.00     0.206 A 
HETATM    3  C   UNK N   1      25.751  24.949  -5.237  0.00  0.00     0.029 A 
HETATM    4  C   UNK N   1      26.154  28.190  -3.774  0.00  0.00     0.718 A 
HETATM    5  N   UNK N   1      25.005  25.684  -6.086  0.00  0.00    -0.354 N 
ATOM      6  HN  UNK N   1      24.512  25.358  -6.917  1.00  0.00     0.166 HD
HETATM    7  N   UNK N   1      25.781  29.430  -4.130  0.00  0.00    -0.117 N 
ATOM      8  HN  UNK N   1      25.185  29.696  -4.915  1.00  0.00     0.207 HD
HETATM    9  N   UNK N   1      26.948  28.228  -2.692  0.00  0.00    -0.113 N 
ATOM     10  HN  UNK N   1      27.379  27.439  -2.212  1.00  0.00     0.203 HD
HETATM   11  N   UNK N   1      26.353  30.233  -3.248  0.00  0.00    -0.211 N 
HETATM   12  N   UNK N   1      27.053  29.511  -2.383  0.00  0.00     0.009 NA
HETATM   13  N   UNK N   1      25.810  27.002  -4.491  0.00  0.00    -0.150 N 
HETATM   14  H   UNK N   1      26.271  31.214  -3.235  0.00  0.00     0.206 HD
ENDROOT
BRANCH   3  15
HETATM   15  C   UNK N   1      26.129  23.518  -5.473  0.00  0.00     0.090 C 
BRANCH  15  16
HETATM   16  C   UNK N   1      26.375  23.120  -6.927  0.00  0.00     0.141 C 
BRANCH  16  17
HETATM   17  C   UNK N   1      25.263  22.202  -7.324  0.00  0.00     0.256 C 
HETATM   18  O   UNK N   1      24.410  22.560  -8.120  0.00  0.00    -0.305 OA
ENDBRANCH  16  17
BRANCH  16  19
HETATM   19  N   UNK N   1      27.638  22.411  -7.057  0.00  0.00    -0.420 N 
HETATM   20  H   UNK N   1      27.800  21.544  -6.545  0.00  0.00     0.150 HD
HETATM   21  H   UNK N   1      28.369  22.783  -7.665  0.00  0.00     0.150 HD
ENDBRANCH  16  19
ENDBRANCH  15  16
ENDBRANCH   3  15
TORSDOF 4
ENDMDL
MODEL 5
REMARK VINA RESULT:      -5.1      5.804      7.558
REMARK  4 active torsions:
REMARK  status: ('A' for Active; 'I' for Inactive)
REMARK    1  A    between atoms: C_5  and  C_1 
REMARK    2  A    between atoms: C_6  and  C_1 
REMARK    3  A    between atoms: C_5  and  C_3 
REMARK    4  A    between atoms: C_5  and  N_8 
REMARK       I    between atoms: N_17  and  C_7 
ROOT
HETATM    1  C   UNK N   1      29.630  17.904   8.105  0.00  0.00     0.141 A 
HETATM    2  C   UNK N   1      29.054  17.057   6.194  0.00  0.00     0.206 A 
HETATM    3  C   UNK N   1      30.493  16.883   7.772  0.00  0.00     0.029 A 
HETATM    4  C   UNK N   1      27.703  18.978   6.973  0.00  0.00     0.718 A 
HETATM    5  N   UNK N   1      30.141  16.361   6.580  0.00  0.00    -0.354 N 
ATOM      6  HN  UNK N   1      30.599  15.601   6.078  1.00  0.00     0.166 HD
HETATM    7  N   UNK N   1      26.913  19.113   5.896  0.00  0.00    -0.117 N 
ATOM      8  HN  UNK N   1      26.905  18.532   5.056  1.00  0.00     0.207 HD
HETATM    9  N   UNK N   1      27.434  19.931   7.879  0.00  0.00    -0.113 N 
ATOM     10  HN  UNK N   1      27.883  20.071   8.783  1.00  0.00     0.203 HD
HETATM   11  N   UNK N   1      26.148  20.161   6.153  0.00  0.00    -0.211 N 
HETATM   12  N   UNK N   1      26.459  20.652   7.346  0.00  0.00     0.009 NA
HETATM   13  N   UNK N   1      28.736  17.998   7.105  0.00  0.00    -0.150 N 
HETATM   14  H   UNK N   1      25.455  20.520   5.554  0.00  0.00     0.206 HD
ENDROOT
BRANCH   3  15
HETATM   15  C   UNK N   1      31.754  16.534   8.503  0.00  0.00     0.090 C 
BRANCH  15  16
HETATM   16  C   UNK N   1      32.888  17.552   8.406  0.00  0.00     0.141 C 
BRANCH  16  17
HETATM   17  C   UNK N   1      33.548  17.348   7.080  0.00  0.00     0.256 C 
HETATM   18  O   UNK N   1      34.387  18.134   6.671  0.00  0.00    -0.305 OA
ENDBRANCH  16  17
BRANCH  16  19
HETATM   19  N   UNK N   1      33.868  17.328   9.458  0.00  0.00    -0.420 N 
HETATM   20  H   UNK N   1      33.692  17.656  10.407  0.00  0.00     0.150 HD
HETATM   21  H   UNK N   1      34.738  16.839   9.244  0.00  0.00     0.150 HD
ENDBRANCH  16  19
ENDBRANCH  15  16
ENDBRANCH   3  15
TORSDOF 4
ENDMDL
MODEL 6
REMARK VINA RESULT:      -5.1      5.186      6.909
REMARK  4 active torsions:
REMARK  status: ('A' for Active; 'I' for Inactive)
REMARK    1  A    between atoms: C_5  and  C_1 
REMARK    2  A    between atoms: C_6  and  C_1 
REMARK    3  A    between atoms: C_5  and  C_3 
REMARK    4  A    between atoms: C_5  and  N_8 
REMARK       I    between atoms: N_17  and  C_7 
ROOT
HETATM    1  C   UNK N   1      30.638  17.299   7.183  0.00  0.00     0.141 A 
HETATM    2  C   UNK N   1      29.650  18.401   8.767  0.00  0.00     0.206 A 
HETATM    3  C   UNK N   1      31.410  17.263   8.323  0.00  0.00     0.029 A 
HETATM    4  C   UNK N   1      28.413  18.243   6.630  0.00  0.00     0.718 A 
HETATM    5  N   UNK N   1      30.793  17.940   9.312  0.00  0.00    -0.354 N 
ATOM      6  HN  UNK N   1      31.121  18.076  10.267  1.00  0.00     0.166 HD
HETATM    7  N   UNK N   1      27.282  18.857   7.011  0.00  0.00    -0.117 N 
ATOM      8  HN  UNK N   1      27.080  19.275   7.920  1.00  0.00     0.207 HD
HETATM    9  N   UNK N   1      28.313  17.812   5.362  0.00  0.00    -0.113 N 
ATOM     10  HN  UNK N   1      29.016  17.310   4.821  1.00  0.00     0.203 HD
HETATM   11  N   UNK N   1      26.484  18.805   5.957  0.00  0.00    -0.211 N 
HETATM   12  N   UNK N   1      27.104  18.179   4.966  0.00  0.00     0.009 NA
HETATM   13  N   UNK N   1      29.540  18.016   7.480  0.00  0.00    -0.150 N 
HETATM   14  H   UNK N   1      25.573  19.174   5.914  0.00  0.00     0.206 HD
ENDROOT
BRANCH   3  15
HETATM   15  C   UNK N   1      32.641  16.430   8.516  0.00  0.00     0.090 C 
BRANCH  15  16
HETATM   16  C   UNK N   1      33.878  17.168   9.022  0.00  0.00     0.141 C 
BRANCH  16  17
HETATM   17  C   UNK N   1      34.208  18.217   8.008  0.00  0.00     0.256 C 
HETATM   18  O   UNK N   1      34.549  17.909   6.878  0.00  0.00    -0.305 OA
ENDBRANCH  16  17
BRANCH  16  19
HETATM   19  N   UNK N   1      35.006  16.257   9.138  0.00  0.00    -0.420 N 
HETATM   20  H   UNK N   1      34.874  15.253   9.017  0.00  0.00     0.150 HD
HETATM   21  H   UNK N   1      35.936  16.625   9.343  0.00  0.00     0.150 HD
ENDBRANCH  16  19
ENDBRANCH  15  16
ENDBRANCH   3  15
TORSDOF 4
ENDMDL
MODEL 7
REMARK VINA RESULT:      -5.0      6.973      8.193
REMARK  4 active torsions:
REMARK  status: ('A' for Active; 'I' for Inactive)
REMARK    1  A    between atoms: C_5  and  C_1 
REMARK    2  A    between atoms: C_6  and  C_1 
REMARK    3  A    between atoms: C_5  and  C_3 
REMARK    4  A    between atoms: C_5  and  N_8 
REMARK       I    between atoms: N_17  and  C_7 
ROOT
HETATM    1  C   UNK N   1      30.761  17.147   6.153  0.00  0.00     0.141 A 
HETATM    2  C   UNK N   1      29.099  18.125   5.163  0.00  0.00     0.206 A 
HETATM    3  C   UNK N   1      31.052  17.316   4.817  0.00  0.00     0.029 A 
HETATM    4  C   UNK N   1      28.854  17.788   7.601  0.00  0.00     0.718 A 
HETATM    5  N   UNK N   1      30.023  17.932   4.201  0.00  0.00    -0.354 N 
ATOM      6  HN  UNK N   1      29.957  18.194   3.218  1.00  0.00     0.166 HD
HETATM    7  N   UNK N   1      27.683  18.422   7.771  0.00  0.00    -0.117 N 
ATOM      8  HN  UNK N   1      27.103  18.857   7.052  1.00  0.00     0.207 HD
HETATM    9  N   UNK N   1      29.329  17.351   8.778  0.00  0.00    -0.113 N 
ATOM     10  HN  UNK N   1      30.198  16.845   8.946  1.00  0.00     0.203 HD
HETATM   11  N   UNK N   1      27.439  18.364   9.070  0.00  0.00    -0.211 N 
HETATM   12  N   UNK N   1      28.428  17.719   9.675  0.00  0.00     0.009 NA
HETATM   13  N   UNK N   1      29.534  17.660   6.350  0.00  0.00    -0.150 N 
HETATM   14  H   UNK N   1      26.648  18.740   9.518  0.00  0.00     0.206 HD
ENDROOT
BRANCH   3  15
HETATM   15  C   UNK N   1      32.381  17.056   4.174  0.00  0.00     0.090 C 
BRANCH  15  16
HETATM   16  C   UNK N   1      33.152  15.845   4.696  0.00  0.00     0.141 C 
BRANCH  16  17
HETATM   17  C   UNK N   1      34.193  16.362   5.638  0.00  0.00     0.256 C 
HETATM   18  O   UNK N   1      34.274  17.553   5.889  0.00  0.00    -0.305 OA
ENDBRANCH  16  17
BRANCH  16  19
HETATM   19  N   UNK N   1      33.813  15.149   3.602  0.00  0.00    -0.420 N 
HETATM   20  H   UNK N   1      33.878  14.131   3.602  0.00  0.00     0.150 HD
HETATM   21  H   UNK N   1      34.214  15.683   2.830  0.00  0.00     0.150 HD
ENDBRANCH  16  19
ENDBRANCH  15  16
ENDBRANCH   3  15
TORSDOF 4
ENDMDL
MODEL 8
REMARK VINA RESULT:      -5.0      6.787      9.396
REMARK  4 active torsions:
REMARK  status: ('A' for Active; 'I' for Inactive)
REMARK    1  A    between atoms: C_5  and  C_1 
REMARK    2  A    between atoms: C_6  and  C_1 
REMARK    3  A    between atoms: C_5  and  C_3 
REMARK    4  A    between atoms: C_5  and  N_8 
REMARK       I    between atoms: N_17  and  C_7 
ROOT
HETATM    1  C   UNK N   1      29.495  17.914   7.727  0.00  0.00     0.141 A 
HETATM    2  C   UNK N   1      28.646  17.399   9.653  0.00  0.00     0.206 A 
HETATM    3  C   UNK N   1      28.328  18.619   7.921  0.00  0.00     0.029 A 
HETATM    4  C   UNK N   1      30.806  16.324   9.106  0.00  0.00     0.718 A 
HETATM    5  N   UNK N   1      27.802  18.306   9.123  0.00  0.00    -0.354 N 
ATOM      6  HN  UNK N   1      26.949  18.677   9.540  1.00  0.00     0.166 HD
HETATM    7  N   UNK N   1      31.006  15.683  10.268  0.00  0.00    -0.117 N 
ATOM      8  HN  UNK N   1      30.387  15.661  11.079  1.00  0.00     0.207 HD
HETATM    9  N   UNK N   1      31.841  16.130   8.274  0.00  0.00    -0.113 N 
ATOM     10  HN  UNK N   1      31.957  16.503   7.332  1.00  0.00     0.203 HD
HETATM   11  N   UNK N   1      32.180  15.085  10.139  0.00  0.00    -0.211 N 
HETATM   12  N   UNK N   1      32.681  15.353   8.940  0.00  0.00     0.009 NA
HETATM   13  N   UNK N   1      29.677  17.155   8.822  0.00  0.00    -0.150 N 
HETATM   14  H   UNK N   1      32.613  14.528  10.824  0.00  0.00     0.206 HD
ENDROOT
BRANCH   3  15
HETATM   15  C   UNK N   1      27.818  19.721   7.042  0.00  0.00     0.090 C 
BRANCH  15  16
HETATM   16  C   UNK N   1      27.116  19.284   5.759  0.00  0.00     0.141 C 
BRANCH  16  17
HETATM   17  C   UNK N   1      27.811  19.968   4.625  0.00  0.00     0.256 C 
HETATM   18  O   UNK N   1      27.266  20.090   3.540  0.00  0.00    -0.305 OA
ENDBRANCH  16  17
BRANCH  16  19
HETATM   19  N   UNK N   1      25.721  19.699   5.772  0.00  0.00    -0.420 N 
HETATM   20  H   UNK N   1      25.016  19.128   6.239  0.00  0.00     0.150 HD
HETATM   21  H   UNK N   1      25.445  20.567   5.312  0.00  0.00     0.150 HD
ENDBRANCH  16  19
ENDBRANCH  15  16
ENDBRANCH   3  15
TORSDOF 4
ENDMDL
MODEL 9
REMARK VINA RESULT:      -5.0      1.919      3.293
REMARK  4 active torsions:
REMARK  status: ('A' for Active; 'I' for Inactive)
REMARK    1  A    between atoms: C_5  and  C_1 
REMARK    2  A    between atoms: C_6  and  C_1 
REMARK    3  A    between atoms: C_5  and  C_3 
REMARK    4  A    between atoms: C_5  and  N_8 
REMARK       I    between atoms: N_17  and  C_7 
ROOT
HETATM    1  C   UNK N   1      35.174  13.241  12.831  0.00  0.00     0.141 A 
HETATM    2  C   UNK N   1      36.244  15.124  12.912  0.00  0.00     0.206 A 
HETATM    3  C   UNK N   1      36.072  13.220  13.877  0.00  0.00     0.029 A 
HETATM    4  C   UNK N   1      34.503  14.947  11.163  0.00  0.00     0.718 A 
HETATM    5  N   UNK N   1      36.731  14.394  13.934  0.00  0.00    -0.354 N 
ATOM      6  HN  UNK N   1      37.446  14.670  14.606  1.00  0.00     0.166 HD
HETATM    7  N   UNK N   1      34.575  16.200  10.686  0.00  0.00    -0.117 N 
ATOM      8  HN  UNK N   1      35.213  16.940  10.982  1.00  0.00     0.207 HD
HETATM    9  N   UNK N   1      33.537  14.258  10.536  0.00  0.00    -0.113 N 
ATOM     10  HN  UNK N   1      33.260  13.290  10.700  1.00  0.00     0.203 HD
HETATM   11  N   UNK N   1      33.643  16.271   9.750  0.00  0.00    -0.211 N 
HETATM   12  N   UNK N   1      33.020  15.104   9.659  0.00  0.00     0.009 NA
HETATM   13  N   UNK N   1      35.298  14.441  12.239  0.00  0.00    -0.150 N 
HETATM   14  H   UNK N   1      33.442  17.066   9.206  0.00  0.00     0.206 HD
ENDROOT
BRANCH   3  15
HETATM   15  C   UNK N   1      36.163  12.153  14.925  0.00  0.00     0.090 C 
BRANCH  15  16
HETATM   16  C   UNK N   1      34.903  11.920  15.757  0.00  0.00     0.141 C 
BRANCH  16  17
HETATM   17  C   UNK N   1      34.718  13.129  16.618  0.00  0.00     0.256 C 
HETATM   18  O   UNK N   1      35.678  13.768  17.015  0.00  0.00    -0.305 OA
ENDBRANCH  16  17
BRANCH  16  19
HETATM   19  N   UNK N   1      35.063  10.755  16.613  0.00  0.00    -0.420 N 
HETATM   20  H   UNK N   1      34.920   9.816  16.240  0.00  0.00     0.150 HD
HETATM   21  H   UNK N   1      35.319  10.877  17.593  0.00  0.00     0.150 HD
ENDBRANCH  16  19
ENDBRANCH  15  16
ENDBRANCH   3  15
TORSDOF 4
ENDMDL
