MODEL 1
REMARK VINA RESULT:      -5.5      0.000      0.000
REMARK  7 active torsions:
REMARK  status: ('A' for Active; 'I' for Inactive)
REMARK    1  A    between atoms: C_16  and  C_7 
REMARK    2  A    between atoms: C_10  and  C_8 
REMARK    3  A    between atoms: C_11  and  C_8 
REMARK    4  A    between atoms: C_16  and  C_10 
REMARK    5  A    between atoms: C_17  and  C_11 
REMARK    6  A    between atoms: C_14  and  C_13 
REMARK    7  A    between atoms: C_17  and  C_13 
ROOT
HETATM    1  C   UNK N   1      26.070  28.365  -3.379  0.00  0.00     0.007 C 
ENDROOT
BRANCH   1   2
HETATM    2  C   UNK N   1      26.519  26.944  -3.375  0.00  0.00     0.009 C 
HETATM    3  C   UNK N   1      26.484  26.132  -4.474  0.00  0.00    -0.044 C 
HETATM    4  C   UNK N   1      26.971  24.711  -4.354  0.00  0.00    -0.059 C 
HETATM    5  C   UNK N   1      25.954  26.609  -5.844  0.00  0.00    -0.020 C 
HETATM    6  C   UNK N   1      27.259  24.087  -3.026  0.00  0.00     0.048 C 
HETATM    7  C   UNK N   1      27.189  23.970  -5.449  0.00  0.00    -0.019 C 
HETATM    8  C   UNK N   1      27.020  24.535  -6.826  0.00  0.00     0.029 C 
HETATM    9  C   UNK N   1      25.818  25.457  -6.845  0.00  0.00     0.017 C 
HETATM   10  C   UNK N   1      26.878  27.666  -6.432  0.00  0.00     0.020 C 
HETATM   11  C   UNK N   1      24.544  27.168  -5.727  0.00  0.00     0.020 C 
ENDBRANCH   1   2
BRANCH   1  12
HETATM   12  C   UNK N   1      26.909  29.421  -3.357  0.00  0.00    -0.062 C 
HETATM   13  C   UNK N   1      26.460  30.786  -3.791  0.00  0.00     0.048 C 
BRANCH  12  14
HETATM   14  C   UNK N   1      28.316  29.185  -2.930  0.00  0.00     0.007 C 
BRANCH  14  15
HETATM   15  C   UNK N   1      29.301  28.829  -3.769  0.00  0.00     0.001 C 
BRANCH  15  16
HETATM   16  C   UNK N   1      30.194  27.700  -3.403  0.00  0.00     0.007 C 
BRANCH  16  17
HETATM   17  C   UNK N   1      30.345  26.597  -4.158  0.00  0.00    -0.063 C 
HETATM   18  C   UNK N   1      30.139  26.633  -5.645  0.00  0.00     0.048 C 
BRANCH  17  19
HETATM   19  C   UNK N   1      30.725  25.333  -3.491  0.00  0.00    -0.004 C 
HETATM   20  C   UNK N   1      30.780  24.172  -4.144  0.00  0.00     0.012 C 
ENDBRANCH  17  19
ENDBRANCH  16  17
ENDBRANCH  15  16
ENDBRANCH  14  15
ENDBRANCH  12  14
ENDBRANCH   1  12
TORSDOF 7
ENDMDL
MODEL 2
REMARK VINA RESULT:      -5.5      1.956      5.205
REMARK  7 active torsions:
REMARK  status: ('A' for Active; 'I' for Inactive)
REMARK    1  A    between atoms: C_16  and  C_7 
REMARK    2  A    between atoms: C_10  and  C_8 
REMARK    3  A    between atoms: C_11  and  C_8 
REMARK    4  A    between atoms: C_16  and  C_10 
REMARK    5  A    between atoms: C_17  and  C_11 
REMARK    6  A    between atoms: C_14  and  C_13 
REMARK    7  A    between atoms: C_17  and  C_13 
ROOT
HETATM    1  C   UNK N   1      28.018  25.100  -4.484  0.00  0.00     0.007 C 
ENDROOT
BRANCH   1   2
HETATM    2  C   UNK N   1      28.465  23.893  -5.236  0.00  0.00     0.009 C 
HETATM    3  C   UNK N   1      29.417  23.023  -4.782  0.00  0.00    -0.044 C 
HETATM    4  C   UNK N   1      29.785  21.830  -5.626  0.00  0.00    -0.059 C 
HETATM    5  C   UNK N   1      30.142  23.214  -3.433  0.00  0.00    -0.020 C 
HETATM    6  C   UNK N   1      29.330  21.698  -7.044  0.00  0.00     0.048 C 
HETATM    7  C   UNK N   1      30.515  20.830  -5.112  0.00  0.00    -0.019 C 
HETATM    8  C   UNK N   1      30.938  20.825  -3.675  0.00  0.00     0.029 C 
HETATM    9  C   UNK N   1      31.306  22.234  -3.256  0.00  0.00     0.017 C 
HETATM   10  C   UNK N   1      29.169  23.036  -2.275  0.00  0.00     0.020 C 
HETATM   11  C   UNK N   1      30.797  24.585  -3.346  0.00  0.00     0.020 C 
ENDBRANCH   1   2
BRANCH   1  12
HETATM   12  C   UNK N   1      26.730  25.370  -4.191  0.00  0.00    -0.062 C 
HETATM   13  C   UNK N   1      25.607  24.593  -4.815  0.00  0.00     0.048 C 
BRANCH  12  14
HETATM   14  C   UNK N   1      26.448  26.497  -3.260  0.00  0.00     0.007 C 
BRANCH  14  15
HETATM   15  C   UNK N   1      25.715  27.572  -3.589  0.00  0.00     0.001 C 
BRANCH  15  16
HETATM   16  C   UNK N   1      25.852  28.156  -4.949  0.00  0.00     0.007 C 
BRANCH  16  17
HETATM   17  C   UNK N   1      26.918  28.873  -5.346  0.00  0.00    -0.063 C 
HETATM   18  C   UNK N   1      27.284  30.166  -4.675  0.00  0.00     0.048 C 
BRANCH  17  19
HETATM   19  C   UNK N   1      27.737  28.360  -6.465  0.00  0.00    -0.004 C 
HETATM   20  C   UNK N   1      27.296  27.415  -7.296  0.00  0.00     0.012 C 
ENDBRANCH  17  19
ENDBRANCH  16  17
ENDBRANCH  15  16
ENDBRANCH  14  15
ENDBRANCH  12  14
ENDBRANCH   1  12
TORSDOF 7
ENDMDL
MODEL 3
REMARK VINA RESULT:      -5.4      1.818      5.592
REMARK  7 active torsions:
REMARK  status: ('A' for Active; 'I' for Inactive)
REMARK    1  A    between atoms: C_16  and  C_7 
REMARK    2  A    between atoms: C_10  and  C_8 
REMARK    3  A    between atoms: C_11  and  C_8 
REMARK    4  A    between atoms: C_16  and  C_10 
REMARK    5  A    between atoms: C_17  and  C_11 
REMARK    6  A    between atoms: C_14  and  C_13 
REMARK    7  A    between atoms: C_17  and  C_13 
ROOT
HETATM    1  C   UNK N   1      27.709  23.958  -6.965  0.00  0.00     0.007 C 
ENDROOT
BRANCH   1   2
HETATM    2  C   UNK N   1      28.602  22.898  -6.416  0.00  0.00     0.009 C 
HETATM    3  C   UNK N   1      29.231  22.985  -5.206  0.00  0.00    -0.044 C 
HETATM    4  C   UNK N   1      30.106  21.846  -4.749  0.00  0.00    -0.059 C 
HETATM    5  C   UNK N   1      29.088  24.212  -4.280  0.00  0.00    -0.020 C 
HETATM    6  C   UNK N   1      30.508  20.742  -5.673  0.00  0.00     0.048 C 
HETATM    7  C   UNK N   1      30.530  21.779  -3.479  0.00  0.00    -0.019 C 
HETATM    8  C   UNK N   1      30.106  22.786  -2.455  0.00  0.00     0.029 C 
HETATM    9  C   UNK N   1      30.056  24.159  -3.094  0.00  0.00     0.017 C 
HETATM   10  C   UNK N   1      27.665  24.316  -3.750  0.00  0.00     0.020 C 
HETATM   11  C   UNK N   1      29.461  25.498  -5.005  0.00  0.00     0.020 C 
ENDBRANCH   1   2
BRANCH   1  12
HETATM   12  C   UNK N   1      26.379  23.811  -7.131  0.00  0.00    -0.062 C 
HETATM   13  C   UNK N   1      25.715  22.474  -6.974  0.00  0.00     0.048 C 
BRANCH  12  14
HETATM   14  C   UNK N   1      25.588  25.010  -7.522  0.00  0.00     0.007 C 
BRANCH  14  15
HETATM   15  C   UNK N   1      25.928  26.267  -7.198  0.00  0.00     0.001 C 
BRANCH  15  16
HETATM   16  C   UNK N   1      25.377  26.872  -5.958  0.00  0.00     0.007 C 
BRANCH  16  17
HETATM   17  C   UNK N   1      26.073  27.704  -5.164  0.00  0.00    -0.063 C 
HETATM   18  C   UNK N   1      25.667  27.946  -3.738  0.00  0.00     0.048 C 
BRANCH  17  19
HETATM   19  C   UNK N   1      27.262  28.383  -5.723  0.00  0.00    -0.004 C 
HETATM   20  C   UNK N   1      27.576  29.641  -5.412  0.00  0.00     0.012 C 
ENDBRANCH  17  19
ENDBRANCH  16  17
ENDBRANCH  15  16
ENDBRANCH  14  15
ENDBRANCH  12  14
ENDBRANCH   1  12
TORSDOF 7
ENDMDL
MODEL 4
REMARK VINA RESULT:      -5.3      1.661      4.654
REMARK  7 active torsions:
REMARK  status: ('A' for Active; 'I' for Inactive)
REMARK    1  A    between atoms: C_16  and  C_7 
REMARK    2  A    between atoms: C_10  and  C_8 
REMARK    3  A    between atoms: C_11  and  C_8 
REMARK    4  A    between atoms: C_16  and  C_10 
REMARK    5  A    between atoms: C_17  and  C_11 
REMARK    6  A    between atoms: C_14  and  C_13 
REMARK    7  A    between atoms: C_17  and  C_13 
ROOT
HETATM    1  C   UNK N   1      26.860  25.064  -3.863  0.00  0.00     0.007 C 
ENDROOT
BRANCH   1   2
HETATM    2  C   UNK N   1      27.264  24.082  -4.910  0.00  0.00     0.009 C 
HETATM    3  C   UNK N   1      28.487  23.473  -4.951  0.00  0.00    -0.044 C 
HETATM    4  C   UNK N   1      28.782  22.491  -6.054  0.00  0.00    -0.059 C 
HETATM    5  C   UNK N   1      29.592  23.756  -3.910  0.00  0.00    -0.020 C 
HETATM    6  C   UNK N   1      27.883  22.344  -7.240  0.00  0.00     0.048 C 
HETATM    7  C   UNK N   1      29.857  21.693  -5.987  0.00  0.00    -0.019 C 
HETATM    8  C   UNK N   1      30.766  21.698  -4.797  0.00  0.00     0.029 C 
HETATM    9  C   UNK N   1      30.930  23.120  -4.298  0.00  0.00     0.017 C 
HETATM   10  C   UNK N   1      29.178  23.236  -2.541  0.00  0.00     0.020 C 
HETATM   11  C   UNK N   1      29.901  25.244  -3.822  0.00  0.00     0.020 C 
ENDBRANCH   1   2
BRANCH   1  12
HETATM   12  C   UNK N   1      26.095  26.148  -4.103  0.00  0.00    -0.062 C 
HETATM   13  C   UNK N   1      26.109  27.334  -3.181  0.00  0.00     0.048 C 
BRANCH  12  14
HETATM   14  C   UNK N   1      25.196  26.120  -5.289  0.00  0.00     0.007 C 
BRANCH  14  15
HETATM   15  C   UNK N   1      25.324  26.941  -6.342  0.00  0.00     0.001 C 
BRANCH  15  16
HETATM   16  C   UNK N   1      26.442  26.729  -7.297  0.00  0.00     0.007 C 
BRANCH  16  17
HETATM   17  C   UNK N   1      27.672  27.246  -7.128  0.00  0.00    -0.063 C 
HETATM   18  C   UNK N   1      28.905  26.404  -7.295  0.00  0.00     0.048 C 
BRANCH  17  19
HETATM   19  C   UNK N   1      27.794  28.677  -6.776  0.00  0.00    -0.004 C 
HETATM   20  C   UNK N   1      28.347  29.086  -5.634  0.00  0.00     0.012 C 
ENDBRANCH  17  19
ENDBRANCH  16  17
ENDBRANCH  15  16
ENDBRANCH  14  15
ENDBRANCH  12  14
ENDBRANCH   1  12
TORSDOF 7
ENDMDL
MODEL 5
REMARK VINA RESULT:      -5.1      1.429      3.107
REMARK  7 active torsions:
REMARK  status: ('A' for Active; 'I' for Inactive)
REMARK    1  A    between atoms: C_16  and  C_7 
REMARK    2  A    between atoms: C_10  and  C_8 
REMARK    3  A    between atoms: C_11  and  C_8 
REMARK    4  A    between atoms: C_16  and  C_10 
REMARK    5  A    between atoms: C_17  and  C_11 
REMARK    6  A    between atoms: C_14  and  C_13 
REMARK    7  A    between atoms: C_17  and  C_13 
ROOT
HETATM    1  C   UNK N   1      25.836  25.254  -4.605  0.00  0.00     0.007 C 
ENDROOT
BRANCH   1   2
HETATM    2  C   UNK N   1      27.026  24.605  -3.985  0.00  0.00     0.009 C 
HETATM    3  C   UNK N   1      27.913  23.826  -4.673  0.00  0.00    -0.044 C 
HETATM    4  C   UNK N   1      29.087  23.226  -3.943  0.00  0.00    -0.059 C 
HETATM    5  C   UNK N   1      27.760  23.524  -6.180  0.00  0.00    -0.020 C 
HETATM    6  C   UNK N   1      29.180  23.248  -2.450  0.00  0.00     0.048 C 
HETATM    7  C   UNK N   1      30.103  22.675  -4.620  0.00  0.00    -0.019 C 
HETATM    8  C   UNK N   1      30.147  22.688  -6.118  0.00  0.00     0.029 C 
HETATM    9  C   UNK N   1      28.751  22.460  -6.661  0.00  0.00     0.017 C 
HETATM   10  C   UNK N   1      27.962  24.792  -6.999  0.00  0.00     0.020 C 
HETATM   11  C   UNK N   1      26.395  22.926  -6.488  0.00  0.00     0.020 C 
ENDBRANCH   1   2
BRANCH   1  12
HETATM   12  C   UNK N   1      25.565  26.572  -4.518  0.00  0.00    -0.062 C 
HETATM   13  C   UNK N   1      24.820  27.291  -5.605  0.00  0.00     0.048 C 
BRANCH  12  14
HETATM   14  C   UNK N   1      26.069  27.310  -3.327  0.00  0.00     0.007 C 
BRANCH  14  15
HETATM   15  C   UNK N   1      26.822  28.418  -3.399  0.00  0.00     0.001 C 
BRANCH  15  16
HETATM   16  C   UNK N   1      28.288  28.288  -3.600  0.00  0.00     0.007 C 
BRANCH  16  17
HETATM   17  C   UNK N   1      28.847  27.879  -4.753  0.00  0.00    -0.063 C 
HETATM   18  C   UNK N   1      28.398  28.428  -6.077  0.00  0.00     0.048 C 
BRANCH  17  19
HETATM   19  C   UNK N   1      29.929  26.873  -4.696  0.00  0.00    -0.004 C 
HETATM   20  C   UNK N   1      30.572  26.581  -3.565  0.00  0.00     0.012 C 
ENDBRANCH  17  19
ENDBRANCH  16  17
ENDBRANCH  15  16
ENDBRANCH  14  15
ENDBRANCH  12  14
ENDBRANCH   1  12
TORSDOF 7
ENDMDL
MODEL 6
REMARK VINA RESULT:      -5.1     23.882     26.541
REMARK  7 active torsions:
REMARK  status: ('A' for Active; 'I' for Inactive)
REMARK    1  A    between atoms: C_16  and  C_7 
REMARK    2  A    between atoms: C_10  and  C_8 
REMARK    3  A    between atoms: C_11  and  C_8 
REMARK    4  A    between atoms: C_16  and  C_10 
REMARK    5  A    between atoms: C_17  and  C_11 
REMARK    6  A    between atoms: C_14  and  C_13 
REMARK    7  A    between atoms: C_17  and  C_13 
ROOT
HETATM    1  C   UNK N   1      35.236  13.287  15.479  0.00  0.00     0.007 C 
ENDROOT
BRANCH   1   2
HETATM    2  C   UNK N   1      35.260  13.020  16.945  0.00  0.00     0.009 C 
HETATM    3  C   UNK N   1      35.418  11.777  17.490  0.00  0.00    -0.044 C 
HETATM    4  C   UNK N   1      35.434  11.627  18.989  0.00  0.00    -0.059 C 
HETATM    5  C   UNK N   1      35.576  10.505  16.627  0.00  0.00    -0.020 C 
HETATM    6  C   UNK N   1      35.038  12.747  19.896  0.00  0.00     0.048 C 
HETATM    7  C   UNK N   1      35.836  10.481  19.556  0.00  0.00    -0.019 C 
HETATM    8  C   UNK N   1      36.341   9.334  18.735  0.00  0.00     0.029 C 
HETATM    9  C   UNK N   1      35.519   9.225  17.467  0.00  0.00     0.017 C 
HETATM   10  C   UNK N   1      36.896  10.538  15.868  0.00  0.00     0.020 C 
HETATM   11  C   UNK N   1      34.423  10.356  15.645  0.00  0.00     0.020 C 
ENDBRANCH   1   2
BRANCH   1  12
HETATM   12  C   UNK N   1      36.215  13.934  14.814  0.00  0.00    -0.062 C 
HETATM   13  C   UNK N   1      37.166  14.854  15.525  0.00  0.00     0.048 C 
BRANCH  12  14
HETATM   14  C   UNK N   1      36.301  13.745  13.341  0.00  0.00     0.007 C 
BRANCH  14  15
HETATM   15  C   UNK N   1      35.252  13.425  12.567  0.00  0.00     0.001 C 
BRANCH  15  16
HETATM   16  C   UNK N   1      35.375  12.297  11.607  0.00  0.00     0.007 C 
BRANCH  16  17
HETATM   17  C   UNK N   1      35.370  11.003  11.976  0.00  0.00    -0.063 C 
HETATM   18  C   UNK N   1      36.650  10.249  12.202  0.00  0.00     0.048 C 
BRANCH  17  19
HETATM   19  C   UNK N   1      34.068  10.328  12.161  0.00  0.00    -0.004 C 
HETATM   20  C   UNK N   1      33.388   9.800  11.143  0.00  0.00     0.012 C 
ENDBRANCH  17  19
ENDBRANCH  16  17
ENDBRANCH  15  16
ENDBRANCH  14  15
ENDBRANCH  12  14
ENDBRANCH   1  12
TORSDOF 7
ENDMDL
MODEL 7
REMARK VINA RESULT:      -5.1     11.667     14.126
REMARK  7 active torsions:
REMARK  status: ('A' for Active; 'I' for Inactive)
REMARK    1  A    between atoms: C_16  and  C_7 
REMARK    2  A    between atoms: C_10  and  C_8 
REMARK    3  A    between atoms: C_11  and  C_8 
REMARK    4  A    between atoms: C_16  and  C_10 
REMARK    5  A    between atoms: C_17  and  C_11 
REMARK    6  A    between atoms: C_14  and  C_13 
REMARK    7  A    between atoms: C_17  and  C_13 
ROOT
HETATM    1  C   UNK N   1      29.058  17.896   7.452  0.00  0.00     0.007 C 
ENDROOT
BRANCH   1   2
HETATM    2  C   UNK N   1      28.256  19.088   7.054  0.00  0.00     0.009 C 
HETATM    3  C   UNK N   1      27.483  19.143   5.928  0.00  0.00    -0.044 C 
HETATM    4  C   UNK N   1      26.709  20.400   5.628  0.00  0.00    -0.059 C 
HETATM    5  C   UNK N   1      27.373  17.964   4.936  0.00  0.00    -0.020 C 
HETATM    6  C   UNK N   1      26.947  21.670   6.381  0.00  0.00     0.048 C 
HETATM    7  C   UNK N   1      25.755  20.406   4.687  0.00  0.00    -0.019 C 
HETATM    8  C   UNK N   1      25.378  19.161   3.943  0.00  0.00     0.029 C 
HETATM    9  C   UNK N   1      26.626  18.351   3.656  0.00  0.00     0.017 C 
HETATM   10  C   UNK N   1      26.659  16.787   5.586  0.00  0.00     0.020 C 
HETATM   11  C   UNK N   1      28.745  17.524   4.445  0.00  0.00     0.020 C 
ENDBRANCH   1   2
BRANCH   1  12
HETATM   12  C   UNK N   1      29.712  17.786   8.626  0.00  0.00    -0.062 C 
HETATM   13  C   UNK N   1      29.011  17.326   9.872  0.00  0.00     0.048 C 
BRANCH  12  14
HETATM   14  C   UNK N   1      31.147  18.181   8.665  0.00  0.00     0.007 C 
BRANCH  14  15
HETATM   15  C   UNK N   1      32.153  17.377   8.287  0.00  0.00     0.001 C 
BRANCH  15  16
HETATM   16  C   UNK N   1      32.788  17.583   6.960  0.00  0.00     0.007 C 
BRANCH  16  17
HETATM   17  C   UNK N   1      32.368  16.981   5.833  0.00  0.00    -0.063 C 
HETATM   18  C   UNK N   1      31.614  15.682   5.875  0.00  0.00     0.048 C 
BRANCH  17  19
HETATM   19  C   UNK N   1      32.661  17.627   4.536  0.00  0.00    -0.004 C 
HETATM   20  C   UNK N   1      32.367  17.052   3.370  0.00  0.00     0.012 C 
ENDBRANCH  17  19
ENDBRANCH  16  17
ENDBRANCH  15  16
ENDBRANCH  14  15
ENDBRANCH  12  14
ENDBRANCH   1  12
TORSDOF 7
ENDMDL
MODEL 8
REMARK VINA RESULT:      -5.0      1.424      4.428
REMARK  7 active torsions:
REMARK  status: ('A' for Active; 'I' for Inactive)
REMARK    1  A    between atoms: C_16  and  C_7 
REMARK    2  A    between atoms: C_10  and  C_8 
REMARK    3  A    between atoms: C_11  and  C_8 
REMARK    4  A    between atoms: C_16  and  C_10 
REMARK    5  A    between atoms: C_17  and  C_11 
REMARK    6  A    between atoms: C_14  and  C_13 
REMARK    7  A    between atoms: C_17  and  C_13 
ROOT
HETATM    1  C   UNK N   1      25.887  25.417  -5.867  0.00  0.00     0.007 C 
ENDROOT
BRANCH   1   2
HETATM    2  C   UNK N   1      26.816  26.389  -6.512  0.00  0.00     0.009 C 
HETATM    3  C   UNK N   1      27.055  27.646  -6.032  0.00  0.00    -0.044 C 
HETATM    4  C   UNK N   1      28.021  28.541  -6.763  0.00  0.00    -0.059 C 
HETATM    5  C   UNK N   1      26.367  28.197  -4.764  0.00  0.00    -0.020 C 
HETATM    6  C   UNK N   1      28.536  28.198  -8.125  0.00  0.00     0.048 C 
HETATM    7  C   UNK N   1      28.472  29.668  -6.195  0.00  0.00    -0.019 C 
HETATM    8  C   UNK N   1      28.088  30.051  -4.798  0.00  0.00     0.029 C 
HETATM    9  C   UNK N   1      26.635  29.691  -4.562  0.00  0.00     0.017 C 
HETATM   10  C   UNK N   1      26.840  27.440  -3.530  0.00  0.00     0.020 C 
HETATM   11  C   UNK N   1      24.851  28.104  -4.872  0.00  0.00     0.020 C 
ENDBRANCH   1   2
BRANCH   1  12
HETATM   12  C   UNK N   1      26.249  24.182  -5.464  0.00  0.00    -0.062 C 
HETATM   13  C   UNK N   1      26.250  23.019  -6.414  0.00  0.00     0.048 C 
BRANCH  12  14
HETATM   14  C   UNK N   1      26.607  23.993  -4.032  0.00  0.00     0.007 C 
BRANCH  14  15
HETATM   15  C   UNK N   1      27.855  24.110  -3.553  0.00  0.00     0.001 C 
BRANCH  15  16
HETATM   16  C   UNK N   1      29.006  23.955  -4.479  0.00  0.00     0.007 C 
BRANCH  16  17
HETATM   17  C   UNK N   1      29.803  24.972  -4.852  0.00  0.00    -0.063 C 
HETATM   18  C   UNK N   1      30.174  25.187  -6.292  0.00  0.00     0.048 C 
BRANCH  17  19
HETATM   19  C   UNK N   1      30.311  25.889  -3.810  0.00  0.00    -0.004 C 
HETATM   20  C   UNK N   1      30.376  27.208  -3.991  0.00  0.00     0.012 C 
ENDBRANCH  17  19
ENDBRANCH  16  17
ENDBRANCH  15  16
ENDBRANCH  14  15
ENDBRANCH  12  14
ENDBRANCH   1  12
TORSDOF 7
ENDMDL
MODEL 9
REMARK VINA RESULT:      -5.0      1.938      5.168
REMARK  7 active torsions:
REMARK  status: ('A' for Active; 'I' for Inactive)
REMARK    1  A    between atoms: C_16  and  C_7 
REMARK    2  A    between atoms: C_10  and  C_8 
REMARK    3  A    between atoms: C_11  and  C_8 
REMARK    4  A    between atoms: C_16  and  C_10 
REMARK    5  A    between atoms: C_17  and  C_11 
REMARK    6  A    between atoms: C_14  and  C_13 
REMARK    7  A    between atoms: C_17  and  C_13 
ROOT
HETATM    1  C   UNK N   1      27.607  25.193  -3.934  0.00  0.00     0.007 C 
ENDROOT
BRANCH   1   2
HETATM    2  C   UNK N   1      27.983  24.100  -4.875  0.00  0.00     0.009 C 
HETATM    3  C   UNK N   1      29.028  23.243  -4.667  0.00  0.00    -0.044 C 
HETATM    4  C   UNK N   1      29.312  22.169  -5.685  0.00  0.00    -0.059 C 
HETATM    5  C   UNK N   1      29.943  23.332  -3.426  0.00  0.00    -0.020 C 
HETATM    6  C   UNK N   1      28.652  22.162  -7.027  0.00  0.00     0.048 C 
HETATM    7  C   UNK N   1      30.152  21.164  -5.401  0.00  0.00    -0.019 C 
HETATM    8  C   UNK N   1      30.791  21.032  -4.052  0.00  0.00     0.029 C 
HETATM    9  C   UNK N   1      31.160  22.408  -3.536  0.00  0.00     0.017 C 
HETATM   10  C   UNK N   1      29.166  22.977  -2.166  0.00  0.00     0.020 C 
HETATM   11  C   UNK N   1      30.546  24.723  -3.283  0.00  0.00     0.020 C 
ENDBRANCH   1   2
BRANCH   1  12
HETATM   12  C   UNK N   1      27.314  26.451  -4.320  0.00  0.00    -0.062 C 
HETATM   13  C   UNK N   1      28.393  27.469  -4.555  0.00  0.00     0.048 C 
BRANCH  12  14
HETATM   14  C   UNK N   1      25.879  26.820  -4.463  0.00  0.00     0.007 C 
BRANCH  14  15
HETATM   15  C   UNK N   1      25.132  26.512  -5.535  0.00  0.00     0.001 C 
BRANCH  15  16
HETATM   16  C   UNK N   1      25.677  26.763  -6.895  0.00  0.00     0.007 C 
BRANCH  16  17
HETATM   17  C   UNK N   1      26.289  25.822  -7.636  0.00  0.00    -0.063 C 
HETATM   18  C   UNK N   1      27.585  26.104  -8.342  0.00  0.00     0.048 C 
BRANCH  17  19
HETATM   19  C   UNK N   1      25.662  24.487  -7.741  0.00  0.00    -0.004 C 
HETATM   20  C   UNK N   1      25.788  23.724  -8.826  0.00  0.00     0.012 C 
ENDBRANCH  17  19
ENDBRANCH  16  17
ENDBRANCH  15  16
ENDBRANCH  14  15
ENDBRANCH  12  14
ENDBRANCH   1  12
TORSDOF 7
ENDMDL
