MODEL 1
REMARK VINA RESULT:      -5.8      0.000      0.000
REMARK  4 active torsions:
REMARK  status: ('A' for Active; 'I' for Inactive)
REMARK    1  A    between atoms: C_2  and  C_1 
REMARK    2  A    between atoms: O_12  and  C_1 
REMARK    3  A    between atoms: C_3  and  O_13 
REMARK    4  A    between atoms: C_5  and  O_15 
ROOT
HETATM    1  C   UNK N   1      34.917  15.858  10.036  0.00  0.00     0.162 C 
HETATM    2  C   UNK N   1      33.584  15.215  10.510  0.00  0.00     0.176 C 
HETATM    3  C   UNK N   1      32.684  14.961   9.279  0.00  0.00     0.185 C 
HETATM    4  C   UNK N   1      32.307  16.287   8.563  0.00  0.00     0.219 C 
HETATM    5  C   UNK N   1      33.459  17.251   8.572  0.00  0.00     0.141 A 
HETATM    6  N   UNK N   1      33.487  18.467   7.998  0.00  0.00    -0.271 N 
ATOM      7  HN  UNK N   1      32.755  18.900   7.435  1.00  0.00     0.185 HD
HETATM    8  N   UNK N   1      34.668  18.984   8.320  0.00  0.00    -0.007 NA
HETATM    9  N   UNK N   1      35.341  18.122   9.074  0.00  0.00    -0.004 NA
HETATM   10  N   UNK N   1      34.600  17.043   9.239  0.00  0.00    -0.253 N 
HETATM   11  O   UNK N   1      33.362  14.124   8.385  0.00  0.00    -0.390 OA
HETATM   12  H   UNK N   1      33.932  13.602   7.800  0.00  0.00     0.210 HD
ENDROOT
BRANCH   2  13
HETATM   13  O   UNK N   1      33.831  14.010  11.175  0.00  0.00    -0.391 OA
HETATM   14  H   UNK N   1      33.959  13.184  10.683  0.00  0.00     0.210 HD
ENDBRANCH   2  13
BRANCH   4  15
HETATM   15  O   UNK N   1      31.239  16.894   9.227  0.00  0.00    -0.385 OA
HETATM   16  H   UNK N   1      30.409  17.006   9.716  0.00  0.00     0.210 HD
ENDBRANCH   4  15
BRANCH   1  17
HETATM   17  C   UNK N   1      35.842  16.216  11.198  0.00  0.00     0.193 C 
BRANCH  17  18
HETATM   18  O   UNK N   1      37.180  16.085  10.818  0.00  0.00    -0.399 OA
HETATM   19  H   UNK N   1      37.497  16.273   9.921  0.00  0.00     0.209 HD
ENDBRANCH  17  18
ENDBRANCH   1  17
TORSDOF 4
ENDMDL
MODEL 2
REMARK VINA RESULT:      -5.8     13.804     14.952
REMARK  4 active torsions:
REMARK  status: ('A' for Active; 'I' for Inactive)
REMARK    1  A    between atoms: C_2  and  C_1 
REMARK    2  A    between atoms: O_12  and  C_1 
REMARK    3  A    between atoms: C_3  and  O_13 
REMARK    4  A    between atoms: C_5  and  O_15 
ROOT
HETATM    1  C   UNK N   1      20.593  17.979   3.227  0.00  0.00     0.162 C 
HETATM    2  C   UNK N   1      19.700  19.196   2.857  0.00  0.00     0.176 C 
HETATM    3  C   UNK N   1      20.375  19.982   1.709  0.00  0.00     0.185 C 
HETATM    4  C   UNK N   1      21.751  20.557   2.142  0.00  0.00     0.219 C 
HETATM    5  C   UNK N   1      22.479  19.597   3.039  0.00  0.00     0.141 A 
HETATM    6  N   UNK N   1      23.712  19.760   3.551  0.00  0.00    -0.271 N 
ATOM      7  HN  UNK N   1      24.355  20.533   3.376  1.00  0.00     0.185 HD
HETATM    8  N   UNK N   1      23.914  18.706   4.333  0.00  0.00    -0.007 NA
HETATM    9  N   UNK N   1      22.841  17.924   4.313  0.00  0.00    -0.004 NA
HETATM   10  N   UNK N   1      21.942  18.468   3.513  0.00  0.00    -0.253 N 
HETATM   11  O   UNK N   1      20.550  19.128   0.614  0.00  0.00    -0.390 OA
HETATM   12  H   UNK N   1      20.692  18.449  -0.063  0.00  0.00     0.210 HD
ENDROOT
BRANCH   2  13
HETATM   13  O   UNK N   1      18.431  18.767   2.457  0.00  0.00    -0.391 OA
HETATM   14  H   UNK N   1      18.197  18.701   1.519  0.00  0.00     0.210 HD
ENDBRANCH   2  13
BRANCH   4  15
HETATM   15  O   UNK N   1      21.563  21.744   2.853  0.00  0.00    -0.385 OA
HETATM   16  H   UNK N   1      21.339  22.666   3.054  0.00  0.00     0.210 HD
ENDBRANCH   4  15
BRANCH   1  17
HETATM   17  C   UNK N   1      20.041  17.184   4.409  0.00  0.00     0.193 C 
BRANCH  17  18
HETATM   18  O   UNK N   1      18.831  16.575   4.068  0.00  0.00    -0.399 OA
HETATM   19  H   UNK N   1      18.548  16.433   3.151  0.00  0.00     0.209 HD
ENDBRANCH  17  18
ENDBRANCH   1  17
TORSDOF 4
ENDMDL
MODEL 3
REMARK VINA RESULT:      -5.6     12.890     14.865
REMARK  4 active torsions:
REMARK  status: ('A' for Active; 'I' for Inactive)
REMARK    1  A    between atoms: C_2  and  C_1 
REMARK    2  A    between atoms: O_12  and  C_1 
REMARK    3  A    between atoms: C_3  and  O_13 
REMARK    4  A    between atoms: C_5  and  O_15 
ROOT
HETATM    1  C   UNK N   1      22.198  18.954   3.637  0.00  0.00     0.162 C 
HETATM    2  C   UNK N   1      22.591  20.122   2.691  0.00  0.00     0.176 C 
HETATM    3  C   UNK N   1      21.310  20.884   2.276  0.00  0.00     0.185 C 
HETATM    4  C   UNK N   1      20.339  19.973   1.477  0.00  0.00     0.219 C 
HETATM    5  C   UNK N   1      20.340  18.573   2.021  0.00  0.00     0.141 A 
HETATM    6  N   UNK N   1      19.580  17.550   1.594  0.00  0.00    -0.271 N 
ATOM      7  HN  UNK N   1      18.859  17.576   0.872  1.00  0.00     0.185 HD
HETATM    8  N   UNK N   1      19.966  16.498   2.309  0.00  0.00    -0.007 NA
HETATM    9  N   UNK N   1      20.936  16.858   3.140  0.00  0.00    -0.004 NA
HETATM   10  N   UNK N   1      21.179  18.143   2.970  0.00  0.00    -0.253 N 
HETATM   11  O   UNK N   1      20.668  21.354   3.427  0.00  0.00    -0.390 OA
HETATM   12  H   UNK N   1      20.260  21.579   4.278  0.00  0.00     0.210 HD
ENDROOT
BRANCH   2  13
HETATM   13  O   UNK N   1      23.474  20.995   3.334  0.00  0.00    -0.391 OA
HETATM   14  H   UNK N   1      23.949  21.681   2.839  0.00  0.00     0.210 HD
ENDBRANCH   2  13
BRANCH   4  15
HETATM   15  O   UNK N   1      20.742  19.911   0.141  0.00  0.00    -0.385 OA
HETATM   16  H   UNK N   1      20.730  19.999  -0.825  0.00  0.00     0.210 HD
ENDBRANCH   4  15
BRANCH   1  17
HETATM   17  C   UNK N   1      23.397  18.096   4.039  0.00  0.00     0.193 C 
BRANCH  17  18
HETATM   18  O   UNK N   1      23.954  18.561   5.233  0.00  0.00    -0.399 OA
HETATM   19  H   UNK N   1      24.167  19.494   5.390  0.00  0.00     0.209 HD
ENDBRANCH  17  18
ENDBRANCH   1  17
TORSDOF 4
ENDMDL
MODEL 4
REMARK VINA RESULT:      -5.4      1.941      3.471
REMARK  4 active torsions:
REMARK  status: ('A' for Active; 'I' for Inactive)
REMARK    1  A    between atoms: C_2  and  C_1 
REMARK    2  A    between atoms: O_12  and  C_1 
REMARK    3  A    between atoms: C_3  and  O_13 
REMARK    4  A    between atoms: C_5  and  O_15 
ROOT
HETATM    1  C   UNK N   1      33.514  17.155   8.930  0.00  0.00     0.162 C 
HETATM    2  C   UNK N   1      32.929  15.987   8.088  0.00  0.00     0.176 C 
HETATM    3  C   UNK N   1      32.564  14.820   9.036  0.00  0.00     0.185 C 
HETATM    4  C   UNK N   1      33.817  14.260   9.761  0.00  0.00     0.219 C 
HETATM    5  C   UNK N   1      34.770  15.363  10.123  0.00  0.00     0.141 A 
HETATM    6  N   UNK N   1      35.925  15.232  10.799  0.00  0.00    -0.271 N 
ATOM      7  HN  UNK N   1      36.307  14.378  11.206  1.00  0.00     0.185 HD
HETATM    8  N   UNK N   1      36.463  16.446  10.822  0.00  0.00    -0.007 NA
HETATM    9  N   UNK N   1      35.673  17.296  10.175  0.00  0.00    -0.004 NA
HETATM   10  N   UNK N   1      34.620  16.635   9.735  0.00  0.00    -0.253 N 
HETATM   11  O   UNK N   1      31.640  15.277   9.984  0.00  0.00    -0.390 OA
HETATM   12  H   UNK N   1      31.061  15.698  10.637  0.00  0.00     0.210 HD
ENDROOT
BRANCH   2  13
HETATM   13  O   UNK N   1      31.792  16.408   7.393  0.00  0.00    -0.391 OA
HETATM   14  H   UNK N   1      31.181  15.767   6.997  0.00  0.00     0.210 HD
ENDBRANCH   2  13
BRANCH   4  15
HETATM   15  O   UNK N   1      34.492  13.373   8.920  0.00  0.00    -0.385 OA
HETATM   16  H   UNK N   1      34.735  12.559   8.452  0.00  0.00     0.210 HD
ENDBRANCH   4  15
BRANCH   1  17
HETATM   17  C   UNK N   1      33.976  18.327   8.065  0.00  0.00     0.193 C 
BRANCH  17  18
HETATM   18  O   UNK N   1      34.413  17.874   6.818  0.00  0.00    -0.399 OA
HETATM   19  H   UNK N   1      35.144  18.285   6.331  0.00  0.00     0.209 HD
ENDBRANCH  17  18
ENDBRANCH   1  17
TORSDOF 4
ENDMDL
MODEL 5
REMARK VINA RESULT:      -5.3     14.731     15.960
REMARK  4 active torsions:
REMARK  status: ('A' for Active; 'I' for Inactive)
REMARK    1  A    between atoms: C_2  and  C_1 
REMARK    2  A    between atoms: O_12  and  C_1 
REMARK    3  A    between atoms: C_3  and  O_13 
REMARK    4  A    between atoms: C_5  and  O_15 
ROOT
HETATM    1  C   UNK N   1      20.853  19.412   1.893  0.00  0.00     0.162 C 
HETATM    2  C   UNK N   1      20.224  19.543   3.308  0.00  0.00     0.176 C 
HETATM    3  C   UNK N   1      20.645  18.323   4.159  0.00  0.00     0.185 C 
HETATM    4  C   UNK N   1      20.111  16.995   3.557  0.00  0.00     0.219 C 
HETATM    5  C   UNK N   1      20.160  17.024   2.056  0.00  0.00     0.141 A 
HETATM    6  N   UNK N   1      19.820  16.023   1.227  0.00  0.00    -0.271 N 
ATOM      7  HN  UNK N   1      19.521  15.082   1.485  1.00  0.00     0.185 HD
HETATM    8  N   UNK N   1      19.952  16.517   0.001  0.00  0.00    -0.007 NA
HETATM    9  N   UNK N   1      20.351  17.781   0.071  0.00  0.00    -0.004 NA
HETATM   10  N   UNK N   1      20.482  18.108   1.343  0.00  0.00    -0.253 N 
HETATM   11  O   UNK N   1      22.042  18.276   4.227  0.00  0.00    -0.390 OA
HETATM   12  H   UNK N   1      23.010  18.285   4.160  0.00  0.00     0.210 HD
ENDROOT
BRANCH   2  13
HETATM   13  O   UNK N   1      20.651  20.723   3.925  0.00  0.00    -0.391 OA
HETATM   14  H   UNK N   1      20.897  20.737   4.863  0.00  0.00     0.210 HD
ENDBRANCH   2  13
BRANCH   4  15
HETATM   15  O   UNK N   1      18.780  16.808   3.936  0.00  0.00    -0.385 OA
HETATM   16  H   UNK N   1      17.896  16.983   4.295  0.00  0.00     0.210 HD
ENDBRANCH   4  15
BRANCH   1  17
HETATM   17  C   UNK N   1      20.428  20.540   0.954  0.00  0.00     0.193 C 
BRANCH  17  18
HETATM   18  O   UNK N   1      20.869  21.774   1.438  0.00  0.00    -0.399 OA
HETATM   19  H   UNK N   1      20.304  22.560   1.480  0.00  0.00     0.209 HD
ENDBRANCH  17  18
ENDBRANCH   1  17
TORSDOF 4
ENDMDL
MODEL 6
REMARK VINA RESULT:      -5.3      1.564      3.262
REMARK  4 active torsions:
REMARK  status: ('A' for Active; 'I' for Inactive)
REMARK    1  A    between atoms: C_2  and  C_1 
REMARK    2  A    between atoms: O_12  and  C_1 
REMARK    3  A    between atoms: C_3  and  O_13 
REMARK    4  A    between atoms: C_5  and  O_15 
ROOT
HETATM    1  C   UNK N   1      33.819  14.881   8.327  0.00  0.00     0.162 C 
HETATM    2  C   UNK N   1      34.703  14.237   9.430  0.00  0.00     0.176 C 
HETATM    3  C   UNK N   1      34.542  15.045  10.739  0.00  0.00     0.185 C 
HETATM    4  C   UNK N   1      35.036  16.508  10.571  0.00  0.00     0.219 C 
HETATM    5  C   UNK N   1      34.692  17.042   9.211  0.00  0.00     0.141 A 
HETATM    6  N   UNK N   1      34.930  18.285   8.757  0.00  0.00    -0.271 N 
ATOM      7  HN  UNK N   1      35.337  19.063   9.275  1.00  0.00     0.185 HD
HETATM    8  N   UNK N   1      34.526  18.284   7.491  0.00  0.00    -0.007 NA
HETATM    9  N   UNK N   1      34.063  17.081   7.172  0.00  0.00    -0.004 NA
HETATM   10  N   UNK N   1      34.163  16.300   8.231  0.00  0.00    -0.253 N 
HETATM   11  O   UNK N   1      33.191  15.049  11.107  0.00  0.00    -0.390 OA
HETATM   12  H   UNK N   1      32.232  15.055  11.244  0.00  0.00     0.210 HD
ENDROOT
BRANCH   2  13
HETATM   13  O   UNK N   1      34.327  12.907   9.644  0.00  0.00    -0.391 OA
HETATM   14  H   UNK N   1      34.469  12.478  10.502  0.00  0.00     0.210 HD
ENDBRANCH   2  13
BRANCH   4  15
HETATM   15  O   UNK N   1      36.425  16.553  10.708  0.00  0.00    -0.385 OA
HETATM   16  H   UNK N   1      37.326  16.901  10.807  0.00  0.00     0.210 HD
ENDBRANCH   4  15
BRANCH   1  17
HETATM   17  C   UNK N   1      33.974  14.191   6.973  0.00  0.00     0.193 C 
BRANCH  17  18
HETATM   18  O   UNK N   1      32.912  14.524   6.129  0.00  0.00    -0.399 OA
HETATM   19  H   UNK N   1      32.085  14.018   6.093  0.00  0.00     0.209 HD
ENDBRANCH  17  18
ENDBRANCH   1  17
TORSDOF 4
ENDMDL
MODEL 7
REMARK VINA RESULT:      -5.2     12.971     14.450
REMARK  4 active torsions:
REMARK  status: ('A' for Active; 'I' for Inactive)
REMARK    1  A    between atoms: C_2  and  C_1 
REMARK    2  A    between atoms: O_12  and  C_1 
REMARK    3  A    between atoms: C_3  and  O_13 
REMARK    4  A    between atoms: C_5  and  O_15 
ROOT
HETATM    1  C   UNK N   1      21.949  17.778   4.225  0.00  0.00     0.162 C 
HETATM    2  C   UNK N   1      20.588  17.034   4.308  0.00  0.00     0.176 C 
HETATM    3  C   UNK N   1      20.053  16.804   2.875  0.00  0.00     0.185 C 
HETATM    4  C   UNK N   1      19.782  18.147   2.145  0.00  0.00     0.219 C 
HETATM    5  C   UNK N   1      20.822  19.173   2.495  0.00  0.00     0.141 A 
HETATM    6  N   UNK N   1      20.911  20.420   2.002  0.00  0.00    -0.271 N 
ATOM      7  HN  UNK N   1      20.320  20.845   1.287  1.00  0.00     0.185 HD
HETATM    8  N   UNK N   1      21.931  20.983   2.642  0.00  0.00    -0.007 NA
HETATM    9  N   UNK N   1      22.446  20.117   3.507  0.00  0.00    -0.004 NA
HETATM   10  N   UNK N   1      21.765  18.989   3.426  0.00  0.00    -0.253 N 
HETATM   11  O   UNK N   1      20.995  16.062   2.152  0.00  0.00    -0.390 OA
HETATM   12  H   UNK N   1      21.732  15.609   1.714  0.00  0.00     0.210 HD
ENDROOT
BRANCH   2  13
HETATM   13  O   UNK N   1      20.740  15.807   4.961  0.00  0.00    -0.391 OA
HETATM   14  H   UNK N   1      21.076  15.028   4.491  0.00  0.00     0.210 HD
ENDBRANCH   2  13
BRANCH   4  15
HETATM   15  O   UNK N   1      18.539  18.652   2.533  0.00  0.00    -0.385 OA
HETATM   16  H   UNK N   1      17.849  19.273   2.813  0.00  0.00     0.210 HD
ENDBRANCH   4  15
BRANCH   1  17
HETATM   17  C   UNK N   1      22.518  18.117   5.603  0.00  0.00     0.193 C 
BRANCH  17  18
HETATM   18  O   UNK N   1      21.508  18.580   6.449  0.00  0.00    -0.399 OA
HETATM   19  H   UNK N   1      21.677  18.913   7.345  0.00  0.00     0.209 HD
ENDBRANCH  17  18
ENDBRANCH   1  17
TORSDOF 4
ENDMDL
MODEL 8
REMARK VINA RESULT:      -5.2      2.778      4.184
REMARK  4 active torsions:
REMARK  status: ('A' for Active; 'I' for Inactive)
REMARK    1  A    between atoms: C_2  and  C_1 
REMARK    2  A    between atoms: O_12  and  C_1 
REMARK    3  A    between atoms: C_3  and  O_13 
REMARK    4  A    between atoms: C_5  and  O_15 
ROOT
HETATM    1  C   UNK N   1      34.352  16.100   7.855  0.00  0.00     0.162 C 
HETATM    2  C   UNK N   1      34.361  16.859   9.211  0.00  0.00     0.176 C 
HETATM    3  C   UNK N   1      35.010  15.957  10.287  0.00  0.00     0.185 C 
HETATM    4  C   UNK N   1      34.191  14.657  10.511  0.00  0.00     0.219 C 
HETATM    5  C   UNK N   1      33.629  14.143   9.217  0.00  0.00     0.141 A 
HETATM    6  N   UNK N   1      32.916  13.016   9.048  0.00  0.00    -0.271 N 
ATOM      7  HN  UNK N   1      32.686  12.319   9.757  1.00  0.00     0.185 HD
HETATM    8  N   UNK N   1      32.572  13.002   7.765  0.00  0.00    -0.007 NA
HETATM    9  N   UNK N   1      33.048  14.087   7.165  0.00  0.00    -0.004 NA
HETATM   10  N   UNK N   1      33.705  14.804   8.057  0.00  0.00    -0.253 N 
HETATM   11  O   UNK N   1      36.308  15.627   9.881  0.00  0.00    -0.390 OA
HETATM   12  H   UNK N   1      37.163  15.396   9.487  0.00  0.00     0.210 HD
ENDROOT
BRANCH   2  13
HETATM   13  O   UNK N   1      35.078  18.054   9.097  0.00  0.00    -0.391 OA
HETATM   14  H   UNK N   1      35.743  18.305   9.758  0.00  0.00     0.210 HD
ENDBRANCH   2  13
BRANCH   4  15
HETATM   15  O   UNK N   1      33.119  14.918  11.367  0.00  0.00    -0.385 OA
HETATM   16  H   UNK N   1      32.585  14.980  12.175  0.00  0.00     0.210 HD
ENDBRANCH   4  15
BRANCH   1  17
HETATM   17  C   UNK N   1      33.658  16.888   6.745  0.00  0.00     0.193 C 
BRANCH  17  18
HETATM   18  O   UNK N   1      34.413  18.010   6.395  0.00  0.00    -0.399 OA
HETATM   19  H   UNK N   1      35.258  18.234   6.815  0.00  0.00     0.209 HD
ENDBRANCH  17  18
ENDBRANCH   1  17
TORSDOF 4
ENDMDL
MODEL 9
REMARK VINA RESULT:      -5.1     11.341     12.369
REMARK  4 active torsions:
REMARK  status: ('A' for Active; 'I' for Inactive)
REMARK    1  A    between atoms: C_2  and  C_1 
REMARK    2  A    between atoms: O_12  and  C_1 
REMARK    3  A    between atoms: C_3  and  O_13 
REMARK    4  A    between atoms: C_5  and  O_15 
ROOT
HETATM    1  C   UNK N   1      42.146  20.565   2.315  0.00  0.00     0.162 C 
HETATM    2  C   UNK N   1      40.972  21.171   1.495  0.00  0.00     0.176 C 
HETATM    3  C   UNK N   1      41.513  22.333   0.629  0.00  0.00     0.185 C 
HETATM    4  C   UNK N   1      42.082  23.482   1.505  0.00  0.00     0.219 C 
HETATM    5  C   UNK N   1      42.791  22.939   2.713  0.00  0.00     0.141 A 
HETATM    6  N   UNK N   1      43.439  23.656   3.648  0.00  0.00    -0.271 N 
ATOM      7  HN  UNK N   1      43.585  24.665   3.659  1.00  0.00     0.185 HD
HETATM    8  N   UNK N   1      43.844  22.773   4.554  0.00  0.00    -0.007 NA
HETATM    9  N   UNK N   1      43.453  21.556   4.196  0.00  0.00    -0.004 NA
HETATM   10  N   UNK N   1      42.797  21.646   3.055  0.00  0.00    -0.253 N 
HETATM   11  O   UNK N   1      42.519  21.843  -0.211  0.00  0.00    -0.390 OA
HETATM   12  H   UNK N   1      43.247  21.431  -0.701  0.00  0.00     0.210 HD
ENDROOT
BRANCH   2  13
HETATM   13  O   UNK N   1      40.394  20.197   0.676  0.00  0.00    -0.391 OA
HETATM   14  H   UNK N   1      40.869  19.839  -0.089  0.00  0.00     0.210 HD
ENDBRANCH   2  13
BRANCH   4  15
HETATM   15  O   UNK N   1      41.038  24.294   1.954  0.00  0.00    -0.385 OA
HETATM   16  H   UNK N   1      40.307  24.931   1.952  0.00  0.00     0.210 HD
ENDBRANCH   4  15
BRANCH   1  17
HETATM   17  C   UNK N   1      41.689  19.456   3.261  0.00  0.00     0.193 C 
BRANCH  17  18
HETATM   18  O   UNK N   1      40.550  19.851   3.967  0.00  0.00    -0.399 OA
HETATM   19  H   UNK N   1      39.882  20.451   3.602  0.00  0.00     0.209 HD
ENDBRANCH  17  18
ENDBRANCH   1  17
TORSDOF 4
ENDMDL
