MODEL 1
REMARK VINA RESULT:      -6.4      0.000      0.000
REMARK  10 active torsions:
REMARK  status: ('A' for Active; 'I' for Inactive)
REMARK    1  A    between atoms: C_3  and  C_2 
REMARK    2  A    between atoms: O_21  and  C_2 
REMARK    3  A    between atoms: O_13  and  C_4 
REMARK    4  A    between atoms: O_14  and  C_5 
REMARK    5  A    between atoms: C_6  and  O_15 
REMARK    6  A    between atoms: C_7  and  O_16 
REMARK    7  A    between atoms: C_8  and  N_12 
REMARK    8  A    between atoms: P_23  and  O_18 
REMARK    9  A    between atoms: P_23  and  O_19 
REMARK   10  A    between atoms: P_23  and  O_21 
ROOT
HETATM    1  C   UNK N   1      32.484  17.691   7.501  0.00  0.00     0.180 C 
HETATM    2  C   UNK N   1      33.458  17.118   6.441  0.00  0.00     0.182 C 
HETATM    3  C   UNK N   1      34.596  16.601   7.308  0.00  0.00     0.198 C 
HETATM    4  C   UNK N   1      33.743  16.138   8.475  0.00  0.00     0.266 C 
HETATM    5  O   UNK N   1      32.973  17.282   8.756  0.00  0.00    -0.353 OA
ENDROOT
BRANCH   4   6
HETATM    6  N   UNK N   1      34.318  15.613   9.733  0.00  0.00    -0.249 N 
HETATM    7  C   UNK N   1      35.160  16.311  10.563  0.00  0.00     0.152 A 
HETATM    8  C   UNK N   1      35.670  15.705  11.715  0.00  0.00     0.112 A 
HETATM    9  C   UNK N   1      35.317  14.393  12.009  0.00  0.00     0.147 A 
HETATM   10  N   UNK N   1      34.485  13.719  11.188  0.00  0.00    -0.289 N 
HETATM   11  C   UNK N   1      33.981  14.302  10.060  0.00  0.00     0.332 A 
ATOM     12  HN  UNK N   1      34.228  12.758  11.413  1.00  0.00     0.172 HD
HETATM   13  O   UNK N   1      33.240  13.651   9.343  0.00  0.00    -0.246 OA
BRANCH   7  14
HETATM   14  O   UNK N   1      35.518  17.579  10.299  0.00  0.00    -0.346 OA
HETATM   15  H   UNK N   1      35.154  18.283  10.798  0.00  0.00     0.219 HD
ENDBRANCH   7  14
BRANCH   9  16
HETATM   16  O   UNK N   1      35.803  13.792  13.105  0.00  0.00    -0.346 OA
HETATM   17  H   UNK N   1      35.295  13.771  13.892  0.00  0.00     0.219 HD
ENDBRANCH   9  16
ENDBRANCH   4   6
BRANCH   3  18
HETATM   18  O   UNK N   1      35.300  15.571   6.678  0.00  0.00    -0.388 OA
HETATM   19  H   UNK N   1      36.081  14.997   6.723  0.00  0.00     0.210 HD
ENDBRANCH   3  18
BRANCH   2  20
HETATM   20  O   UNK N   1      33.885  18.071   5.512  0.00  0.00    -0.390 OA
HETATM   21  H   UNK N   1      34.771  18.106   5.118  0.00  0.00     0.210 HD
ENDBRANCH   2  20
BRANCH   1  22
HETATM   22  C   UNK N   1      31.078  17.090   7.447  0.00  0.00     0.215 C 
BRANCH  22  23
HETATM   23  O   UNK N   1      30.404  17.087   8.666  0.00  0.00    -0.294 OA
BRANCH  23  24
HETATM   24  P   UNK N   1      29.203  18.337   8.517  0.00  0.00     0.390 P 
HETATM   25  O   UNK N   1      28.493  17.072   7.970  0.00  0.00    -0.632 OA
BRANCH  24  26
HETATM   26  O   UNK N   1      27.722  18.264   9.415  0.00  0.00    -0.307 OA
HETATM   27  H   UNK N   1      26.957  18.842   9.274  0.00  0.00     0.222 HD
ENDBRANCH  24  26
BRANCH  24  28
HETATM   28  O   UNK N   1      29.498  18.159  10.226  0.00  0.00    -0.307 OA
HETATM   29  H   UNK N   1      29.607  17.504  10.933  0.00  0.00     0.222 HD
ENDBRANCH  24  28
ENDBRANCH  23  24
ENDBRANCH  22  23
ENDBRANCH   1  22
TORSDOF 10
ENDMDL
MODEL 2
REMARK VINA RESULT:      -6.2     12.384     14.463
REMARK  10 active torsions:
REMARK  status: ('A' for Active; 'I' for Inactive)
REMARK    1  A    between atoms: C_3  and  C_2 
REMARK    2  A    between atoms: O_21  and  C_2 
REMARK    3  A    between atoms: O_13  and  C_4 
REMARK    4  A    between atoms: O_14  and  C_5 
REMARK    5  A    between atoms: C_6  and  O_15 
REMARK    6  A    between atoms: C_7  and  O_16 
REMARK    7  A    between atoms: C_8  and  N_12 
REMARK    8  A    between atoms: P_23  and  O_18 
REMARK    9  A    between atoms: P_23  and  O_19 
REMARK   10  A    between atoms: P_23  and  O_21 
ROOT
HETATM    1  C   UNK N   1      18.996  15.032   4.587  0.00  0.00     0.180 C 
HETATM    2  C   UNK N   1      19.572  14.344   3.323  0.00  0.00     0.182 C 
HETATM    3  C   UNK N   1      19.891  15.537   2.435  0.00  0.00     0.198 C 
HETATM    4  C   UNK N   1      20.319  16.482   3.542  0.00  0.00     0.266 C 
HETATM    5  O   UNK N   1      19.234  16.411   4.434  0.00  0.00    -0.353 OA
ENDROOT
BRANCH   4   6
HETATM    6  N   UNK N   1      20.662  17.901   3.301  0.00  0.00    -0.249 N 
HETATM    7  C   UNK N   1      19.803  18.840   2.783  0.00  0.00     0.152 A 
HETATM    8  C   UNK N   1      20.243  20.148   2.567  0.00  0.00     0.112 A 
HETATM    9  C   UNK N   1      21.555  20.488   2.881  0.00  0.00     0.147 A 
HETATM   10  N   UNK N   1      22.388  19.559   3.393  0.00  0.00    -0.289 N 
HETATM   11  C   UNK N   1      21.967  18.277   3.608  0.00  0.00     0.332 A 
ATOM     12  HN  UNK N   1      23.346  19.817   3.624  1.00  0.00     0.172 HD
HETATM   13  O   UNK N   1      22.757  17.468   4.065  0.00  0.00    -0.246 OA
BRANCH   7  14
HETATM   14  O   UNK N   1      18.534  18.535   2.469  0.00  0.00    -0.346 OA
HETATM   15  H   UNK N   1      17.981  19.178   2.070  0.00  0.00     0.219 HD
ENDBRANCH   7  14
BRANCH   9  16
HETATM   16  O   UNK N   1      21.998  21.738   2.673  0.00  0.00    -0.346 OA
HETATM   17  H   UNK N   1      22.402  22.214   3.371  0.00  0.00     0.219 HD
ENDBRANCH   9  16
ENDBRANCH   4   6
BRANCH   3  18
HETATM   18  O   UNK N   1      20.904  15.243   1.517  0.00  0.00    -0.388 OA
HETATM   19  H   UNK N   1      21.836  15.385   1.288  0.00  0.00     0.210 HD
ENDBRANCH   3  18
BRANCH   2  20
HETATM   20  O   UNK N   1      18.677  13.455   2.722  0.00  0.00    -0.390 OA
HETATM   21  H   UNK N   1      17.742  13.643   2.542  0.00  0.00     0.210 HD
ENDBRANCH   2  20
BRANCH   1  22
HETATM   22  C   UNK N   1      19.733  14.679   5.880  0.00  0.00     0.215 C 
BRANCH  22  23
HETATM   23  O   UNK N   1      19.431  15.504   6.961  0.00  0.00    -0.294 OA
BRANCH  23  24
HETATM   24  P   UNK N   1      20.741  15.272   8.082  0.00  0.00     0.390 P 
HETATM   25  O   UNK N   1      20.340  13.831   7.674  0.00  0.00    -0.632 OA
BRANCH  24  26
HETATM   26  O   UNK N   1      22.232  14.549   7.574  0.00  0.00    -0.307 OA
HETATM   27  H   UNK N   1      22.547  14.507   6.657  0.00  0.00     0.222 HD
ENDBRANCH  24  26
BRANCH  24  28
HETATM   28  O   UNK N   1      21.425  16.106   6.712  0.00  0.00    -0.307 OA
HETATM   29  H   UNK N   1      21.284  16.309   5.774  0.00  0.00     0.222 HD
ENDBRANCH  24  28
ENDBRANCH  23  24
ENDBRANCH  22  23
ENDBRANCH   1  22
TORSDOF 10
ENDMDL
MODEL 3
REMARK VINA RESULT:      -6.1      2.242      4.386
REMARK  10 active torsions:
REMARK  status: ('A' for Active; 'I' for Inactive)
REMARK    1  A    between atoms: C_3  and  C_2 
REMARK    2  A    between atoms: O_21  and  C_2 
REMARK    3  A    between atoms: O_13  and  C_4 
REMARK    4  A    between atoms: O_14  and  C_5 
REMARK    5  A    between atoms: C_6  and  O_15 
REMARK    6  A    between atoms: C_7  and  O_16 
REMARK    7  A    between atoms: C_8  and  N_12 
REMARK    8  A    between atoms: P_23  and  O_18 
REMARK    9  A    between atoms: P_23  and  O_19 
REMARK   10  A    between atoms: P_23  and  O_21 
ROOT
HETATM    1  C   UNK N   1      30.194  16.145   6.671  0.00  0.00     0.180 C 
HETATM    2  C   UNK N   1      29.536  17.239   7.550  0.00  0.00     0.182 C 
HETATM    3  C   UNK N   1      30.394  17.192   8.805  0.00  0.00     0.198 C 
HETATM    4  C   UNK N   1      31.712  16.892   8.115  0.00  0.00     0.266 C 
HETATM    5  O   UNK N   1      31.388  15.777   7.320  0.00  0.00    -0.353 OA
ENDROOT
BRANCH   4   6
HETATM    6  N   UNK N   1      32.964  16.618   8.856  0.00  0.00    -0.249 N 
HETATM    7  C   UNK N   1      33.202  15.492   9.606  0.00  0.00     0.152 A 
HETATM    8  C   UNK N   1      34.411  15.350  10.291  0.00  0.00     0.112 A 
HETATM    9  C   UNK N   1      35.367  16.356  10.205  0.00  0.00     0.147 A 
HETATM   10  N   UNK N   1      35.123  17.455   9.461  0.00  0.00    -0.289 N 
HETATM   11  C   UNK N   1      33.944  17.604   8.788  0.00  0.00     0.332 A 
ATOM     12  HN  UNK N   1      35.831  18.187   9.401  1.00  0.00     0.172 HD
HETATM   13  O   UNK N   1      33.764  18.618   8.135  0.00  0.00    -0.246 OA
BRANCH   7  14
HETATM   14  O   UNK N   1      32.293  14.508   9.707  0.00  0.00    -0.346 OA
HETATM   15  H   UNK N   1      32.405  13.714   9.222  0.00  0.00     0.219 HD
ENDBRANCH   7  14
BRANCH   9  16
HETATM   16  O   UNK N   1      36.531  16.242  10.863  0.00  0.00    -0.346 OA
HETATM   17  H   UNK N   1      36.768  15.425  11.255  0.00  0.00     0.219 HD
ENDBRANCH   9  16
ENDBRANCH   4   6
BRANCH   3  18
HETATM   18  O   UNK N   1      30.378  18.411   9.489  0.00  0.00    -0.388 OA
HETATM   19  H   UNK N   1      30.846  19.248   9.636  0.00  0.00     0.210 HD
ENDBRANCH   3  18
BRANCH   2  20
HETATM   20  O   UNK N   1      28.186  16.993   7.817  0.00  0.00    -0.390 OA
HETATM   21  H   UNK N   1      27.788  16.973   8.702  0.00  0.00     0.210 HD
ENDBRANCH   2  20
BRANCH   1  22
HETATM   22  C   UNK N   1      30.665  16.644   5.304  0.00  0.00     0.215 C 
BRANCH  22  23
HETATM   23  O   UNK N   1      31.557  15.793   4.654  0.00  0.00    -0.294 OA
BRANCH  23  24
HETATM   24  P   UNK N   1      32.828  16.831   4.078  0.00  0.00     0.390 P 
HETATM   25  O   UNK N   1      31.737  17.816   4.572  0.00  0.00    -0.632 OA
BRANCH  24  26
HETATM   26  O   UNK N   1      33.675  17.889   5.160  0.00  0.00    -0.307 OA
HETATM   27  H   UNK N   1      33.253  18.508   5.777  0.00  0.00     0.222 HD
ENDBRANCH  24  26
BRANCH  24  28
HETATM   28  O   UNK N   1      33.497  15.962   5.433  0.00  0.00    -0.307 OA
HETATM   29  H   UNK N   1      33.763  16.053   6.362  0.00  0.00     0.222 HD
ENDBRANCH  24  28
ENDBRANCH  23  24
ENDBRANCH  22  23
ENDBRANCH   1  22
TORSDOF 10
ENDMDL
MODEL 4
REMARK VINA RESULT:      -6.1     11.149     13.828
REMARK  10 active torsions:
REMARK  status: ('A' for Active; 'I' for Inactive)
REMARK    1  A    between atoms: C_3  and  C_2 
REMARK    2  A    between atoms: O_21  and  C_2 
REMARK    3  A    between atoms: O_13  and  C_4 
REMARK    4  A    between atoms: O_14  and  C_5 
REMARK    5  A    between atoms: C_6  and  O_15 
REMARK    6  A    between atoms: C_7  and  O_16 
REMARK    7  A    between atoms: C_8  and  N_12 
REMARK    8  A    between atoms: P_23  and  O_18 
REMARK    9  A    between atoms: P_23  and  O_19 
REMARK   10  A    between atoms: P_23  and  O_21 
ROOT
HETATM    1  C   UNK N   1      20.316  15.698   5.679  0.00  0.00     0.180 C 
HETATM    2  C   UNK N   1      20.028  16.606   6.901  0.00  0.00     0.182 C 
HETATM    3  C   UNK N   1      21.123  17.655   6.778  0.00  0.00     0.198 C 
HETATM    4  C   UNK N   1      21.147  17.718   5.261  0.00  0.00     0.266 C 
HETATM    5  O   UNK N   1      21.286  16.364   4.907  0.00  0.00    -0.353 OA
ENDROOT
BRANCH   4   6
HETATM    6  N   UNK N   1      22.130  18.526   4.505  0.00  0.00    -0.249 N 
HETATM    7  C   UNK N   1      23.494  18.425   4.633  0.00  0.00     0.152 A 
HETATM    8  C   UNK N   1      24.330  19.262   3.889  0.00  0.00     0.112 A 
HETATM    9  C   UNK N   1      23.769  20.193   3.023  0.00  0.00     0.147 A 
HETATM   10  N   UNK N   1      22.428  20.280   2.903  0.00  0.00    -0.289 N 
HETATM   11  C   UNK N   1      21.601  19.467   3.625  0.00  0.00     0.332 A 
ATOM     12  HN  UNK N   1      22.025  20.963   2.262  1.00  0.00     0.172 HD
HETATM   13  O   UNK N   1      20.395  19.586   3.491  0.00  0.00    -0.246 OA
BRANCH   7  14
HETATM   14  O   UNK N   1      24.059  17.536   5.465  0.00  0.00    -0.346 OA
HETATM   15  H   UNK N   1      23.697  16.675   5.549  0.00  0.00     0.219 HD
ENDBRANCH   7  14
BRANCH   9  16
HETATM   16  O   UNK N   1      24.556  21.011   2.307  0.00  0.00    -0.346 OA
HETATM   17  H   UNK N   1      25.485  20.894   2.317  0.00  0.00     0.219 HD
ENDBRANCH   9  16
ENDBRANCH   4   6
BRANCH   3  18
HETATM   18  O   UNK N   1      20.760  18.858   7.389  0.00  0.00    -0.388 OA
HETATM   19  H   UNK N   1      20.594  19.803   7.249  0.00  0.00     0.210 HD
ENDBRANCH   3  18
BRANCH   2  20
HETATM   20  O   UNK N   1      20.079  15.923   8.120  0.00  0.00    -0.390 OA
HETATM   21  H   UNK N   1      19.451  16.040   8.850  0.00  0.00     0.210 HD
ENDBRANCH   2  20
BRANCH   1  22
HETATM   22  C   UNK N   1      19.132  15.548   4.722  0.00  0.00     0.215 C 
BRANCH  22  23
HETATM   23  O   UNK N   1      18.357  14.410   4.936  0.00  0.00    -0.294 OA
BRANCH  23  24
HETATM   24  P   UNK N   1      19.059  13.190   3.915  0.00  0.00     0.390 P 
HETATM   25  O   UNK N   1      17.659  12.623   4.265  0.00  0.00    -0.632 OA
BRANCH  24  26
HETATM   26  O   UNK N   1      18.362  12.806   2.374  0.00  0.00    -0.307 OA
HETATM   27  H   UNK N   1      18.059  13.458   1.723  0.00  0.00     0.222 HD
ENDBRANCH  24  26
BRANCH  24  28
HETATM   28  O   UNK N   1      18.889  14.609   2.916  0.00  0.00    -0.307 OA
HETATM   29  H   UNK N   1      19.358  15.179   2.288  0.00  0.00     0.222 HD
ENDBRANCH  24  28
ENDBRANCH  23  24
ENDBRANCH  22  23
ENDBRANCH   1  22
TORSDOF 10
ENDMDL
MODEL 5
REMARK VINA RESULT:      -6.1      3.279      6.971
REMARK  10 active torsions:
REMARK  status: ('A' for Active; 'I' for Inactive)
REMARK    1  A    between atoms: C_3  and  C_2 
REMARK    2  A    between atoms: O_21  and  C_2 
REMARK    3  A    between atoms: O_13  and  C_4 
REMARK    4  A    between atoms: O_14  and  C_5 
REMARK    5  A    between atoms: C_6  and  O_15 
REMARK    6  A    between atoms: C_7  and  O_16 
REMARK    7  A    between atoms: C_8  and  N_12 
REMARK    8  A    between atoms: P_23  and  O_18 
REMARK    9  A    between atoms: P_23  and  O_19 
REMARK   10  A    between atoms: P_23  and  O_21 
ROOT
HETATM    1  C   UNK N   1      36.046  12.932  12.325  0.00  0.00     0.180 C 
HETATM    2  C   UNK N   1      37.364  13.268  11.582  0.00  0.00     0.182 C 
HETATM    3  C   UNK N   1      36.850  13.945  10.321  0.00  0.00     0.198 C 
HETATM    4  C   UNK N   1      35.663  14.644  10.959  0.00  0.00     0.266 C 
HETATM    5  O   UNK N   1      35.016  13.588  11.626  0.00  0.00    -0.353 OA
ENDROOT
BRANCH   4   6
HETATM    6  N   UNK N   1      34.669  15.414  10.179  0.00  0.00    -0.249 N 
HETATM    7  C   UNK N   1      33.551  14.879   9.586  0.00  0.00     0.152 A 
HETATM    8  C   UNK N   1      32.693  15.696   8.845  0.00  0.00     0.112 A 
HETATM    9  C   UNK N   1      32.982  17.050   8.715  0.00  0.00     0.147 A 
HETATM   10  N   UNK N   1      34.080  17.565   9.306  0.00  0.00    -0.289 N 
HETATM   11  C   UNK N   1      34.925  16.774  10.032  0.00  0.00     0.332 A 
ATOM     12  HN  UNK N   1      34.282  18.559   9.208  1.00  0.00     0.172 HD
HETATM   13  O   UNK N   1      35.911  17.281  10.541  0.00  0.00    -0.246 OA
BRANCH   7  14
HETATM   14  O   UNK N   1      33.252  13.575   9.695  0.00  0.00    -0.346 OA
HETATM   15  H   UNK N   1      33.129  13.055   8.925  0.00  0.00     0.219 HD
ENDBRANCH   7  14
BRANCH   9  16
HETATM   16  O   UNK N   1      32.174  17.848   8.000  0.00  0.00    -0.346 OA
HETATM   17  H   UNK N   1      32.179  18.773   8.148  0.00  0.00     0.219 HD
ENDBRANCH   9  16
ENDBRANCH   4   6
BRANCH   3  18
HETATM   18  O   UNK N   1      37.797  14.818   9.778  0.00  0.00    -0.388 OA
HETATM   19  H   UNK N   1      38.368  15.583   9.954  0.00  0.00     0.210 HD
ENDBRANCH   3  18
BRANCH   2  20
HETATM   20  O   UNK N   1      38.142  12.140  11.303  0.00  0.00    -0.390 OA
HETATM   21  H   UNK N   1      37.792  11.264  11.079  0.00  0.00     0.210 HD
ENDBRANCH   2  20
BRANCH   1  22
HETATM   22  C   UNK N   1      35.958  13.518  13.735  0.00  0.00     0.215 C 
BRANCH  22  23
HETATM   23  O   UNK N   1      34.803  13.173  14.433  0.00  0.00    -0.294 OA
BRANCH  23  24
HETATM   24  P   UNK N   1      35.363  12.659  15.998  0.00  0.00     0.390 P 
HETATM   25  O   UNK N   1      36.355  13.781  15.597  0.00  0.00    -0.632 OA
BRANCH  24  26
HETATM   26  O   UNK N   1      35.344  13.742  17.352  0.00  0.00    -0.307 OA
HETATM   27  H   UNK N   1      34.655  14.402  17.528  0.00  0.00     0.222 HD
ENDBRANCH  24  26
BRANCH  24  28
HETATM   28  O   UNK N   1      33.777  13.337  16.256  0.00  0.00    -0.307 OA
HETATM   29  H   UNK N   1      32.895  13.141  16.609  0.00  0.00     0.222 HD
ENDBRANCH  24  28
ENDBRANCH  23  24
ENDBRANCH  22  23
ENDBRANCH   1  22
TORSDOF 10
ENDMDL
MODEL 6
REMARK VINA RESULT:      -6.1      3.222      4.915
REMARK  10 active torsions:
REMARK  status: ('A' for Active; 'I' for Inactive)
REMARK    1  A    between atoms: C_3  and  C_2 
REMARK    2  A    between atoms: O_21  and  C_2 
REMARK    3  A    between atoms: O_13  and  C_4 
REMARK    4  A    between atoms: O_14  and  C_5 
REMARK    5  A    between atoms: C_6  and  O_15 
REMARK    6  A    between atoms: C_7  and  O_16 
REMARK    7  A    between atoms: C_8  and  N_12 
REMARK    8  A    between atoms: P_23  and  O_18 
REMARK    9  A    between atoms: P_23  and  O_19 
REMARK   10  A    between atoms: P_23  and  O_21 
ROOT
HETATM    1  C   UNK N   1      34.019  15.879   7.424  0.00  0.00     0.180 C 
HETATM    2  C   UNK N   1      34.424  17.298   7.896  0.00  0.00     0.182 C 
HETATM    3  C   UNK N   1      34.706  17.069   9.373  0.00  0.00     0.198 C 
HETATM    4  C   UNK N   1      35.294  15.677   9.234  0.00  0.00     0.266 C 
HETATM    5  O   UNK N   1      34.306  15.006   8.490  0.00  0.00    -0.353 OA
ENDROOT
BRANCH   4   6
HETATM    6  N   UNK N   1      35.680  14.847  10.398  0.00  0.00    -0.249 N 
HETATM    7  C   UNK N   1      34.824  14.446  11.394  0.00  0.00     0.152 A 
HETATM    8  C   UNK N   1      35.303  13.687  12.465  0.00  0.00     0.112 A 
HETATM    9  C   UNK N   1      36.649  13.344  12.511  0.00  0.00     0.147 A 
HETATM   10  N   UNK N   1      37.479  13.740  11.523  0.00  0.00    -0.289 N 
HETATM   11  C   UNK N   1      37.021  14.482  10.472  0.00  0.00     0.332 A 
ATOM     12  HN  UNK N   1      38.465  13.480  11.562  1.00  0.00     0.172 HD
HETATM   13  O   UNK N   1      37.809  14.825   9.607  0.00  0.00    -0.246 OA
BRANCH   7  14
HETATM   14  O   UNK N   1      33.520  14.768  11.374  0.00  0.00    -0.346 OA
HETATM   15  H   UNK N   1      33.165  15.244  10.649  0.00  0.00     0.219 HD
ENDBRANCH   7  14
BRANCH   9  16
HETATM   16  O   UNK N   1      37.129  12.623  13.536  0.00  0.00    -0.346 OA
HETATM   17  H   UNK N   1      37.936  12.156  13.442  0.00  0.00     0.219 HD
ENDBRANCH   9  16
ENDBRANCH   4   6
BRANCH   3  18
HETATM   18  O   UNK N   1      35.601  18.015   9.882  0.00  0.00    -0.388 OA
HETATM   19  H   UNK N   1      36.527  18.300   9.909  0.00  0.00     0.210 HD
ENDBRANCH   3  18
BRANCH   2  20
HETATM   20  O   UNK N   1      33.427  18.255   7.684  0.00  0.00    -0.390 OA
HETATM   21  H   UNK N   1      32.557  18.075   7.293  0.00  0.00     0.210 HD
ENDBRANCH   2  20
BRANCH   1  22
HETATM   22  C   UNK N   1      34.869  15.337   6.274  0.00  0.00     0.215 C 
BRANCH  22  23
HETATM   23  O   UNK N   1      34.751  13.965   6.064  0.00  0.00    -0.294 OA
BRANCH  23  24
HETATM   24  P   UNK N   1      36.374  13.417   5.759  0.00  0.00     0.390 P 
HETATM   25  O   UNK N   1      36.495  14.963   5.750  0.00  0.00    -0.632 OA
BRANCH  24  26
HETATM   26  O   UNK N   1      37.653  13.745   6.882  0.00  0.00    -0.307 OA
HETATM   27  H   UNK N   1      37.593  13.630   7.843  0.00  0.00     0.222 HD
ENDBRANCH  24  26
BRANCH  24  28
HETATM   28  O   UNK N   1      35.977  12.863   7.363  0.00  0.00    -0.307 OA
HETATM   29  H   UNK N   1      35.246  12.758   7.991  0.00  0.00     0.222 HD
ENDBRANCH  24  28
ENDBRANCH  23  24
ENDBRANCH  22  23
ENDBRANCH   1  22
TORSDOF 10
ENDMDL
MODEL 7
REMARK VINA RESULT:      -6.0     15.164     17.524
REMARK  10 active torsions:
REMARK  status: ('A' for Active; 'I' for Inactive)
REMARK    1  A    between atoms: C_3  and  C_2 
REMARK    2  A    between atoms: O_21  and  C_2 
REMARK    3  A    between atoms: O_13  and  C_4 
REMARK    4  A    between atoms: O_14  and  C_5 
REMARK    5  A    between atoms: C_6  and  O_15 
REMARK    6  A    between atoms: C_7  and  O_16 
REMARK    7  A    between atoms: C_8  and  N_12 
REMARK    8  A    between atoms: P_23  and  O_18 
REMARK    9  A    between atoms: P_23  and  O_19 
REMARK   10  A    between atoms: P_23  and  O_21 
ROOT
HETATM    1  C   UNK N   1      26.727  26.560  -6.706  0.00  0.00     0.180 C 
HETATM    2  C   UNK N   1      25.849  25.315  -6.991  0.00  0.00     0.182 C 
HETATM    3  C   UNK N   1      26.691  24.195  -6.400  0.00  0.00     0.198 C 
HETATM    4  C   UNK N   1      27.248  24.982  -5.228  0.00  0.00     0.266 C 
HETATM    5  O   UNK N   1      27.763  26.131  -5.856  0.00  0.00    -0.353 OA
ENDROOT
BRANCH   4   6
HETATM    6  N   UNK N   1      28.262  24.434  -4.300  0.00  0.00    -0.249 N 
HETATM    7  C   UNK N   1      29.612  24.396  -4.546  0.00  0.00     0.152 A 
HETATM    8  C   UNK N   1      30.479  23.826  -3.610  0.00  0.00     0.112 A 
HETATM    9  C   UNK N   1      29.961  23.301  -2.431  0.00  0.00     0.147 A 
HETATM   10  N   UNK N   1      28.633  23.349  -2.198  0.00  0.00    -0.289 N 
HETATM   11  C   UNK N   1      27.777  23.904  -3.108  0.00  0.00     0.332 A 
ATOM     12  HN  UNK N   1      28.262  22.965  -1.330  1.00  0.00     0.172 HD
HETATM   13  O   UNK N   1      26.583  23.917  -2.859  0.00  0.00    -0.246 OA
BRANCH   7  14
HETATM   14  O   UNK N   1      30.136  24.894  -5.678  0.00  0.00    -0.346 OA
HETATM   15  H   UNK N   1      30.139  24.378  -6.460  0.00  0.00     0.219 HD
ENDBRANCH   7  14
BRANCH   9  16
HETATM   16  O   UNK N   1      30.776  22.742  -1.524  0.00  0.00    -0.346 OA
HETATM   17  H   UNK N   1      31.673  22.577  -1.739  0.00  0.00     0.219 HD
ENDBRANCH   9  16
ENDBRANCH   4   6
BRANCH   3  18
HETATM   18  O   UNK N   1      25.907  23.099  -6.026  0.00  0.00    -0.388 OA
HETATM   19  H   UNK N   1      25.030  22.690  -6.088  0.00  0.00     0.210 HD
ENDBRANCH   3  18
BRANCH   2  20
HETATM   20  O   UNK N   1      25.587  25.125  -8.351  0.00  0.00    -0.390 OA
HETATM   21  H   UNK N   1      24.727  24.871  -8.722  0.00  0.00     0.210 HD
ENDBRANCH   2  20
BRANCH   1  22
HETATM   22  C   UNK N   1      26.021  27.649  -5.897  0.00  0.00     0.215 C 
BRANCH  22  23
HETATM   23  O   UNK N   1      26.869  28.626  -5.380  0.00  0.00    -0.294 OA
BRANCH  23  24
HETATM   24  P   UNK N   1      26.303  28.898  -3.757  0.00  0.00     0.390 P 
HETATM   25  O   UNK N   1      25.187  28.037  -4.402  0.00  0.00    -0.632 OA
BRANCH  24  26
HETATM   26  O   UNK N   1      26.097  27.580  -2.651  0.00  0.00    -0.307 OA
HETATM   27  H   UNK N   1      25.475  26.845  -2.770  0.00  0.00     0.222 HD
ENDBRANCH  24  26
BRANCH  24  28
HETATM   28  O   UNK N   1      27.762  27.957  -3.603  0.00  0.00    -0.307 OA
HETATM   29  H   UNK N   1      28.240  27.197  -3.969  0.00  0.00     0.222 HD
ENDBRANCH  24  28
ENDBRANCH  23  24
ENDBRANCH  22  23
ENDBRANCH   1  22
TORSDOF 10
ENDMDL
MODEL 8
REMARK VINA RESULT:      -6.0     15.234     17.677
REMARK  10 active torsions:
REMARK  status: ('A' for Active; 'I' for Inactive)
REMARK    1  A    between atoms: C_3  and  C_2 
REMARK    2  A    between atoms: O_21  and  C_2 
REMARK    3  A    between atoms: O_13  and  C_4 
REMARK    4  A    between atoms: O_14  and  C_5 
REMARK    5  A    between atoms: C_6  and  O_15 
REMARK    6  A    between atoms: C_7  and  O_16 
REMARK    7  A    between atoms: C_8  and  N_12 
REMARK    8  A    between atoms: P_23  and  O_18 
REMARK    9  A    between atoms: P_23  and  O_19 
REMARK   10  A    between atoms: P_23  and  O_21 
ROOT
HETATM    1  C   UNK N   1      25.641  25.116  -5.870  0.00  0.00     0.180 C 
HETATM    2  C   UNK N   1      26.054  26.573  -5.544  0.00  0.00     0.182 C 
HETATM    3  C   UNK N   1      26.998  26.377  -4.368  0.00  0.00     0.198 C 
HETATM    4  C   UNK N   1      27.612  25.072  -4.841  0.00  0.00     0.266 C 
HETATM    5  O   UNK N   1      26.476  24.283  -5.103  0.00  0.00    -0.353 OA
ENDROOT
BRANCH   4   6
HETATM    6  N   UNK N   1      28.573  24.293  -4.028  0.00  0.00    -0.249 N 
HETATM    7  C   UNK N   1      28.282  23.699  -2.824  0.00  0.00     0.152 A 
HETATM    8  C   UNK N   1      29.277  23.012  -2.124  0.00  0.00     0.112 A 
HETATM    9  C   UNK N   1      30.559  22.937  -2.657  0.00  0.00     0.147 A 
HETATM   10  N   UNK N   1      30.831  23.520  -3.843  0.00  0.00    -0.289 N 
HETATM   11  C   UNK N   1      29.865  24.195  -4.535  0.00  0.00     0.332 A 
ATOM     12  HN  UNK N   1      31.773  23.457  -4.229  1.00  0.00     0.172 HD
HETATM   13  O   UNK N   1      30.159  24.714  -5.598  0.00  0.00    -0.246 OA
BRANCH   7  14
HETATM   14  O   UNK N   1      27.052  23.761  -2.287  0.00  0.00    -0.346 OA
HETATM   15  H   UNK N   1      26.889  23.387  -1.444  0.00  0.00     0.219 HD
ENDBRANCH   7  14
BRANCH   9  16
HETATM   16  O   UNK N   1      31.529  22.288  -1.996  0.00  0.00    -0.346 OA
HETATM   17  H   UNK N   1      31.999  21.594  -2.415  0.00  0.00     0.219 HD
ENDBRANCH   9  16
ENDBRANCH   4   6
BRANCH   3  18
HETATM   18  O   UNK N   1      27.914  27.427  -4.257  0.00  0.00    -0.388 OA
HETATM   19  H   UNK N   1      28.664  27.779  -3.752  0.00  0.00     0.210 HD
ENDBRANCH   3  18
BRANCH   2  20
HETATM   20  O   UNK N   1      24.969  27.396  -5.227  0.00  0.00    -0.390 OA
HETATM   21  H   UNK N   1      24.038  27.124  -5.253  0.00  0.00     0.210 HD
ENDBRANCH   2  20
BRANCH   1  22
HETATM   22  C   UNK N   1      25.934  24.692  -7.311  0.00  0.00     0.215 C 
BRANCH  22  23
HETATM   23  O   UNK N   1      24.934  23.923  -7.901  0.00  0.00    -0.294 OA
BRANCH  23  24
HETATM   24  P   UNK N   1      25.689  22.393  -8.243  0.00  0.00     0.390 P 
HETATM   25  O   UNK N   1      24.316  22.004  -7.636  0.00  0.00    -0.632 OA
BRANCH  24  26
HETATM   26  O   UNK N   1      25.008  21.302  -9.406  0.00  0.00    -0.307 OA
HETATM   27  H   UNK N   1      24.474  21.567 -10.171  0.00  0.00     0.222 HD
ENDBRANCH  24  26
BRANCH  24  28
HETATM   28  O   UNK N   1      25.455  23.166  -9.788  0.00  0.00    -0.307 OA
HETATM   29  H   UNK N   1      24.897  23.801 -10.264  0.00  0.00     0.222 HD
ENDBRANCH  24  28
ENDBRANCH  23  24
ENDBRANCH  22  23
ENDBRANCH   1  22
TORSDOF 10
ENDMDL
MODEL 9
REMARK VINA RESULT:      -6.0      2.177      3.362
REMARK  10 active torsions:
REMARK  status: ('A' for Active; 'I' for Inactive)
REMARK    1  A    between atoms: C_3  and  C_2 
REMARK    2  A    between atoms: O_21  and  C_2 
REMARK    3  A    between atoms: O_13  and  C_4 
REMARK    4  A    between atoms: O_14  and  C_5 
REMARK    5  A    between atoms: C_6  and  O_15 
REMARK    6  A    between atoms: C_7  and  O_16 
REMARK    7  A    between atoms: C_8  and  N_12 
REMARK    8  A    between atoms: P_23  and  O_18 
REMARK    9  A    between atoms: P_23  and  O_19 
REMARK   10  A    between atoms: P_23  and  O_21 
ROOT
HETATM    1  C   UNK N   1      30.107  16.482   5.271  0.00  0.00     0.180 C 
HETATM    2  C   UNK N   1      30.358  14.954   5.236  0.00  0.00     0.182 C 
HETATM    3  C   UNK N   1      31.749  14.849   5.842  0.00  0.00     0.198 C 
HETATM    4  C   UNK N   1      31.598  15.981   6.843  0.00  0.00     0.266 C 
HETATM    5  O   UNK N   1      31.151  17.041   6.032  0.00  0.00    -0.353 OA
ENDROOT
BRANCH   4   6
HETATM    6  N   UNK N   1      32.711  16.453   7.697  0.00  0.00    -0.249 N 
HETATM    7  C   UNK N   1      33.677  17.347   7.304  0.00  0.00     0.152 A 
HETATM    8  C   UNK N   1      34.702  17.701   8.185  0.00  0.00     0.112 A 
HETATM    9  C   UNK N   1      34.733  17.141   9.458  0.00  0.00     0.147 A 
HETATM   10  N   UNK N   1      33.776  16.268   9.833  0.00  0.00    -0.289 N 
HETATM   11  C   UNK N   1      32.769  15.915   8.979  0.00  0.00     0.332 A 
ATOM     12  HN  UNK N   1      33.804  15.865  10.769  1.00  0.00     0.172 HD
HETATM   13  O   UNK N   1      31.930  15.116   9.359  0.00  0.00    -0.246 OA
BRANCH   7  14
HETATM   14  O   UNK N   1      33.671  17.899   6.080  0.00  0.00    -0.346 OA
HETATM   15  H   UNK N   1      33.009  17.659   5.461  0.00  0.00     0.219 HD
ENDBRANCH   7  14
BRANCH   9  16
HETATM   16  O   UNK N   1      35.715  17.462  10.314  0.00  0.00    -0.346 OA
HETATM   17  H   UNK N   1      36.324  18.140  10.096  0.00  0.00     0.219 HD
ENDBRANCH   9  16
ENDBRANCH   4   6
BRANCH   3  18
HETATM   18  O   UNK N   1      31.967  13.599   6.429  0.00  0.00    -0.388 OA
HETATM   19  H   UNK N   1      32.523  13.095   7.043  0.00  0.00     0.210 HD
ENDBRANCH   3  18
BRANCH   2  20
HETATM   20  O   UNK N   1      30.296  14.414   3.947  0.00  0.00    -0.390 OA
HETATM   21  H   UNK N   1      30.644  14.841   3.148  0.00  0.00     0.210 HD
ENDBRANCH   2  20
BRANCH   1  22
HETATM   22  C   UNK N   1      28.845  16.889   6.033  0.00  0.00     0.215 C 
BRANCH  22  23
HETATM   23  O   UNK N   1      28.988  18.031   6.819  0.00  0.00    -0.294 OA
BRANCH  23  24
HETATM   24  P   UNK N   1      28.666  17.500   8.444  0.00  0.00     0.390 P 
HETATM   25  O   UNK N   1      29.028  18.999   8.606  0.00  0.00    -0.632 OA
BRANCH  24  26
HETATM   26  O   UNK N   1      27.344  18.156   9.353  0.00  0.00    -0.307 OA
HETATM   27  H   UNK N   1      26.994  17.782  10.176  0.00  0.00     0.222 HD
ENDBRANCH  24  26
BRANCH  24  28
HETATM   28  O   UNK N   1      27.158  17.345   7.584  0.00  0.00    -0.307 OA
HETATM   29  H   UNK N   1      26.477  16.710   7.315  0.00  0.00     0.222 HD
ENDBRANCH  24  28
ENDBRANCH  23  24
ENDBRANCH  22  23
ENDBRANCH   1  22
TORSDOF 10
ENDMDL
